MODEL 1
REMARK VINA RESULT:      -7.3      0.000      0.000
REMARK  16 active torsions:
REMARK  status: ('A' for Active; 'I' for Inactive)
REMARK    1  A    between atoms: C_2  and  C_3 
REMARK    2  A    between atoms: C_3  and  C_4 
REMARK    3  A    between atoms: C_4  and  C_5 
REMARK    4  A    between atoms: C_5  and  C_6 
REMARK    5  A    between atoms: C_7  and  C_8 
REMARK    6  A    between atoms: C_8  and  C_9 
REMARK    7  A    between atoms: C_10  and  C_11 
REMARK    8  A    between atoms: C_11  and  C_12 
REMARK    9  A    between atoms: C_12  and  C_13 
REMARK   10  A    between atoms: C_13  and  C_14 
REMARK   11  A    between atoms: C_14  and  C_15 
REMARK   12  A    between atoms: C_15  and  C_16 
REMARK   13  A    between atoms: C_16  and  C_17 
REMARK   14  A    between atoms: C_17  and  C_18 
REMARK   15  A    between atoms: C_18  and  O_20 
REMARK   16  A    between atoms: O_20  and  C_21 
ROOT
HETATM    1  C   UNL     1     -21.176  -6.646  -6.007  1.00  0.00     0.027 C 
ENDROOT
BRANCH   1   2
HETATM    2  C   UNL     1     -21.929  -6.545  -4.715  1.00  0.00    -0.030 C 
HETATM    3  C   UNL     1     -21.358  -6.219  -3.546  1.00  0.00    -0.027 C 
BRANCH   3   4
HETATM    4  C   UNL     1     -22.107  -6.126  -2.250  1.00  0.00     0.053 C 
BRANCH   4   5
HETATM    5  C   UNL     1     -21.716  -7.237  -1.324  1.00  0.00    -0.027 C 
HETATM    6  C   UNL     1     -22.366  -7.526  -0.185  1.00  0.00    -0.030 C 
BRANCH   6   7
HETATM    7  C   UNL     1     -21.969  -8.635   0.743  1.00  0.00     0.027 C 
BRANCH   7   8
HETATM    8  C   UNL     1     -22.127 -10.000   0.071  1.00  0.00     0.004 C 
BRANCH   8   9
HETATM    9  C   UNL     1     -23.595 -10.284  -0.242  1.00  0.00    -0.000 C 
BRANCH   9  10
HETATM   10  C   UNL     1     -23.876 -11.785  -0.286  1.00  0.00    -0.005 C 
HETATM   11  C   UNL     1     -22.978 -12.540   0.680  1.00  0.00     0.005 C 
ENDBRANCH   9  10
ENDBRANCH   8   9
ENDBRANCH   7   8
ENDBRANCH   6   7
ENDBRANCH   4   5
ENDBRANCH   3   4
ENDBRANCH   1   2
BRANCH   1  12
HETATM   12  C   UNL     1     -20.190  -5.491  -6.151  1.00  0.00     0.004 C 
BRANCH  12  13
HETATM   13  C   UNL     1     -20.885  -4.256  -6.717  1.00  0.00     0.000 C 
BRANCH  13  14
HETATM   14  C   UNL     1     -20.524  -4.054  -8.183  1.00  0.00     0.000 C 
BRANCH  14  15
HETATM   15  C   UNL     1     -21.568  -4.686  -9.098  1.00  0.00     0.000 C 
BRANCH  15  16
HETATM   16  C   UNL     1     -22.646  -3.666  -9.439  1.00  0.00     0.010 C 
BRANCH  16  17
HETATM   17  C   UNL     1     -22.667  -3.336 -10.926  1.00  0.00     0.111 C 
BRANCH  17  18
HETATM   18  C   UNL     1     -24.081  -3.363 -11.446  1.00  0.00     0.258 C 
HETATM   19  O   UNL     1     -25.086  -3.189 -10.772  1.00  0.00    -0.265 OA
BRANCH  18  20
HETATM   20  O   UNL     1     -24.067  -3.707 -12.764  1.00  0.00    -0.322 OA
BRANCH  20  21
HETATM   21  C   UNL     1     -22.946  -4.509 -13.159  1.00  0.00     0.174 C 
HETATM   22  C   UNL     1     -23.488  -5.770 -13.807  1.00  0.00     0.034 C 
ENDBRANCH  20  21
ENDBRANCH  18  20
ENDBRANCH  17  18
ENDBRANCH  16  17
ENDBRANCH  15  16
ENDBRANCH  14  15
ENDBRANCH  13  14
ENDBRANCH  12  13
ENDBRANCH   1  12
TORSDOF 16
BEGIN_RES ARG D 557
REMARK  4 active torsions:
REMARK  status: ('A' for Active; 'I' for Inactive)
REMARK    1  A    between atoms: CA   and  CB  
REMARK    2  A    between atoms: CB   and  CG  
REMARK    3  A    between atoms: CG   and  CD  
REMARK    4  A    between atoms: CD   and  NE  
REMARK       I    between atoms: NE   and  CZ  
REMARK       I    between atoms: CZ   and  NH1 
REMARK       I    between atoms: CZ   and  NH2 
ROOT
ATOM      1  CA  ARG D 557     -26.217   2.705 -17.014  1.00 35.49     0.159 C 
ENDROOT
BRANCH   1   2
ATOM      2  CB  ARG D 557     -26.789   1.319 -17.183  1.00 35.49     0.034 C 
BRANCH   2   3
ATOM      3  CG  ARG D 557     -28.227   1.227 -17.463  1.00 35.49     0.027 C 
BRANCH   3   4
ATOM      4  CD  ARG D 557     -28.928   0.322 -16.524  1.00 35.49     0.116 C 
BRANCH   4   5
ATOM      5  NE  ARG D 557     -29.310  -0.917 -17.149  1.00 35.49    -0.212 N 
ATOM      6  CZ  ARG D 557     -28.674  -2.062 -17.036  1.00 35.49     0.666 C 
ATOM      7  NH1 ARG D 557     -27.572  -2.194 -16.322  1.00 35.49    -0.235 N 
ATOM      8  NH2 ARG D 557     -29.176  -3.091 -17.656  1.00 35.49    -0.235 N 
ATOM      9  HH  ARG D 557     -27.226  -1.531 -15.904  1.00 35.49     0.174 HD
ATOM     10  HH  ARG D 557     -27.202  -2.966 -16.282  1.00 35.49     0.174 HD
ATOM     11  HH  ARG D 557     -29.893  -2.978 -18.104  1.00 35.49     0.174 HD
ATOM     12  HH  ARG D 557     -28.796  -3.847 -17.604  1.00 35.49     0.174 HD
ATOM     13  HE  ARG D 557     -29.968  -0.907 -17.687  1.00 35.49     0.178 HD
ENDBRANCH   4   5
ENDBRANCH   3   4
ENDBRANCH   2   3
ENDBRANCH   1   2
END_RES ARG D 557
BEGIN_RES GLU D 570
REMARK  3 active torsions:
REMARK  status: ('A' for Active; 'I' for Inactive)
REMARK    5  A    between atoms: CA   and  CB  
REMARK    6  A    between atoms: CB   and  CG  
REMARK    7  A    between atoms: CG   and  CD  
ROOT
ATOM     14  CA  GLU D 570     -18.033  -6.348 -13.375  1.00 32.92     0.160 C 
ENDROOT
BRANCH  14  15
ATOM     15  CB  GLU D 570     -19.500  -6.345 -13.794  1.00 32.92     0.043 C 
BRANCH  15  16
ATOM     16  CG  GLU D 570     -20.075  -7.625 -14.282  1.00 32.92     0.100 C 
BRANCH  16  17
ATOM     17  CD  GLU D 570     -20.728  -7.499 -15.639  1.00 32.92     0.185 C 
ATOM     18  OE1 GLU D 570     -20.571  -6.448 -16.290  1.00 32.92    -0.647 OA
ATOM     19  OE2 GLU D 570     -21.417  -8.454 -16.047  1.00 32.92    -0.647 OA
ENDBRANCH  16  17
ENDBRANCH  15  16
ENDBRANCH  14  15
END_RES GLU D 570
ENDMDL
MODEL 2
REMARK VINA RESULT:      -7.3      1.227      2.201
REMARK  16 active torsions:
REMARK  status: ('A' for Active; 'I' for Inactive)
REMARK    1  A    between atoms: C_2  and  C_3 
REMARK    2  A    between atoms: C_3  and  C_4 
REMARK    3  A    between atoms: C_4  and  C_5 
REMARK    4  A    between atoms: C_5  and  C_6 
REMARK    5  A    between atoms: C_7  and  C_8 
REMARK    6  A    between atoms: C_8  and  C_9 
REMARK    7  A    between atoms: C_10  and  C_11 
REMARK    8  A    between atoms: C_11  and  C_12 
REMARK    9  A    between atoms: C_12  and  C_13 
REMARK   10  A    between atoms: C_13  and  C_14 
REMARK   11  A    between atoms: C_14  and  C_15 
REMARK   12  A    between atoms: C_15  and  C_16 
REMARK   13  A    between atoms: C_16  and  C_17 
REMARK   14  A    between atoms: C_17  and  C_18 
REMARK   15  A    between atoms: C_18  and  O_20 
REMARK   16  A    between atoms: O_20  and  C_21 
ROOT
HETATM    1  C   UNL     1     -20.177  -4.497  -6.412  1.00  0.00     0.027 C 
ENDROOT
BRANCH   1   2
HETATM    2  C   UNL     1     -20.251  -5.885  -5.853  1.00  0.00    -0.030 C 
HETATM    3  C   UNL     1     -21.341  -6.389  -5.254  1.00  0.00    -0.027 C 
BRANCH   3   4
HETATM    4  C   UNL     1     -21.416  -7.774  -4.686  1.00  0.00     0.053 C 
BRANCH   4   5
HETATM    5  C   UNL     1     -21.556  -7.735  -3.194  1.00  0.00    -0.027 C 
HETATM    6  C   UNL     1     -22.026  -6.676  -2.515  1.00  0.00    -0.030 C 
BRANCH   6   7
HETATM    7  C   UNL     1     -22.160  -6.635  -1.022  1.00  0.00     0.027 C 
BRANCH   7   8
HETATM    8  C   UNL     1     -21.680  -7.943  -0.390  1.00  0.00     0.004 C 
BRANCH   8   9
HETATM    9  C   UNL     1     -22.864  -8.779   0.094  1.00  0.00    -0.000 C 
BRANCH   9  10
HETATM   10  C   UNL     1     -23.004 -10.067  -0.715  1.00  0.00    -0.005 C 
HETATM   11  C   UNL     1     -24.009 -11.011  -0.076  1.00  0.00     0.005 C 
ENDBRANCH   9  10
ENDBRANCH   8   9
ENDBRANCH   7   8
ENDBRANCH   6   7
ENDBRANCH   4   5
ENDBRANCH   3   4
ENDBRANCH   1   2
BRANCH   1  12
HETATM   12  C   UNL     1     -19.332  -4.469  -7.682  1.00  0.00     0.004 C 
BRANCH  12  13
HETATM   13  C   UNL     1     -20.140  -4.964  -8.879  1.00  0.00     0.000 C 
BRANCH  13  14
HETATM   14  C   UNL     1     -20.321  -3.855  -9.907  1.00  0.00     0.000 C 
BRANCH  14  15
HETATM   15  C   UNL     1     -20.840  -4.411 -11.229  1.00  0.00     0.000 C 
BRANCH  15  16
HETATM   16  C   UNL     1     -21.778  -3.405 -11.883  1.00  0.00     0.010 C 
BRANCH  16  17
HETATM   17  C   UNL     1     -23.069  -4.057 -12.361  1.00  0.00     0.111 C 
BRANCH  17  18
HETATM   18  C   UNL     1     -24.253  -3.201 -11.994  1.00  0.00     0.258 C 
HETATM   19  O   UNL     1     -25.090  -2.779 -12.779  1.00  0.00    -0.265 OA
BRANCH  18  20
HETATM   20  O   UNL     1     -24.189  -2.892 -10.669  1.00  0.00    -0.322 OA
BRANCH  20  21
HETATM   21  C   UNL     1     -24.683  -3.914  -9.794  1.00  0.00     0.174 C 
HETATM   22  C   UNL     1     -23.719  -4.028  -8.627  1.00  0.00     0.034 C 
ENDBRANCH  20  21
ENDBRANCH  18  20
ENDBRANCH  17  18
ENDBRANCH  16  17
ENDBRANCH  15  16
ENDBRANCH  14  15
ENDBRANCH  13  14
ENDBRANCH  12  13
ENDBRANCH   1  12
TORSDOF 16
BEGIN_RES ARG D 557
REMARK  4 active torsions:
REMARK  status: ('A' for Active; 'I' for Inactive)
REMARK    1  A    between atoms: CA   and  CB  
REMARK    2  A    between atoms: CB   and  CG  
REMARK    3  A    between atoms: CG   and  CD  
REMARK    4  A    between atoms: CD   and  NE  
REMARK       I    between atoms: NE   and  CZ  
REMARK       I    between atoms: CZ   and  NH1 
REMARK       I    between atoms: CZ   and  NH2 
ROOT
ATOM      1  CA  ARG D 557     -26.217   2.705 -17.014  1.00 35.49     0.159 C 
ENDROOT
BRANCH   1   2
ATOM      2  CB  ARG D 557     -26.789   1.319 -17.183  1.00 35.49     0.034 C 
BRANCH   2   3
ATOM      3  CG  ARG D 557     -28.239   1.224 -17.393  1.00 35.49     0.027 C 
BRANCH   3   4
ATOM      4  CD  ARG D 557     -28.882   0.268 -16.462  1.00 35.49     0.116 C 
BRANCH   4   5
ATOM      5  NE  ARG D 557     -29.325  -0.927 -17.132  1.00 35.49    -0.212 N 
ATOM      6  CZ  ARG D 557     -28.749  -2.106 -17.061  1.00 35.49     0.666 C 
ATOM      7  NH1 ARG D 557     -27.656  -2.320 -16.351  1.00 35.49    -0.235 N 
ATOM      8  NH2 ARG D 557     -29.301  -3.084 -17.718  1.00 35.49    -0.235 N 
ATOM      9  HH  ARG D 557     -27.278  -1.691 -15.909  1.00 35.49     0.174 HD
ATOM     10  HH  ARG D 557     -27.327  -3.111 -16.339  1.00 35.49     0.174 HD
ATOM     11  HH  ARG D 557     -30.010  -2.918 -18.162  1.00 35.49     0.174 HD
ATOM     12  HH  ARG D 557     -28.960  -3.860 -17.693  1.00 35.49     0.174 HD
ATOM     13  HE  ARG D 557     -29.981  -0.863 -17.669  1.00 35.49     0.178 HD
ENDBRANCH   4   5
ENDBRANCH   3   4
ENDBRANCH   2   3
ENDBRANCH   1   2
END_RES ARG D 557
BEGIN_RES GLU D 570
REMARK  3 active torsions:
REMARK  status: ('A' for Active; 'I' for Inactive)
REMARK    5  A    between atoms: CA   and  CB  
REMARK    6  A    between atoms: CB   and  CG  
REMARK    7  A    between atoms: CG   and  CD  
ROOT
ATOM     14  CA  GLU D 570     -18.033  -6.348 -13.375  1.00 32.92     0.160 C 
ENDROOT
BRANCH  14  15
ATOM     15  CB  GLU D 570     -19.500  -6.345 -13.794  1.00 32.92     0.043 C 
BRANCH  15  16
ATOM     16  CG  GLU D 570     -19.820  -5.868 -15.164  1.00 32.92     0.100 C 
BRANCH  16  17
ATOM     17  CD  GLU D 570     -21.300  -5.664 -15.387  1.00 32.92     0.185 C 
ATOM     18  OE1 GLU D 570     -21.677  -4.758 -16.154  1.00 32.92    -0.647 OA
ATOM     19  OE2 GLU D 570     -22.091  -6.408 -14.775  1.00 32.92    -0.647 OA
ENDBRANCH  16  17
ENDBRANCH  15  16
ENDBRANCH  14  15
END_RES GLU D 570
ENDMDL
MODEL 3
REMARK VINA RESULT:      -6.9      2.157      2.788
REMARK  16 active torsions:
REMARK  status: ('A' for Active; 'I' for Inactive)
REMARK    1  A    between atoms: C_2  and  C_3 
REMARK    2  A    between atoms: C_3  and  C_4 
REMARK    3  A    between atoms: C_4  and  C_5 
REMARK    4  A    between atoms: C_5  and  C_6 
REMARK    5  A    between atoms: C_7  and  C_8 
REMARK    6  A    between atoms: C_8  and  C_9 
REMARK    7  A    between atoms: C_10  and  C_11 
REMARK    8  A    between atoms: C_11  and  C_12 
REMARK    9  A    between atoms: C_12  and  C_13 
REMARK   10  A    between atoms: C_13  and  C_14 
REMARK   11  A    between atoms: C_14  and  C_15 
REMARK   12  A    between atoms: C_15  and  C_16 
REMARK   13  A    between atoms: C_16  and  C_17 
REMARK   14  A    between atoms: C_17  and  C_18 
REMARK   15  A    between atoms: C_18  and  O_20 
REMARK   16  A    between atoms: O_20  and  C_21 
ROOT
HETATM    1  C   UNL     1     -21.042  -7.131  -5.071  1.00  0.00     0.027 C 
ENDROOT
BRANCH   1   2
HETATM    2  C   UNL     1     -21.199  -7.219  -3.584  1.00  0.00    -0.030 C 
HETATM    3  C   UNL     1     -21.951  -6.371  -2.865  1.00  0.00    -0.027 C 
BRANCH   3   4
HETATM    4  C   UNL     1     -22.104  -6.451  -1.375  1.00  0.00     0.053 C 
BRANCH   4   5
HETATM    5  C   UNL     1     -21.608  -7.766  -0.855  1.00  0.00    -0.027 C 
HETATM    6  C   UNL     1     -21.867  -8.228   0.379  1.00  0.00    -0.030 C 
BRANCH   6   7
HETATM    7  C   UNL     1     -21.364  -9.542   0.899  1.00  0.00     0.027 C 
BRANCH   7   8
HETATM    8  C   UNL     1     -21.897 -10.707   0.063  1.00  0.00     0.004 C 
BRANCH   8   9
HETATM    9  C   UNL     1     -23.422 -10.665  -0.017  1.00  0.00    -0.000 C 
BRANCH   9  10
HETATM   10  C   UNL     1     -23.940 -11.471  -1.207  1.00  0.00    -0.005 C 
HETATM   11  C   UNL     1     -23.989 -12.955  -0.886  1.00  0.00     0.005 C 
ENDBRANCH   9  10
ENDBRANCH   8   9
ENDBRANCH   7   8
ENDBRANCH   6   7
ENDBRANCH   4   5
ENDBRANCH   3   4
ENDBRANCH   1   2
BRANCH   1  12
HETATM   12  C   UNL     1     -21.539  -5.786  -5.590  1.00  0.00     0.004 C 
BRANCH  12  13
HETATM   13  C   UNL     1     -20.399  -4.772  -5.640  1.00  0.00     0.000 C 
BRANCH  13  14
HETATM   14  C   UNL     1     -19.376  -5.159  -6.700  1.00  0.00     0.000 C 
BRANCH  14  15
HETATM   15  C   UNL     1     -19.462  -4.233  -7.910  1.00  0.00     0.000 C 
BRANCH  15  16
HETATM   16  C   UNL     1     -20.578  -4.693  -8.838  1.00  0.00     0.010 C 
BRANCH  16  17
HETATM   17  C   UNL     1     -20.518  -3.994 -10.190  1.00  0.00     0.111 C 
BRANCH  17  18
HETATM   18  C   UNL     1     -21.804  -3.253 -10.452  1.00  0.00     0.258 C 
HETATM   19  O   UNL     1     -22.044  -2.586 -11.447  1.00  0.00    -0.265 OA
BRANCH  18  20
HETATM   20  O   UNL     1     -22.616  -3.367  -9.364  1.00  0.00    -0.322 OA
BRANCH  20  21
HETATM   21  C   UNL     1     -24.002  -3.558  -9.672  1.00  0.00     0.174 C 
HETATM   22  C   UNL     1     -24.180  -4.997 -10.120  1.00  0.00     0.034 C 
ENDBRANCH  20  21
ENDBRANCH  18  20
ENDBRANCH  17  18
ENDBRANCH  16  17
ENDBRANCH  15  16
ENDBRANCH  14  15
ENDBRANCH  13  14
ENDBRANCH  12  13
ENDBRANCH   1  12
TORSDOF 16
BEGIN_RES ARG D 557
REMARK  4 active torsions:
REMARK  status: ('A' for Active; 'I' for Inactive)
REMARK    1  A    between atoms: CA   and  CB  
REMARK    2  A    between atoms: CB   and  CG  
REMARK    3  A    between atoms: CG   and  CD  
REMARK    4  A    between atoms: CD   and  NE  
REMARK       I    between atoms: NE   and  CZ  
REMARK       I    between atoms: CZ   and  NH1 
REMARK       I    between atoms: CZ   and  NH2 
ROOT
ATOM      1  CA  ARG D 557     -26.217   2.705 -17.014  1.00 35.49     0.159 C 
ENDROOT
BRANCH   1   2
ATOM      2  CB  ARG D 557     -26.789   1.319 -17.183  1.00 35.49     0.034 C 
BRANCH   2   3
ATOM      3  CG  ARG D 557     -25.871   0.194 -16.965  1.00 35.49     0.027 C 
BRANCH   3   4
ATOM      4  CD  ARG D 557     -26.322  -0.697 -15.871  1.00 35.49     0.116 C 
BRANCH   4   5
ATOM      5  NE  ARG D 557     -25.275  -0.959 -14.919  1.00 35.49    -0.212 N 
ATOM      6  CZ  ARG D 557     -25.009  -2.124 -14.371  1.00 35.49     0.666 C 
ATOM      7  NH1 ARG D 557     -25.711  -3.210 -14.637  1.00 35.49    -0.235 N 
ATOM      8  NH2 ARG D 557     -24.007  -2.183 -13.542  1.00 35.49    -0.235 N 
ATOM      9  HH  ARG D 557     -26.374  -3.195 -15.181  1.00 35.49     0.174 HD
ATOM     10  HH  ARG D 557     -25.490  -3.942 -14.251  1.00 35.49     0.174 HD
ATOM     11  HH  ARG D 557     -23.567  -1.467 -13.395  1.00 35.49     0.174 HD
ATOM     12  HH  ARG D 557     -23.803  -2.917 -13.172  1.00 35.49     0.174 HD
ATOM     13  HE  ARG D 557     -24.819  -0.300 -14.636  1.00 35.49     0.178 HD
ENDBRANCH   4   5
ENDBRANCH   3   4
ENDBRANCH   2   3
ENDBRANCH   1   2
END_RES ARG D 557
BEGIN_RES GLU D 570
REMARK  3 active torsions:
REMARK  status: ('A' for Active; 'I' for Inactive)
REMARK    5  A    between atoms: CA   and  CB  
REMARK    6  A    between atoms: CB   and  CG  
REMARK    7  A    between atoms: CG   and  CD  
ROOT
ATOM     14  CA  GLU D 570     -18.033  -6.348 -13.375  1.00 32.92     0.160 C 
ENDROOT
BRANCH  14  15
ATOM     15  CB  GLU D 570     -19.500  -6.345 -13.794  1.00 32.92     0.043 C 
BRANCH  15  16
ATOM     16  CG  GLU D 570     -20.416  -5.424 -13.073  1.00 32.92     0.100 C 
BRANCH  16  17
ATOM     17  CD  GLU D 570     -21.677  -5.121 -13.848  1.00 32.92     0.185 C 
ATOM     18  OE1 GLU D 570     -21.589  -4.816 -15.053  1.00 32.92    -0.647 OA
ATOM     19  OE2 GLU D 570     -22.764  -5.173 -13.239  1.00 32.92    -0.647 OA
ENDBRANCH  16  17
ENDBRANCH  15  16
ENDBRANCH  14  15
END_RES GLU D 570
ENDMDL
MODEL 4
REMARK VINA RESULT:      -6.9      1.448      2.349
REMARK  16 active torsions:
REMARK  status: ('A' for Active; 'I' for Inactive)
REMARK    1  A    between atoms: C_2  and  C_3 
REMARK    2  A    between atoms: C_3  and  C_4 
REMARK    3  A    between atoms: C_4  and  C_5 
REMARK    4  A    between atoms: C_5  and  C_6 
REMARK    5  A    between atoms: C_7  and  C_8 
REMARK    6  A    between atoms: C_8  and  C_9 
REMARK    7  A    between atoms: C_10  and  C_11 
REMARK    8  A    between atoms: C_11  and  C_12 
REMARK    9  A    between atoms: C_12  and  C_13 
REMARK   10  A    between atoms: C_13  and  C_14 
REMARK   11  A    between atoms: C_14  and  C_15 
REMARK   12  A    between atoms: C_15  and  C_16 
REMARK   13  A    between atoms: C_16  and  C_17 
REMARK   14  A    between atoms: C_17  and  C_18 
REMARK   15  A    between atoms: C_18  and  O_20 
REMARK   16  A    between atoms: O_20  and  C_21 
ROOT
HETATM    1  C   UNL     1     -20.501  -4.421  -6.342  1.00  0.00     0.027 C 
ENDROOT
BRANCH   1   2
HETATM    2  C   UNL     1     -21.232  -5.683  -6.001  1.00  0.00    -0.030 C 
HETATM    3  C   UNL     1     -20.628  -6.798  -5.562  1.00  0.00    -0.027 C 
BRANCH   3   4
HETATM    4  C   UNL     1     -21.356  -8.065  -5.228  1.00  0.00     0.053 C 
BRANCH   4   5
HETATM    5  C   UNL     1     -21.558  -8.192  -3.748  1.00  0.00    -0.027 C 
HETATM    6  C   UNL     1     -20.767  -7.610  -2.833  1.00  0.00    -0.030 C 
BRANCH   6   7
HETATM    7  C   UNL     1     -20.967  -7.743  -1.353  1.00  0.00     0.027 C 
BRANCH   7   8
HETATM    8  C   UNL     1     -22.301  -7.131  -0.920  1.00  0.00     0.004 C 
BRANCH   8   9
HETATM    9  C   UNL     1     -22.905  -7.915   0.246  1.00  0.00    -0.000 C 
BRANCH   9  10
HETATM   10  C   UNL     1     -22.459  -9.376   0.225  1.00  0.00    -0.005 C 
HETATM   11  C   UNL     1     -23.565 -10.280  -0.291  1.00  0.00     0.005 C 
ENDBRANCH   9  10
ENDBRANCH   8   9
ENDBRANCH   7   8
ENDBRANCH   6   7
ENDBRANCH   4   5
ENDBRANCH   3   4
ENDBRANCH   1   2
BRANCH   1  12
HETATM   12  C   UNL     1     -20.771  -4.011  -7.786  1.00  0.00     0.004 C 
BRANCH  12  13
HETATM   13  C   UNL     1     -20.161  -5.019  -8.756  1.00  0.00     0.000 C 
BRANCH  13  14
HETATM   14  C   UNL     1     -20.280  -4.528 -10.193  1.00  0.00     0.000 C 
BRANCH  14  15
HETATM   15  C   UNL     1     -21.603  -3.804 -10.419  1.00  0.00     0.000 C 
BRANCH  15  16
HETATM   16  C   UNL     1     -21.522  -2.954 -11.681  1.00  0.00     0.010 C 
BRANCH  16  17
HETATM   17  C   UNL     1     -22.883  -2.792 -12.346  1.00  0.00     0.111 C 
BRANCH  17  18
HETATM   18  C   UNL     1     -22.984  -3.689 -13.553  1.00  0.00     0.258 C 
HETATM   19  O   UNL     1     -22.963  -4.911 -13.529  1.00  0.00    -0.265 OA
BRANCH  18  20
HETATM   20  O   UNL     1     -23.004  -2.923 -14.679  1.00  0.00    -0.322 OA
BRANCH  20  21
HETATM   21  C   UNL     1     -23.753  -1.707 -14.559  1.00  0.00     0.174 C 
HETATM   22  C   UNL     1     -25.224  -2.057 -14.694  1.00  0.00     0.034 C 
ENDBRANCH  20  21
ENDBRANCH  18  20
ENDBRANCH  17  18
ENDBRANCH  16  17
ENDBRANCH  15  16
ENDBRANCH  14  15
ENDBRANCH  13  14
ENDBRANCH  12  13
ENDBRANCH   1  12
TORSDOF 16
BEGIN_RES ARG D 557
REMARK  4 active torsions:
REMARK  status: ('A' for Active; 'I' for Inactive)
REMARK    1  A    between atoms: CA   and  CB  
REMARK    2  A    between atoms: CB   and  CG  
REMARK    3  A    between atoms: CG   and  CD  
REMARK    4  A    between atoms: CD   and  NE  
REMARK       I    between atoms: NE   and  CZ  
REMARK       I    between atoms: CZ   and  NH1 
REMARK       I    between atoms: CZ   and  NH2 
ROOT
ATOM      1  CA  ARG D 557     -26.217   2.705 -17.014  1.00 35.49     0.159 C 
ENDROOT
BRANCH   1   2
ATOM      2  CB  ARG D 557     -26.789   1.319 -17.183  1.00 35.49     0.034 C 
BRANCH   2   3
ATOM      3  CG  ARG D 557     -28.229   1.227 -17.450  1.00 35.49     0.027 C 
BRANCH   3   4
ATOM      4  CD  ARG D 557     -28.922   0.320 -16.506  1.00 35.49     0.116 C 
BRANCH   4   5
ATOM      5  NE  ARG D 557     -28.240  -0.940 -16.367  1.00 35.49    -0.212 N 
ATOM      6  CZ  ARG D 557     -28.640  -2.089 -16.866  1.00 35.49     0.666 C 
ATOM      7  NH1 ARG D 557     -29.756  -2.210 -17.560  1.00 35.49    -0.235 N 
ATOM      8  NH2 ARG D 557     -27.884  -3.128 -16.659  1.00 35.49    -0.235 N 
ATOM      9  HH  ARG D 557     -30.267  -1.539 -17.711  1.00 35.49     0.174 HD
ATOM     10  HH  ARG D 557     -29.964  -2.984 -17.864  1.00 35.49     0.174 HD
ATOM     11  HH  ARG D 557     -27.166  -3.018 -16.213  1.00 35.49     0.174 HD
ATOM     12  HH  ARG D 557     -28.107  -3.886 -16.969  1.00 35.49     0.174 HD
ATOM     13  HE  ARG D 557     -27.549  -0.968 -15.873  1.00 35.49     0.178 HD
ENDBRANCH   4   5
ENDBRANCH   3   4
ENDBRANCH   2   3
ENDBRANCH   1   2
END_RES ARG D 557
BEGIN_RES GLU D 570
REMARK  3 active torsions:
REMARK  status: ('A' for Active; 'I' for Inactive)
REMARK    5  A    between atoms: CA   and  CB  
REMARK    6  A    between atoms: CB   and  CG  
REMARK    7  A    between atoms: CG   and  CD  
ROOT
ATOM     14  CA  GLU D 570     -18.033  -6.348 -13.375  1.00 32.92     0.160 C 
ENDROOT
BRANCH  14  15
ATOM     15  CB  GLU D 570     -19.500  -6.345 -13.794  1.00 32.92     0.043 C 
BRANCH  15  16
ATOM     16  CG  GLU D 570     -19.797  -6.268 -15.248  1.00 32.92     0.100 C 
BRANCH  16  17
ATOM     17  CD  GLU D 570     -20.847  -7.261 -15.688  1.00 32.92     0.185 C 
ATOM     18  OE1 GLU D 570     -21.945  -6.838 -16.098  1.00 32.92    -0.647 OA
ATOM     19  OE2 GLU D 570     -20.575  -8.475 -15.607  1.00 32.92    -0.647 OA
ENDBRANCH  16  17
ENDBRANCH  15  16
ENDBRANCH  14  15
END_RES GLU D 570
ENDMDL
MODEL 5
REMARK VINA RESULT:      -6.7      3.303     10.091
REMARK  16 active torsions:
REMARK  status: ('A' for Active; 'I' for Inactive)
REMARK    1  A    between atoms: C_2  and  C_3 
REMARK    2  A    between atoms: C_3  and  C_4 
REMARK    3  A    between atoms: C_4  and  C_5 
REMARK    4  A    between atoms: C_5  and  C_6 
REMARK    5  A    between atoms: C_7  and  C_8 
REMARK    6  A    between atoms: C_8  and  C_9 
REMARK    7  A    between atoms: C_10  and  C_11 
REMARK    8  A    between atoms: C_11  and  C_12 
REMARK    9  A    between atoms: C_12  and  C_13 
REMARK   10  A    between atoms: C_13  and  C_14 
REMARK   11  A    between atoms: C_14  and  C_15 
REMARK   12  A    between atoms: C_15  and  C_16 
REMARK   13  A    between atoms: C_16  and  C_17 
REMARK   14  A    between atoms: C_17  and  C_18 
REMARK   15  A    between atoms: C_18  and  O_20 
REMARK   16  A    between atoms: O_20  and  C_21 
ROOT
HETATM    1  C   UNL     1     -21.813  -3.518 -11.638  1.00  0.00     0.027 C 
ENDROOT
BRANCH   1   2
HETATM    2  C   UNL     1     -22.153  -4.722 -12.463  1.00  0.00    -0.030 C 
HETATM    3  C   UNL     1     -23.242  -4.806 -13.242  1.00  0.00    -0.027 C 
BRANCH   3   4
HETATM    4  C   UNL     1     -23.590  -6.012 -14.062  1.00  0.00     0.053 C 
BRANCH   4   5
HETATM    5  C   UNL     1     -24.649  -5.686 -15.072  1.00  0.00    -0.027 C 
HETATM    6  C   UNL     1     -25.416  -6.607 -15.676  1.00  0.00    -0.030 C 
BRANCH   6   7
HETATM    7  C   UNL     1     -26.471  -6.279 -16.690  1.00  0.00     0.027 C 
BRANCH   7   8
HETATM    8  C   UNL     1     -27.684  -5.622 -16.031  1.00  0.00     0.004 C 
BRANCH   8   9
HETATM    9  C   UNL     1     -28.040  -4.312 -16.732  1.00  0.00    -0.000 C 
BRANCH   9  10
HETATM   10  C   UNL     1     -29.079  -4.531 -17.831  1.00  0.00    -0.005 C 
HETATM   11  C   UNL     1     -30.337  -3.721 -17.567  1.00  0.00     0.005 C 
ENDBRANCH   9  10
ENDBRANCH   8   9
ENDBRANCH   7   8
ENDBRANCH   6   7
ENDBRANCH   4   5
ENDBRANCH   3   4
ENDBRANCH   1   2
BRANCH   1  12
HETATM   12  C   UNL     1     -20.483  -3.714 -10.917  1.00  0.00     0.004 C 
BRANCH  12  13
HETATM   13  C   UNL     1     -20.690  -4.446  -9.594  1.00  0.00     0.000 C 
BRANCH  13  14
HETATM   14  C   UNL     1     -21.982  -4.000  -8.923  1.00  0.00     0.000 C 
BRANCH  14  15
HETATM   15  C   UNL     1     -21.802  -3.872  -7.414  1.00  0.00     0.000 C 
BRANCH  15  16
HETATM   16  C   UNL     1     -20.360  -4.182  -7.034  1.00  0.00     0.010 C 
BRANCH  16  17
HETATM   17  C   UNL     1     -20.259  -4.819  -5.655  1.00  0.00     0.111 C 
BRANCH  17  18
HETATM   18  C   UNL     1     -20.265  -6.321  -5.772  1.00  0.00     0.258 C 
HETATM   19  O   UNL     1     -20.047  -6.951  -6.797  1.00  0.00    -0.265 OA
BRANCH  18  20
HETATM   20  O   UNL     1     -20.646  -6.862  -4.581  1.00  0.00    -0.322 OA
BRANCH  20  21
HETATM   21  C   UNL     1     -21.902  -6.383  -4.084  1.00  0.00     0.174 C 
HETATM   22  C   UNL     1     -21.823  -6.376  -2.568  1.00  0.00     0.034 C 
ENDBRANCH  20  21
ENDBRANCH  18  20
ENDBRANCH  17  18
ENDBRANCH  16  17
ENDBRANCH  15  16
ENDBRANCH  14  15
ENDBRANCH  13  14
ENDBRANCH  12  13
ENDBRANCH   1  12
TORSDOF 16
BEGIN_RES ARG D 557
REMARK  4 active torsions:
REMARK  status: ('A' for Active; 'I' for Inactive)
REMARK    1  A    between atoms: CA   and  CB  
REMARK    2  A    between atoms: CB   and  CG  
REMARK    3  A    between atoms: CG   and  CD  
REMARK    4  A    between atoms: CD   and  NE  
REMARK       I    between atoms: NE   and  CZ  
REMARK       I    between atoms: CZ   and  NH1 
REMARK       I    between atoms: CZ   and  NH2 
ROOT
ATOM      1  CA  ARG D 557     -26.217   2.705 -17.014  1.00 35.49     0.159 C 
ENDROOT
BRANCH   1   2
ATOM      2  CB  ARG D 557     -26.789   1.319 -17.183  1.00 35.49     0.034 C 
BRANCH   2   3
ATOM      3  CG  ARG D 557     -25.831   0.207 -17.201  1.00 35.49     0.027 C 
BRANCH   3   4
ATOM      4  CD  ARG D 557     -24.716   0.406 -16.247  1.00 35.49     0.116 C 
BRANCH   4   5
ATOM      5  NE  ARG D 557     -24.875  -0.383 -15.054  1.00 35.49    -0.212 N 
ATOM      6  CZ  ARG D 557     -24.089  -1.364 -14.672  1.00 35.49     0.666 C 
ATOM      7  NH1 ARG D 557     -23.041  -1.749 -15.378  1.00 35.49    -0.235 N 
ATOM      8  NH2 ARG D 557     -24.372  -1.958 -13.549  1.00 35.49    -0.235 N 
ATOM      9  HH  ARG D 557     -22.835  -1.371 -16.118  1.00 35.49     0.174 HD
ATOM     10  HH  ARG D 557     -22.563  -2.394 -15.077  1.00 35.49     0.174 HD
ATOM     11  HH  ARG D 557     -25.050  -1.683 -13.111  1.00 35.49     0.174 HD
ATOM     12  HH  ARG D 557     -23.885  -2.593 -13.268  1.00 35.49     0.174 HD
ATOM     13  HE  ARG D 557     -25.567  -0.251 -14.577  1.00 35.49     0.178 HD
ENDBRANCH   4   5
ENDBRANCH   3   4
ENDBRANCH   2   3
ENDBRANCH   1   2
END_RES ARG D 557
BEGIN_RES GLU D 570
REMARK  3 active torsions:
REMARK  status: ('A' for Active; 'I' for Inactive)
REMARK    5  A    between atoms: CA   and  CB  
REMARK    6  A    between atoms: CB   and  CG  
REMARK    7  A    between atoms: CG   and  CD  
ROOT
ATOM     14  CA  GLU D 570     -18.033  -6.348 -13.375  1.00 32.92     0.160 C 
ENDROOT
BRANCH  14  15
ATOM     15  CB  GLU D 570     -19.500  -6.345 -13.794  1.00 32.92     0.043 C 
BRANCH  15  16
ATOM     16  CG  GLU D 570     -20.091  -7.638 -14.227  1.00 32.92     0.100 C 
BRANCH  16  17
ATOM     17  CD  GLU D 570     -20.605  -7.604 -15.648  1.00 32.92     0.185 C 
ATOM     18  OE1 GLU D 570     -20.768  -6.502 -16.206  1.00 32.92    -0.647 OA
ATOM     19  OE2 GLU D 570     -20.864  -8.690 -16.202  1.00 32.92    -0.647 OA
ENDBRANCH  16  17
ENDBRANCH  15  16
ENDBRANCH  14  15
END_RES GLU D 570
ENDMDL
MODEL 6
REMARK VINA RESULT:      -6.7      3.747      8.817
REMARK  16 active torsions:
REMARK  status: ('A' for Active; 'I' for Inactive)
REMARK    1  A    between atoms: C_2  and  C_3 
REMARK    2  A    between atoms: C_3  and  C_4 
REMARK    3  A    between atoms: C_4  and  C_5 
REMARK    4  A    between atoms: C_5  and  C_6 
REMARK    5  A    between atoms: C_7  and  C_8 
REMARK    6  A    between atoms: C_8  and  C_9 
REMARK    7  A    between atoms: C_10  and  C_11 
REMARK    8  A    between atoms: C_11  and  C_12 
REMARK    9  A    between atoms: C_12  and  C_13 
REMARK   10  A    between atoms: C_13  and  C_14 
REMARK   11  A    between atoms: C_14  and  C_15 
REMARK   12  A    between atoms: C_15  and  C_16 
REMARK   13  A    between atoms: C_16  and  C_17 
REMARK   14  A    between atoms: C_17  and  C_18 
REMARK   15  A    between atoms: C_18  and  O_20 
REMARK   16  A    between atoms: O_20  and  C_21 
ROOT
HETATM    1  C   UNL     1     -22.211  -6.080  -1.869  1.00  0.00     0.027 C 
ENDROOT
BRANCH   1   2
HETATM    2  C   UNL     1     -21.502  -6.813  -2.968  1.00  0.00    -0.030 C 
HETATM    3  C   UNL     1     -21.235  -6.275  -4.168  1.00  0.00    -0.027 C 
BRANCH   3   4
HETATM    4  C   UNL     1     -20.534  -7.008  -5.272  1.00  0.00     0.053 C 
BRANCH   4   5
HETATM    5  C   UNL     1     -20.345  -6.122  -6.466  1.00  0.00    -0.027 C 
HETATM    6  C   UNL     1     -21.053  -5.002  -6.686  1.00  0.00    -0.030 C 
BRANCH   6   7
HETATM    7  C   UNL     1     -20.867  -4.120  -7.884  1.00  0.00     0.027 C 
BRANCH   7   8
HETATM    8  C   UNL     1     -22.210  -3.791  -8.540  1.00  0.00     0.004 C 
BRANCH   8   9
HETATM    9  C   UNL     1     -22.370  -4.548  -9.858  1.00  0.00    -0.000 C 
BRANCH   9  10
HETATM   10  C   UNL     1     -23.841  -4.679 -10.250  1.00  0.00    -0.005 C 
HETATM   11  C   UNL     1     -24.628  -3.441  -9.856  1.00  0.00     0.005 C 
ENDBRANCH   9  10
ENDBRANCH   8   9
ENDBRANCH   7   8
ENDBRANCH   6   7
ENDBRANCH   4   5
ENDBRANCH   3   4
ENDBRANCH   1   2
BRANCH   1  12
HETATM   12  C   UNL     1     -22.278  -6.932  -0.606  1.00  0.00     0.004 C 
BRANCH  12  13
HETATM   13  C   UNL     1     -21.223  -8.034  -0.641  1.00  0.00     0.000 C 
BRANCH  13  14
HETATM   14  C   UNL     1     -21.698  -9.264   0.120  1.00  0.00     0.000 C 
BRANCH  14  15
HETATM   15  C   UNL     1     -23.195  -9.485  -0.071  1.00  0.00     0.000 C 
BRANCH  15  16
HETATM   16  C   UNL     1     -23.531 -10.960   0.109  1.00  0.00     0.010 C 
BRANCH  16  17
HETATM   17  C   UNL     1     -24.095 -11.575  -1.166  1.00  0.00     0.111 C 
BRANCH  17  18
HETATM   18  C   UNL     1     -23.003 -11.745  -2.190  1.00  0.00     0.258 C 
HETATM   19  O   UNL     1     -22.839 -11.036  -3.172  1.00  0.00    -0.265 OA
BRANCH  18  20
HETATM   20  O   UNL     1     -22.289 -12.869  -1.901  1.00  0.00    -0.322 OA
BRANCH  20  21
HETATM   21  C   UNL     1     -20.882 -12.760  -2.144  1.00  0.00     0.174 C 
HETATM   22  C   UNL     1     -20.203 -12.499  -0.812  1.00  0.00     0.034 C 
ENDBRANCH  20  21
ENDBRANCH  18  20
ENDBRANCH  17  18
ENDBRANCH  16  17
ENDBRANCH  15  16
ENDBRANCH  14  15
ENDBRANCH  13  14
ENDBRANCH  12  13
ENDBRANCH   1  12
TORSDOF 16
BEGIN_RES ARG D 557
REMARK  4 active torsions:
REMARK  status: ('A' for Active; 'I' for Inactive)
REMARK    1  A    between atoms: CA   and  CB  
REMARK    2  A    between atoms: CB   and  CG  
REMARK    3  A    between atoms: CG   and  CD  
REMARK    4  A    between atoms: CD   and  NE  
REMARK       I    between atoms: NE   and  CZ  
REMARK       I    between atoms: CZ   and  NH1 
REMARK       I    between atoms: CZ   and  NH2 
ROOT
ATOM      1  CA  ARG D 557     -26.217   2.705 -17.014  1.00 35.49     0.159 C 
ENDROOT
BRANCH   1   2
ATOM      2  CB  ARG D 557     -26.789   1.319 -17.183  1.00 35.49     0.034 C 
BRANCH   2   3
ATOM      3  CG  ARG D 557     -25.835   0.204 -17.164  1.00 35.49     0.027 C 
BRANCH   3   4
ATOM      4  CD  ARG D 557     -24.781   0.380 -16.139  1.00 35.49     0.116 C 
BRANCH   4   5
ATOM      5  NE  ARG D 557     -24.977  -0.484 -15.005  1.00 35.49    -0.212 N 
ATOM      6  CZ  ARG D 557     -24.187  -1.471 -14.645  1.00 35.49     0.666 C 
ATOM      7  NH1 ARG D 557     -23.099  -1.790 -15.322  1.00 35.49    -0.235 N 
ATOM      8  NH2 ARG D 557     -24.508  -2.138 -13.575  1.00 35.49    -0.235 N 
ATOM      9  HH  ARG D 557     -22.867  -1.364 -16.028  1.00 35.49     0.174 HD
ATOM     10  HH  ARG D 557     -22.620  -2.442 -15.038  1.00 35.49     0.174 HD
ATOM     11  HH  ARG D 557     -25.212  -1.904 -13.154  1.00 35.49     0.174 HD
ATOM     12  HH  ARG D 557     -24.020  -2.779 -13.309  1.00 35.49     0.174 HD
ATOM     13  HE  ARG D 557     -25.693  -0.395 -14.554  1.00 35.49     0.178 HD
ENDBRANCH   4   5
ENDBRANCH   3   4
ENDBRANCH   2   3
ENDBRANCH   1   2
END_RES ARG D 557
BEGIN_RES GLU D 570
REMARK  3 active torsions:
REMARK  status: ('A' for Active; 'I' for Inactive)
REMARK    5  A    between atoms: CA   and  CB  
REMARK    6  A    between atoms: CB   and  CG  
REMARK    7  A    between atoms: CG   and  CD  
ROOT
ATOM     14  CA  GLU D 570     -18.033  -6.348 -13.375  1.00 32.92     0.160 C 
ENDROOT
BRANCH  14  15
ATOM     15  CB  GLU D 570     -19.500  -6.345 -13.794  1.00 32.92     0.043 C 
BRANCH  15  16
ATOM     16  CG  GLU D 570     -20.441  -5.526 -12.986  1.00 32.92     0.100 C 
BRANCH  16  17
ATOM     17  CD  GLU D 570     -21.719  -5.198 -13.723  1.00 32.92     0.185 C 
ATOM     18  OE1 GLU D 570     -22.123  -5.976 -14.609  1.00 32.92    -0.647 OA
ATOM     19  OE2 GLU D 570     -22.312  -4.144 -13.423  1.00 32.92    -0.647 OA
ENDBRANCH  16  17
ENDBRANCH  15  16
ENDBRANCH  14  15
END_RES GLU D 570
ENDMDL
MODEL 7
REMARK VINA RESULT:      -6.6      1.533      2.211
REMARK  16 active torsions:
REMARK  status: ('A' for Active; 'I' for Inactive)
REMARK    1  A    between atoms: C_2  and  C_3 
REMARK    2  A    between atoms: C_3  and  C_4 
REMARK    3  A    between atoms: C_4  and  C_5 
REMARK    4  A    between atoms: C_5  and  C_6 
REMARK    5  A    between atoms: C_7  and  C_8 
REMARK    6  A    between atoms: C_8  and  C_9 
REMARK    7  A    between atoms: C_10  and  C_11 
REMARK    8  A    between atoms: C_11  and  C_12 
REMARK    9  A    between atoms: C_12  and  C_13 
REMARK   10  A    between atoms: C_13  and  C_14 
REMARK   11  A    between atoms: C_14  and  C_15 
REMARK   12  A    between atoms: C_15  and  C_16 
REMARK   13  A    between atoms: C_16  and  C_17 
REMARK   14  A    between atoms: C_17  and  C_18 
REMARK   15  A    between atoms: C_18  and  O_20 
REMARK   16  A    between atoms: O_20  and  C_21 
ROOT
HETATM    1  C   UNL     1     -21.621  -6.304  -4.718  1.00  0.00     0.027 C 
ENDROOT
BRANCH   1   2
HETATM    2  C   UNL     1     -21.968  -6.887  -3.383  1.00  0.00    -0.030 C 
HETATM    3  C   UNL     1     -22.003  -6.174  -2.247  1.00  0.00    -0.027 C 
BRANCH   3   4
HETATM    4  C   UNL     1     -22.342  -6.755  -0.907  1.00  0.00     0.053 C 
BRANCH   4   5
HETATM    5  C   UNL     1     -21.589  -8.028  -0.669  1.00  0.00    -0.027 C 
HETATM    6  C   UNL     1     -21.857  -8.881   0.333  1.00  0.00    -0.030 C 
BRANCH   6   7
HETATM    7  C   UNL     1     -21.098 -10.152   0.572  1.00  0.00     0.027 C 
BRANCH   7   8
HETATM    8  C   UNL     1     -21.996 -11.375   0.378  1.00  0.00     0.004 C 
BRANCH   8   9
HETATM    9  C   UNL     1     -23.421 -10.953   0.025  1.00  0.00    -0.000 C 
BRANCH   9  10
HETATM   10  C   UNL     1     -23.888 -11.598  -1.279  1.00  0.00    -0.005 C 
HETATM   11  C   UNL     1     -23.049 -11.129  -2.455  1.00  0.00     0.005 C 
ENDBRANCH   9  10
ENDBRANCH   8   9
ENDBRANCH   7   8
ENDBRANCH   6   7
ENDBRANCH   4   5
ENDBRANCH   3   4
ENDBRANCH   1   2
BRANCH   1  12
HETATM   12  C   UNL     1     -20.689  -7.233  -5.489  1.00  0.00     0.004 C 
BRANCH  12  13
HETATM   13  C   UNL     1     -19.842  -6.444  -6.484  1.00  0.00     0.000 C 
BRANCH  13  14
HETATM   14  C   UNL     1     -19.950  -4.947  -6.221  1.00  0.00     0.000 C 
BRANCH  14  15
HETATM   15  C   UNL     1     -20.196  -4.178  -7.514  1.00  0.00     0.000 C 
BRANCH  15  16
HETATM   16  C   UNL     1     -21.536  -3.457  -7.443  1.00  0.00     0.010 C 
BRANCH  16  17
HETATM   17  C   UNL     1     -22.701  -4.391  -7.746  1.00  0.00     0.111 C 
BRANCH  17  18
HETATM   18  C   UNL     1     -23.295  -4.064  -9.092  1.00  0.00     0.258 C 
HETATM   19  O   UNL     1     -24.239  -3.311  -9.284  1.00  0.00    -0.265 OA
BRANCH  18  20
HETATM   20  O   UNL     1     -22.677  -4.812 -10.048  1.00  0.00    -0.322 OA
BRANCH  20  21
HETATM   21  C   UNL     1     -22.361  -4.101 -11.251  1.00  0.00     0.174 C 
HETATM   22  C   UNL     1     -23.124  -4.757 -12.387  1.00  0.00     0.034 C 
ENDBRANCH  20  21
ENDBRANCH  18  20
ENDBRANCH  17  18
ENDBRANCH  16  17
ENDBRANCH  15  16
ENDBRANCH  14  15
ENDBRANCH  13  14
ENDBRANCH  12  13
ENDBRANCH   1  12
TORSDOF 16
BEGIN_RES ARG D 557
REMARK  4 active torsions:
REMARK  status: ('A' for Active; 'I' for Inactive)
REMARK    1  A    between atoms: CA   and  CB  
REMARK    2  A    between atoms: CB   and  CG  
REMARK    3  A    between atoms: CG   and  CD  
REMARK    4  A    between atoms: CD   and  NE  
REMARK       I    between atoms: NE   and  CZ  
REMARK       I    between atoms: CZ   and  NH1 
REMARK       I    between atoms: CZ   and  NH2 
ROOT
ATOM      1  CA  ARG D 557     -26.217   2.705 -17.014  1.00 35.49     0.159 C 
ENDROOT
BRANCH   1   2
ATOM      2  CB  ARG D 557     -26.789   1.319 -17.183  1.00 35.49     0.034 C 
BRANCH   2   3
ATOM      3  CG  ARG D 557     -26.093   0.228 -16.490  1.00 35.49     0.027 C 
BRANCH   3   4
ATOM      4  CD  ARG D 557     -26.972  -0.940 -16.251  1.00 35.49     0.116 C 
BRANCH   4   5
ATOM      5  NE  ARG D 557     -26.312  -1.968 -15.491  1.00 35.49    -0.212 N 
ATOM      6  CZ  ARG D 557     -26.628  -3.244 -15.488  1.00 35.49     0.666 C 
ATOM      7  NH1 ARG D 557     -27.629  -3.728 -16.200  1.00 35.49    -0.235 N 
ATOM      8  NH2 ARG D 557     -25.906  -4.040 -14.753  1.00 35.49    -0.235 N 
ATOM      9  HH  ARG D 557     -28.116  -3.223 -16.692  1.00 35.49     0.174 HD
ATOM     10  HH  ARG D 557     -27.787  -4.569 -16.161  1.00 35.49     0.174 HD
ATOM     11  HH  ARG D 557     -25.261  -3.700 -14.310  1.00 35.49     0.174 HD
ATOM     12  HH  ARG D 557     -26.077  -4.870 -14.729  1.00 35.49     0.174 HD
ATOM     13  HE  ARG D 557     -25.701  -1.734 -14.948  1.00 35.49     0.178 HD
ENDBRANCH   4   5
ENDBRANCH   3   4
ENDBRANCH   2   3
ENDBRANCH   1   2
END_RES ARG D 557
BEGIN_RES GLU D 570
REMARK  3 active torsions:
REMARK  status: ('A' for Active; 'I' for Inactive)
REMARK    5  A    between atoms: CA   and  CB  
REMARK    6  A    between atoms: CB   and  CG  
REMARK    7  A    between atoms: CG   and  CD  
ROOT
ATOM     14  CA  GLU D 570     -18.033  -6.348 -13.375  1.00 32.92     0.160 C 
ENDROOT
BRANCH  14  15
ATOM     15  CB  GLU D 570     -19.500  -6.345 -13.794  1.00 32.92     0.043 C 
BRANCH  15  16
ATOM     16  CG  GLU D 570     -20.116  -7.652 -14.141  1.00 32.92     0.100 C 
BRANCH  16  17
ATOM     17  CD  GLU D 570     -20.946  -7.597 -15.402  1.00 32.92     0.185 C 
ATOM     18  OE1 GLU D 570     -20.779  -8.470 -16.275  1.00 32.92    -0.647 OA
ATOM     19  OE2 GLU D 570     -21.759  -6.660 -15.526  1.00 32.92    -0.647 OA
ENDBRANCH  16  17
ENDBRANCH  15  16
ENDBRANCH  14  15
END_RES GLU D 570
ENDMDL
MODEL 8
REMARK VINA RESULT:      -6.6      4.449      8.823
REMARK  16 active torsions:
REMARK  status: ('A' for Active; 'I' for Inactive)
REMARK    1  A    between atoms: C_2  and  C_3 
REMARK    2  A    between atoms: C_3  and  C_4 
REMARK    3  A    between atoms: C_4  and  C_5 
REMARK    4  A    between atoms: C_5  and  C_6 
REMARK    5  A    between atoms: C_7  and  C_8 
REMARK    6  A    between atoms: C_8  and  C_9 
REMARK    7  A    between atoms: C_10  and  C_11 
REMARK    8  A    between atoms: C_11  and  C_12 
REMARK    9  A    between atoms: C_12  and  C_13 
REMARK   10  A    between atoms: C_13  and  C_14 
REMARK   11  A    between atoms: C_14  and  C_15 
REMARK   12  A    between atoms: C_15  and  C_16 
REMARK   13  A    between atoms: C_16  and  C_17 
REMARK   14  A    between atoms: C_17  and  C_18 
REMARK   15  A    between atoms: C_18  and  O_20 
REMARK   16  A    between atoms: O_20  and  C_21 
ROOT
HETATM    1  C   UNL     1     -22.307  -6.424  -1.415  1.00  0.00     0.027 C 
ENDROOT
BRANCH   1   2
HETATM    2  C   UNL     1     -21.453  -6.463  -2.645  1.00  0.00    -0.030 C 
HETATM    3  C   UNL     1     -21.583  -7.385  -3.611  1.00  0.00    -0.027 C 
BRANCH   3   4
HETATM    4  C   UNL     1     -20.725  -7.433  -4.840  1.00  0.00     0.053 C 
BRANCH   4   5
HETATM    5  C   UNL     1     -20.590  -6.072  -5.452  1.00  0.00    -0.027 C 
HETATM    6  C   UNL     1     -19.969  -5.835  -6.619  1.00  0.00    -0.030 C 
BRANCH   6   7
HETATM    7  C   UNL     1     -19.830  -4.471  -7.227  1.00  0.00     0.027 C 
BRANCH   7   8
HETATM    8  C   UNL     1     -20.277  -4.471  -8.690  1.00  0.00     0.004 C 
BRANCH   8   9
HETATM    9  C   UNL     1     -21.764  -4.801  -8.804  1.00  0.00    -0.000 C 
BRANCH   9  10
HETATM   10  C   UNL     1     -22.387  -4.151 -10.039  1.00  0.00    -0.005 C 
HETATM   11  C   UNL     1     -23.722  -4.790 -10.382  1.00  0.00     0.005 C 
ENDBRANCH   9  10
ENDBRANCH   8   9
ENDBRANCH   7   8
ENDBRANCH   6   7
ENDBRANCH   4   5
ENDBRANCH   3   4
ENDBRANCH   1   2
BRANCH   1  12
HETATM   12  C   UNL     1     -21.843  -7.462  -0.399  1.00  0.00     0.004 C 
BRANCH  12  13
HETATM   13  C   UNL     1     -23.031  -8.245   0.154  1.00  0.00     0.000 C 
BRANCH  13  14
HETATM   14  C   UNL     1     -22.901  -9.728  -0.169  1.00  0.00     0.000 C 
BRANCH  14  15
HETATM   15  C   UNL     1     -21.438 -10.160  -0.186  1.00  0.00     0.000 C 
BRANCH  15  16
HETATM   16  C   UNL     1     -21.061 -10.665  -1.573  1.00  0.00     0.010 C 
BRANCH  16  17
HETATM   17  C   UNL     1     -19.671 -10.200  -1.989  1.00  0.00     0.111 C 
BRANCH  17  18
HETATM   18  C   UNL     1     -18.668 -11.305  -1.783  1.00  0.00     0.258 C 
HETATM   19  O   UNL     1     -18.674 -12.101  -0.856  1.00  0.00    -0.265 OA
BRANCH  18  20
HETATM   20  O   UNL     1     -17.702 -11.216  -2.740  1.00  0.00    -0.322 OA
BRANCH  20  21
HETATM   21  C   UNL     1     -16.407 -10.851  -2.246  1.00  0.00     0.174 C 
HETATM   22  C   UNL     1     -16.044  -9.509  -2.856  1.00  0.00     0.034 C 
ENDBRANCH  20  21
ENDBRANCH  18  20
ENDBRANCH  17  18
ENDBRANCH  16  17
ENDBRANCH  15  16
ENDBRANCH  14  15
ENDBRANCH  13  14
ENDBRANCH  12  13
ENDBRANCH   1  12
TORSDOF 16
BEGIN_RES ARG D 557
REMARK  4 active torsions:
REMARK  status: ('A' for Active; 'I' for Inactive)
REMARK    1  A    between atoms: CA   and  CB  
REMARK    2  A    between atoms: CB   and  CG  
REMARK    3  A    between atoms: CG   and  CD  
REMARK    4  A    between atoms: CD   and  NE  
REMARK       I    between atoms: NE   and  CZ  
REMARK       I    between atoms: CZ   and  NH1 
REMARK       I    between atoms: CZ   and  NH2 
ROOT
ATOM      1  CA  ARG D 557     -26.217   2.705 -17.014  1.00 35.49     0.159 C 
ENDROOT
BRANCH   1   2
ATOM      2  CB  ARG D 557     -26.789   1.319 -17.183  1.00 35.49     0.034 C 
BRANCH   2   3
ATOM      3  CG  ARG D 557     -25.835   0.203 -17.158  1.00 35.49     0.027 C 
BRANCH   3   4
ATOM      4  CD  ARG D 557     -24.745   0.415 -16.178  1.00 35.49     0.116 C 
BRANCH   4   5
ATOM      5  NE  ARG D 557     -24.886  -0.428 -15.020  1.00 35.49    -0.212 N 
ATOM      6  CZ  ARG D 557     -24.070  -1.397 -14.672  1.00 35.49     0.666 C 
ATOM      7  NH1 ARG D 557     -23.006  -1.719 -15.384  1.00 35.49    -0.235 N 
ATOM      8  NH2 ARG D 557     -24.340  -2.045 -13.576  1.00 35.49    -0.235 N 
ATOM      9  HH  ARG D 557     -22.807  -1.304 -16.107  1.00 35.49     0.174 HD
ATOM     10  HH  ARG D 557     -22.508  -2.359 -15.106  1.00 35.49     0.174 HD
ATOM     11  HH  ARG D 557     -25.030  -1.811 -13.132  1.00 35.49     0.174 HD
ATOM     12  HH  ARG D 557     -23.835  -2.675 -13.317  1.00 35.49     0.174 HD
ATOM     13  HE  ARG D 557     -25.584  -0.338 -14.543  1.00 35.49     0.178 HD
ENDBRANCH   4   5
ENDBRANCH   3   4
ENDBRANCH   2   3
ENDBRANCH   1   2
END_RES ARG D 557
BEGIN_RES GLU D 570
REMARK  3 active torsions:
REMARK  status: ('A' for Active; 'I' for Inactive)
REMARK    5  A    between atoms: CA   and  CB  
REMARK    6  A    between atoms: CB   and  CG  
REMARK    7  A    between atoms: CG   and  CD  
ROOT
ATOM     14  CA  GLU D 570     -18.033  -6.348 -13.375  1.00 32.92     0.160 C 
ENDROOT
BRANCH  14  15
ATOM     15  CB  GLU D 570     -19.500  -6.345 -13.794  1.00 32.92     0.043 C 
BRANCH  15  16
ATOM     16  CG  GLU D 570     -20.442  -5.531 -12.983  1.00 32.92     0.100 C 
BRANCH  16  17
ATOM     17  CD  GLU D 570     -21.737  -5.237 -13.703  1.00 32.92     0.185 C 
ATOM     18  OE1 GLU D 570     -22.254  -4.109 -13.584  1.00 32.92    -0.647 OA
ATOM     19  OE2 GLU D 570     -22.250  -6.150 -14.379  1.00 32.92    -0.647 OA
ENDBRANCH  16  17
ENDBRANCH  15  16
ENDBRANCH  14  15
END_RES GLU D 570
ENDMDL
MODEL 9
REMARK VINA RESULT:      -6.6      1.782      2.554
REMARK  16 active torsions:
REMARK  status: ('A' for Active; 'I' for Inactive)
REMARK    1  A    between atoms: C_2  and  C_3 
REMARK    2  A    between atoms: C_3  and  C_4 
REMARK    3  A    between atoms: C_4  and  C_5 
REMARK    4  A    between atoms: C_5  and  C_6 
REMARK    5  A    between atoms: C_7  and  C_8 
REMARK    6  A    between atoms: C_8  and  C_9 
REMARK    7  A    between atoms: C_10  and  C_11 
REMARK    8  A    between atoms: C_11  and  C_12 
REMARK    9  A    between atoms: C_12  and  C_13 
REMARK   10  A    between atoms: C_13  and  C_14 
REMARK   11  A    between atoms: C_14  and  C_15 
REMARK   12  A    between atoms: C_15  and  C_16 
REMARK   13  A    between atoms: C_16  and  C_17 
REMARK   14  A    between atoms: C_17  and  C_18 
REMARK   15  A    between atoms: C_18  and  O_20 
REMARK   16  A    between atoms: O_20  and  C_21 
ROOT
HETATM    1  C   UNL     1     -20.384  -4.679  -7.229  1.00  0.00     0.027 C 
ENDROOT
BRANCH   1   2
HETATM    2  C   UNL     1     -20.707  -4.783  -5.770  1.00  0.00    -0.030 C 
HETATM    3  C   UNL     1     -20.978  -5.941  -5.149  1.00  0.00    -0.027 C 
BRANCH   3   4
HETATM    4  C   UNL     1     -21.309  -6.048  -3.691  1.00  0.00     0.053 C 
BRANCH   4   5
HETATM    5  C   UNL     1     -21.171  -7.462  -3.213  1.00  0.00    -0.027 C 
HETATM    6  C   UNL     1     -20.777  -7.798  -1.974  1.00  0.00    -0.030 C 
BRANCH   6   7
HETATM    7  C   UNL     1     -20.632  -9.213  -1.500  1.00  0.00     0.027 C 
BRANCH   7   8
HETATM    8  C   UNL     1     -21.364  -9.427  -0.173  1.00  0.00     0.004 C 
BRANCH   8   9
HETATM    9  C   UNL     1     -22.866  -9.206  -0.339  1.00  0.00    -0.000 C 
BRANCH   9  10
HETATM   10  C   UNL     1     -23.655 -10.475  -0.021  1.00  0.00    -0.005 C 
HETATM   11  C   UNL     1     -23.865 -11.319  -1.268  1.00  0.00     0.005 C 
ENDBRANCH   9  10
ENDBRANCH   8   9
ENDBRANCH   7   8
ENDBRANCH   6   7
ENDBRANCH   4   5
ENDBRANCH   3   4
ENDBRANCH   1   2
BRANCH   1  12
HETATM   12  C   UNL     1     -21.112  -3.498  -7.862  1.00  0.00     0.004 C 
BRANCH  12  13
HETATM   13  C   UNL     1     -22.409  -3.955  -8.523  1.00  0.00     0.000 C 
BRANCH  13  14
HETATM   14  C   UNL     1     -22.126  -4.655  -9.846  1.00  0.00     0.000 C 
BRANCH  14  15
HETATM   15  C   UNL     1     -21.436  -3.715 -10.828  1.00  0.00     0.000 C 
BRANCH  15  16
HETATM   16  C   UNL     1     -22.170  -3.726 -12.163  1.00  0.00     0.010 C 
BRANCH  16  17
HETATM   17  C   UNL     1     -22.828  -5.072 -12.439  1.00  0.00     0.111 C 
BRANCH  17  18
HETATM   18  C   UNL     1     -23.175  -5.192 -13.900  1.00  0.00     0.258 C 
HETATM   19  O   UNL     1     -22.775  -4.450 -14.785  1.00  0.00    -0.265 OA
BRANCH  18  20
HETATM   20  O   UNL     1     -24.079  -6.198 -14.064  1.00  0.00    -0.322 OA
BRANCH  20  21
HETATM   21  C   UNL     1     -24.180  -6.697 -15.403  1.00  0.00     0.174 C 
HETATM   22  C   UNL     1     -25.655  -6.857 -15.725  1.00  0.00     0.034 C 
ENDBRANCH  20  21
ENDBRANCH  18  20
ENDBRANCH  17  18
ENDBRANCH  16  17
ENDBRANCH  15  16
ENDBRANCH  14  15
ENDBRANCH  13  14
ENDBRANCH  12  13
ENDBRANCH   1  12
TORSDOF 16
BEGIN_RES ARG D 557
REMARK  4 active torsions:
REMARK  status: ('A' for Active; 'I' for Inactive)
REMARK    1  A    between atoms: CA   and  CB  
REMARK    2  A    between atoms: CB   and  CG  
REMARK    3  A    between atoms: CG   and  CD  
REMARK    4  A    between atoms: CD   and  NE  
REMARK       I    between atoms: NE   and  CZ  
REMARK       I    between atoms: CZ   and  NH1 
REMARK       I    between atoms: CZ   and  NH2 
ROOT
ATOM      1  CA  ARG D 557     -26.217   2.705 -17.014  1.00 35.49     0.159 C 
ENDROOT
BRANCH   1   2
ATOM      2  CB  ARG D 557     -26.789   1.319 -17.183  1.00 35.49     0.034 C 
BRANCH   2   3
ATOM      3  CG  ARG D 557     -26.002   0.208 -16.635  1.00 35.49     0.027 C 
BRANCH   3   4
ATOM      4  CD  ARG D 557     -26.848  -0.936 -16.225  1.00 35.49     0.116 C 
BRANCH   4   5
ATOM      5  NE  ARG D 557     -26.273  -1.671 -15.130  1.00 35.49    -0.212 N 
ATOM      6  CZ  ARG D 557     -26.375  -2.968 -14.938  1.00 35.49     0.666 C 
ATOM      7  NH1 ARG D 557     -27.052  -3.754 -15.754  1.00 35.49    -0.235 N 
ATOM      8  NH2 ARG D 557     -25.770  -3.470 -13.901  1.00 35.49    -0.235 N 
ATOM      9  HH  ARG D 557     -27.456  -3.446 -16.444  1.00 35.49     0.174 HD
ATOM     10  HH  ARG D 557     -27.081  -4.593 -15.580  1.00 35.49     0.174 HD
ATOM     11  HH  ARG D 557     -25.334  -2.939 -13.396  1.00 35.49     0.174 HD
ATOM     12  HH  ARG D 557     -25.809  -4.303 -13.746  1.00 35.49     0.174 HD
ATOM     13  HE  ARG D 557     -25.881  -1.232 -14.517  1.00 35.49     0.178 HD
ENDBRANCH   4   5
ENDBRANCH   3   4
ENDBRANCH   2   3
ENDBRANCH   1   2
END_RES ARG D 557
BEGIN_RES GLU D 570
REMARK  3 active torsions:
REMARK  status: ('A' for Active; 'I' for Inactive)
REMARK    5  A    between atoms: CA   and  CB  
REMARK    6  A    between atoms: CB   and  CG  
REMARK    7  A    between atoms: CG   and  CD  
ROOT
ATOM     14  CA  GLU D 570     -18.033  -6.348 -13.375  1.00 32.92     0.160 C 
ENDROOT
BRANCH  14  15
ATOM     15  CB  GLU D 570     -19.500  -6.345 -13.794  1.00 32.92     0.043 C 
BRANCH  15  16
ATOM     16  CG  GLU D 570     -20.081  -7.630 -14.263  1.00 32.92     0.100 C 
BRANCH  16  17
ATOM     17  CD  GLU D 570     -20.679  -7.536 -15.647  1.00 32.92     0.185 C 
ATOM     18  OE1 GLU D 570     -20.583  -6.465 -16.276  1.00 32.92    -0.647 OA
ATOM     19  OE2 GLU D 570     -21.265  -8.539 -16.100  1.00 32.92    -0.647 OA
ENDBRANCH  16  17
ENDBRANCH  15  16
ENDBRANCH  14  15
END_RES GLU D 570
ENDMDL
