MODEL 1
REMARK VINA RESULT:      -5.6      0.000      0.000
REMARK  10 active torsions:
REMARK  status: ('A' for Active; 'I' for Inactive)
REMARK    1  A    between atoms: C_2  and  C_3 
REMARK    2  A    between atoms: C_3  and  C_4 
REMARK    3  A    between atoms: C_4  and  C_5 
REMARK    4  A    between atoms: C_5  and  C_6 
REMARK    5  A    between atoms: C_6  and  C_7 
REMARK    6  A    between atoms: C_7  and  C_8 
REMARK    7  A    between atoms: C_8  and  C_9 
REMARK    8  A    between atoms: C_9  and  C_10 
REMARK    9  A    between atoms: C_10  and  C_11 
REMARK   10  A    between atoms: C_11  and  C_12 
ROOT
HETATM    1  C   UNL     1     -20.479  -5.062  -5.516  1.00  0.00     0.000 C 
ENDROOT
BRANCH   1   2
HETATM    2  C   UNL     1     -19.720  -4.713  -6.785  1.00  0.00     0.000 C 
BRANCH   2   3
HETATM    3  C   UNL     1     -20.498  -5.172  -8.009  1.00  0.00     0.000 C 
BRANCH   3   4
HETATM    4  C   UNL     1     -20.188  -4.274  -9.197  1.00  0.00     0.000 C 
BRANCH   4   5
HETATM    5  C   UNL     1     -21.473  -3.897  -9.924  1.00  0.00    -0.000 C 
BRANCH   5   6
HETATM    6  C   UNL     1     -22.679  -4.556  -9.268  1.00  0.00    -0.005 C 
HETATM    7  C   UNL     1     -23.730  -4.899 -10.306  1.00  0.00     0.005 C 
ENDBRANCH   5   6
ENDBRANCH   4   5
ENDBRANCH   3   4
ENDBRANCH   2   3
ENDBRANCH   1   2
BRANCH   1   8
HETATM    8  C   UNL     1     -21.581  -6.063  -5.821  1.00  0.00     0.000 C 
BRANCH   8   9
HETATM    9  C   UNL     1     -22.198  -6.575  -4.530  1.00  0.00     0.000 C 
BRANCH   9  10
HETATM   10  C   UNL     1     -21.325  -6.198  -3.343  1.00  0.00     0.000 C 
BRANCH  10  11
HETATM   11  C   UNL     1     -22.163  -6.127  -2.075  1.00  0.00    -0.000 C 
BRANCH  11  12
HETATM   12  C   UNL     1     -21.938  -7.363  -1.211  1.00  0.00    -0.005 C 
HETATM   13  C   UNL     1     -20.587  -7.991  -1.515  1.00  0.00     0.005 C 
ENDBRANCH  11  12
ENDBRANCH  10  11
ENDBRANCH   9  10
ENDBRANCH   8   9
ENDBRANCH   1   8
TORSDOF 10
BEGIN_RES ARG D 557
REMARK  4 active torsions:
REMARK  status: ('A' for Active; 'I' for Inactive)
REMARK    1  A    between atoms: CA   and  CB  
REMARK    2  A    between atoms: CB   and  CG  
REMARK    3  A    between atoms: CG   and  CD  
REMARK    4  A    between atoms: CD   and  NE  
REMARK       I    between atoms: NE   and  CZ  
REMARK       I    between atoms: CZ   and  NH1 
REMARK       I    between atoms: CZ   and  NH2 
ROOT
ATOM      1  CA  ARG D 557     -26.217   2.705 -17.014  1.00 35.49     0.159 C 
ENDROOT
BRANCH   1   2
ATOM      2  CB  ARG D 557     -26.789   1.319 -17.183  1.00 35.49     0.034 C 
BRANCH   2   3
ATOM      3  CG  ARG D 557     -25.838   0.201 -17.135  1.00 35.49     0.027 C 
BRANCH   3   4
ATOM      4  CD  ARG D 557     -24.766   0.416 -16.137  1.00 35.49     0.116 C 
BRANCH   4   5
ATOM      5  NE  ARG D 557     -24.907  -0.448 -14.994  1.00 35.49    -0.212 N 
ATOM      6  CZ  ARG D 557     -24.085  -1.417 -14.658  1.00 35.49     0.666 C 
ATOM      7  NH1 ARG D 557     -23.013  -1.717 -15.368  1.00 35.49    -0.235 N 
ATOM      8  NH2 ARG D 557     -24.358  -2.086 -13.576  1.00 35.49    -0.235 N 
ATOM      9  HH  ARG D 557     -22.814  -1.288 -16.083  1.00 35.49     0.174 HD
ATOM     10  HH  ARG D 557     -22.512  -2.357 -15.099  1.00 35.49     0.174 HD
ATOM     11  HH  ARG D 557     -25.052  -1.866 -13.133  1.00 35.49     0.174 HD
ATOM     12  HH  ARG D 557     -23.848  -2.716 -13.324  1.00 35.49     0.174 HD
ATOM     13  HE  ARG D 557     -25.609  -0.373 -14.521  1.00 35.49     0.178 HD
ENDBRANCH   4   5
ENDBRANCH   3   4
ENDBRANCH   2   3
ENDBRANCH   1   2
END_RES ARG D 557
BEGIN_RES GLU D 570
REMARK  3 active torsions:
REMARK  status: ('A' for Active; 'I' for Inactive)
REMARK    5  A    between atoms: CA   and  CB  
REMARK    6  A    between atoms: CB   and  CG  
REMARK    7  A    between atoms: CG   and  CD  
ROOT
ATOM     14  CA  GLU D 570     -18.033  -6.348 -13.375  1.00 32.92     0.160 C 
ENDROOT
BRANCH  14  15
ATOM     15  CB  GLU D 570     -19.500  -6.345 -13.794  1.00 32.92     0.043 C 
BRANCH  15  16
ATOM     16  CG  GLU D 570     -20.443  -5.534 -12.981  1.00 32.92     0.100 C 
BRANCH  16  17
ATOM     17  CD  GLU D 570     -21.735  -5.233 -13.702  1.00 32.92     0.185 C 
ATOM     18  OE1 GLU D 570     -22.327  -4.163 -13.462  1.00 32.92    -0.647 OA
ATOM     19  OE2 GLU D 570     -22.169  -6.083 -14.504  1.00 32.92    -0.647 OA
ENDBRANCH  16  17
ENDBRANCH  15  16
ENDBRANCH  14  15
END_RES GLU D 570
ENDMDL
MODEL 2
REMARK VINA RESULT:      -5.6      0.565      5.220
REMARK  10 active torsions:
REMARK  status: ('A' for Active; 'I' for Inactive)
REMARK    1  A    between atoms: C_2  and  C_3 
REMARK    2  A    between atoms: C_3  and  C_4 
REMARK    3  A    between atoms: C_4  and  C_5 
REMARK    4  A    between atoms: C_5  and  C_6 
REMARK    5  A    between atoms: C_6  and  C_7 
REMARK    6  A    between atoms: C_7  and  C_8 
REMARK    7  A    between atoms: C_8  and  C_9 
REMARK    8  A    between atoms: C_9  and  C_10 
REMARK    9  A    between atoms: C_10  and  C_11 
REMARK   10  A    between atoms: C_11  and  C_12 
ROOT
HETATM    1  C   UNL     1     -20.493  -4.969  -5.511  1.00  0.00     0.000 C 
ENDROOT
BRANCH   1   2
HETATM    2  C   UNL     1     -21.754  -5.801  -5.677  1.00  0.00     0.000 C 
BRANCH   2   3
HETATM    3  C   UNL     1     -21.897  -6.780  -4.522  1.00  0.00     0.000 C 
BRANCH   3   4
HETATM    4  C   UNL     1     -21.382  -6.155  -3.234  1.00  0.00     0.000 C 
BRANCH   4   5
HETATM    5  C   UNL     1     -21.370  -7.186  -2.113  1.00  0.00    -0.000 C 
BRANCH   5   6
HETATM    6  C   UNL     1     -22.354  -6.803  -1.016  1.00  0.00    -0.005 C 
HETATM    7  C   UNL     1     -22.302  -7.806   0.122  1.00  0.00     0.005 C 
ENDBRANCH   5   6
ENDBRANCH   4   5
ENDBRANCH   3   4
ENDBRANCH   2   3
ENDBRANCH   1   2
BRANCH   1   8
HETATM    8  C   UNL     1     -19.733  -4.898  -6.825  1.00  0.00     0.000 C 
BRANCH   8   9
HETATM    9  C   UNL     1     -20.638  -5.301  -7.977  1.00  0.00     0.000 C 
BRANCH   9  10
HETATM   10  C   UNL     1     -20.356  -4.437  -9.197  1.00  0.00     0.000 C 
BRANCH  10  11
HETATM   11  C   UNL     1     -21.662  -3.964  -9.820  1.00  0.00    -0.000 C 
BRANCH  11  12
HETATM   12  C   UNL     1     -22.815  -4.117  -8.835  1.00  0.00    -0.005 C 
HETATM   13  C   UNL     1     -24.105  -3.572  -9.431  1.00  0.00     0.005 C 
ENDBRANCH  11  12
ENDBRANCH  10  11
ENDBRANCH   9  10
ENDBRANCH   8   9
ENDBRANCH   1   8
TORSDOF 10
BEGIN_RES ARG D 557
REMARK  4 active torsions:
REMARK  status: ('A' for Active; 'I' for Inactive)
REMARK    1  A    between atoms: CA   and  CB  
REMARK    2  A    between atoms: CB   and  CG  
REMARK    3  A    between atoms: CG   and  CD  
REMARK    4  A    between atoms: CD   and  NE  
REMARK       I    between atoms: NE   and  CZ  
REMARK       I    between atoms: CZ   and  NH1 
REMARK       I    between atoms: CZ   and  NH2 
ROOT
ATOM      1  CA  ARG D 557     -26.217   2.705 -17.014  1.00 35.49     0.159 C 
ENDROOT
BRANCH   1   2
ATOM      2  CB  ARG D 557     -26.789   1.319 -17.183  1.00 35.49     0.034 C 
BRANCH   2   3
ATOM      3  CG  ARG D 557     -25.836   0.203 -17.151  1.00 35.49     0.027 C 
BRANCH   3   4
ATOM      4  CD  ARG D 557     -24.759   0.409 -16.156  1.00 35.49     0.116 C 
BRANCH   4   5
ATOM      5  NE  ARG D 557     -24.910  -0.445 -15.008  1.00 35.49    -0.212 N 
ATOM      6  CZ  ARG D 557     -24.097  -1.420 -14.663  1.00 35.49     0.666 C 
ATOM      7  NH1 ARG D 557     -23.028  -1.734 -15.370  1.00 35.49    -0.235 N 
ATOM      8  NH2 ARG D 557     -24.378  -2.079 -13.577  1.00 35.49    -0.235 N 
ATOM      9  HH  ARG D 557     -22.823  -1.313 -16.087  1.00 35.49     0.174 HD
ATOM     10  HH  ARG D 557     -22.533  -2.378 -15.095  1.00 35.49     0.174 HD
ATOM     11  HH  ARG D 557     -25.071  -1.849 -13.136  1.00 35.49     0.174 HD
ATOM     12  HH  ARG D 557     -23.875  -2.712 -13.320  1.00 35.49     0.174 HD
ATOM     13  HE  ARG D 557     -25.612  -0.360 -14.536  1.00 35.49     0.178 HD
ENDBRANCH   4   5
ENDBRANCH   3   4
ENDBRANCH   2   3
ENDBRANCH   1   2
END_RES ARG D 557
BEGIN_RES GLU D 570
REMARK  3 active torsions:
REMARK  status: ('A' for Active; 'I' for Inactive)
REMARK    5  A    between atoms: CA   and  CB  
REMARK    6  A    between atoms: CB   and  CG  
REMARK    7  A    between atoms: CG   and  CD  
ROOT
ATOM     14  CA  GLU D 570     -18.033  -6.348 -13.375  1.00 32.92     0.160 C 
ENDROOT
BRANCH  14  15
ATOM     15  CB  GLU D 570     -19.500  -6.345 -13.794  1.00 32.92     0.043 C 
BRANCH  15  16
ATOM     16  CG  GLU D 570     -20.447  -5.553 -12.967  1.00 32.92     0.100 C 
BRANCH  16  17
ATOM     17  CD  GLU D 570     -21.742  -5.249 -13.682  1.00 32.92     0.185 C 
ATOM     18  OE1 GLU D 570     -22.243  -6.117 -14.423  1.00 32.92    -0.647 OA
ATOM     19  OE2 GLU D 570     -22.253  -4.124 -13.514  1.00 32.92    -0.647 OA
ENDBRANCH  16  17
ENDBRANCH  15  16
ENDBRANCH  14  15
END_RES GLU D 570
ENDMDL
MODEL 3
REMARK VINA RESULT:      -5.4      0.811      5.569
REMARK  10 active torsions:
REMARK  status: ('A' for Active; 'I' for Inactive)
REMARK    1  A    between atoms: C_2  and  C_3 
REMARK    2  A    between atoms: C_3  and  C_4 
REMARK    3  A    between atoms: C_4  and  C_5 
REMARK    4  A    between atoms: C_5  and  C_6 
REMARK    5  A    between atoms: C_6  and  C_7 
REMARK    6  A    between atoms: C_7  and  C_8 
REMARK    7  A    between atoms: C_8  and  C_9 
REMARK    8  A    between atoms: C_9  and  C_10 
REMARK    9  A    between atoms: C_10  and  C_11 
REMARK   10  A    between atoms: C_11  and  C_12 
ROOT
HETATM    1  C   UNL     1     -22.027  -6.518  -4.868  1.00  0.00     0.000 C 
ENDROOT
BRANCH   1   2
HETATM    2  C   UNL     1     -21.603  -6.374  -3.417  1.00  0.00     0.000 C 
BRANCH   2   3
HETATM    3  C   UNL     1     -20.918  -7.645  -2.938  1.00  0.00     0.000 C 
BRANCH   3   4
HETATM    4  C   UNL     1     -20.977  -7.737  -1.421  1.00  0.00     0.000 C 
BRANCH   4   5
HETATM    5  C   UNL     1     -22.283  -7.148  -0.906  1.00  0.00    -0.000 C 
BRANCH   5   6
HETATM    6  C   UNL     1     -22.727  -7.848   0.372  1.00  0.00    -0.005 C 
HETATM    7  C   UNL     1     -21.529  -8.391   1.127  1.00  0.00     0.005 C 
ENDBRANCH   5   6
ENDBRANCH   4   5
ENDBRANCH   3   4
ENDBRANCH   2   3
ENDBRANCH   1   2
BRANCH   1   8
HETATM    8  C   UNL     1     -20.834  -6.317  -5.788  1.00  0.00     0.000 C 
BRANCH   8   9
HETATM    9  C   UNL     1     -20.295  -4.903  -5.646  1.00  0.00     0.000 C 
BRANCH   9  10
HETATM   10  C   UNL     1     -20.428  -4.153  -6.963  1.00  0.00     0.000 C 
BRANCH  10  11
HETATM   11  C   UNL     1     -20.344  -5.124  -8.132  1.00  0.00    -0.000 C 
BRANCH  11  12
HETATM   12  C   UNL     1     -20.457  -4.380  -9.458  1.00  0.00    -0.005 C 
HETATM   13  C   UNL     1     -21.917  -4.153  -9.821  1.00  0.00     0.005 C 
ENDBRANCH  11  12
ENDBRANCH  10  11
ENDBRANCH   9  10
ENDBRANCH   8   9
ENDBRANCH   1   8
TORSDOF 10
BEGIN_RES ARG D 557
REMARK  4 active torsions:
REMARK  status: ('A' for Active; 'I' for Inactive)
REMARK    1  A    between atoms: CA   and  CB  
REMARK    2  A    between atoms: CB   and  CG  
REMARK    3  A    between atoms: CG   and  CD  
REMARK    4  A    between atoms: CD   and  NE  
REMARK       I    between atoms: NE   and  CZ  
REMARK       I    between atoms: CZ   and  NH1 
REMARK       I    between atoms: CZ   and  NH2 
ROOT
ATOM      1  CA  ARG D 557     -26.217   2.705 -17.014  1.00 35.49     0.159 C 
ENDROOT
BRANCH   1   2
ATOM      2  CB  ARG D 557     -26.789   1.319 -17.183  1.00 35.49     0.034 C 
BRANCH   2   3
ATOM      3  CG  ARG D 557     -25.836   0.203 -17.152  1.00 35.49     0.027 C 
BRANCH   3   4
ATOM      4  CD  ARG D 557     -24.759   0.408 -16.157  1.00 35.49     0.116 C 
BRANCH   4   5
ATOM      5  NE  ARG D 557     -24.912  -0.446 -15.008  1.00 35.49    -0.212 N 
ATOM      6  CZ  ARG D 557     -24.100  -1.419 -14.661  1.00 35.49     0.666 C 
ATOM      7  NH1 ARG D 557     -23.028  -1.734 -15.365  1.00 35.49    -0.235 N 
ATOM      8  NH2 ARG D 557     -24.382  -2.077 -13.574  1.00 35.49    -0.235 N 
ATOM      9  HH  ARG D 557     -22.822  -1.312 -16.082  1.00 35.49     0.174 HD
ATOM     10  HH  ARG D 557     -22.534  -2.377 -15.088  1.00 35.49     0.174 HD
ATOM     11  HH  ARG D 557     -25.077  -1.847 -13.136  1.00 35.49     0.174 HD
ATOM     12  HH  ARG D 557     -23.880  -2.710 -13.316  1.00 35.49     0.174 HD
ATOM     13  HE  ARG D 557     -25.615  -0.360 -14.538  1.00 35.49     0.178 HD
ENDBRANCH   4   5
ENDBRANCH   3   4
ENDBRANCH   2   3
ENDBRANCH   1   2
END_RES ARG D 557
BEGIN_RES GLU D 570
REMARK  3 active torsions:
REMARK  status: ('A' for Active; 'I' for Inactive)
REMARK    5  A    between atoms: CA   and  CB  
REMARK    6  A    between atoms: CB   and  CG  
REMARK    7  A    between atoms: CG   and  CD  
ROOT
ATOM     14  CA  GLU D 570     -18.033  -6.348 -13.375  1.00 32.92     0.160 C 
ENDROOT
BRANCH  14  15
ATOM     15  CB  GLU D 570     -19.500  -6.345 -13.794  1.00 32.92     0.043 C 
BRANCH  15  16
ATOM     16  CG  GLU D 570     -20.441  -5.527 -12.986  1.00 32.92     0.100 C 
BRANCH  16  17
ATOM     17  CD  GLU D 570     -21.712  -5.186 -13.728  1.00 32.92     0.185 C 
ATOM     18  OE1 GLU D 570     -22.105  -5.945 -14.635  1.00 32.92    -0.647 OA
ATOM     19  OE2 GLU D 570     -22.313  -4.141 -13.410  1.00 32.92    -0.647 OA
ENDBRANCH  16  17
ENDBRANCH  15  16
ENDBRANCH  14  15
END_RES GLU D 570
ENDMDL
MODEL 4
REMARK VINA RESULT:      -5.3      2.271      3.016
REMARK  10 active torsions:
REMARK  status: ('A' for Active; 'I' for Inactive)
REMARK    1  A    between atoms: C_2  and  C_3 
REMARK    2  A    between atoms: C_3  and  C_4 
REMARK    3  A    between atoms: C_4  and  C_5 
REMARK    4  A    between atoms: C_5  and  C_6 
REMARK    5  A    between atoms: C_6  and  C_7 
REMARK    6  A    between atoms: C_7  and  C_8 
REMARK    7  A    between atoms: C_8  and  C_9 
REMARK    8  A    between atoms: C_9  and  C_10 
REMARK    9  A    between atoms: C_10  and  C_11 
REMARK   10  A    between atoms: C_11  and  C_12 
ROOT
HETATM    1  C   UNL     1     -20.869  -6.977  -5.150  1.00  0.00     0.000 C 
ENDROOT
BRANCH   1   2
HETATM    2  C   UNL     1     -21.287  -5.547  -5.449  1.00  0.00     0.000 C 
BRANCH   2   3
HETATM    3  C   UNL     1     -20.070  -4.703  -5.798  1.00  0.00     0.000 C 
BRANCH   3   4
HETATM    4  C   UNL     1     -19.516  -5.114  -7.154  1.00  0.00     0.000 C 
BRANCH   4   5
HETATM    5  C   UNL     1     -19.725  -3.999  -8.171  1.00  0.00    -0.000 C 
BRANCH   5   6
HETATM    6  C   UNL     1     -20.601  -4.475  -9.323  1.00  0.00    -0.005 C 
HETATM    7  C   UNL     1     -22.061  -4.176  -9.042  1.00  0.00     0.005 C 
ENDBRANCH   5   6
ENDBRANCH   4   5
ENDBRANCH   3   4
ENDBRANCH   2   3
ENDBRANCH   1   2
BRANCH   1   8
HETATM    8  C   UNL     1     -21.398  -7.406  -3.791  1.00  0.00     0.000 C 
BRANCH   8   9
HETATM    9  C   UNL     1     -21.578  -6.194  -2.892  1.00  0.00     0.000 C 
BRANCH   9  10
HETATM   10  C   UNL     1     -22.153  -6.614  -1.548  1.00  0.00     0.000 C 
BRANCH  10  11
HETATM   11  C   UNL     1     -21.410  -7.831  -1.015  1.00  0.00    -0.000 C 
BRANCH  11  12
HETATM   12  C   UNL     1     -21.758  -8.077   0.448  1.00  0.00    -0.005 C 
HETATM   13  C   UNL     1     -23.266  -8.144   0.636  1.00  0.00     0.005 C 
ENDBRANCH  11  12
ENDBRANCH  10  11
ENDBRANCH   9  10
ENDBRANCH   8   9
ENDBRANCH   1   8
TORSDOF 10
BEGIN_RES ARG D 557
REMARK  4 active torsions:
REMARK  status: ('A' for Active; 'I' for Inactive)
REMARK    1  A    between atoms: CA   and  CB  
REMARK    2  A    between atoms: CB   and  CG  
REMARK    3  A    between atoms: CG   and  CD  
REMARK    4  A    between atoms: CD   and  NE  
REMARK       I    between atoms: NE   and  CZ  
REMARK       I    between atoms: CZ   and  NH1 
REMARK       I    between atoms: CZ   and  NH2 
ROOT
ATOM      1  CA  ARG D 557     -26.217   2.705 -17.014  1.00 35.49     0.159 C 
ENDROOT
BRANCH   1   2
ATOM      2  CB  ARG D 557     -26.789   1.319 -17.183  1.00 35.49     0.034 C 
BRANCH   2   3
ATOM      3  CG  ARG D 557     -28.234   1.225 -17.424  1.00 35.49     0.027 C 
BRANCH   3   4
ATOM      4  CD  ARG D 557     -28.901   0.286 -16.494  1.00 35.49     0.116 C 
BRANCH   4   5
ATOM      5  NE  ARG D 557     -29.295  -0.935 -17.146  1.00 35.49    -0.212 N 
ATOM      6  CZ  ARG D 557     -28.680  -2.092 -17.045  1.00 35.49     0.666 C 
ATOM      7  NH1 ARG D 557     -27.589  -2.255 -16.319  1.00 35.49    -0.235 N 
ATOM      8  NH2 ARG D 557     -29.189  -3.101 -17.691  1.00 35.49    -0.235 N 
ATOM      9  HH  ARG D 557     -27.238  -1.606 -15.885  1.00 35.49     0.174 HD
ATOM     10  HH  ARG D 557     -27.233  -3.034 -16.289  1.00 35.49     0.174 HD
ATOM     11  HH  ARG D 557     -29.898  -2.968 -18.146  1.00 35.49     0.174 HD
ATOM     12  HH  ARG D 557     -28.823  -3.864 -17.647  1.00 35.49     0.174 HD
ATOM     13  HE  ARG D 557     -29.946  -0.904 -17.692  1.00 35.49     0.178 HD
ENDBRANCH   4   5
ENDBRANCH   3   4
ENDBRANCH   2   3
ENDBRANCH   1   2
END_RES ARG D 557
BEGIN_RES GLU D 570
REMARK  3 active torsions:
REMARK  status: ('A' for Active; 'I' for Inactive)
REMARK    5  A    between atoms: CA   and  CB  
REMARK    6  A    between atoms: CB   and  CG  
REMARK    7  A    between atoms: CG   and  CD  
ROOT
ATOM     14  CA  GLU D 570     -18.033  -6.348 -13.375  1.00 32.92     0.160 C 
ENDROOT
BRANCH  14  15
ATOM     15  CB  GLU D 570     -19.500  -6.345 -13.794  1.00 32.92     0.043 C 
BRANCH  15  16
ATOM     16  CG  GLU D 570     -20.453  -5.583 -12.946  1.00 32.92     0.100 C 
BRANCH  16  17
ATOM     17  CD  GLU D 570     -21.698  -5.162 -13.690  1.00 32.92     0.185 C 
ATOM     18  OE1 GLU D 570     -22.740  -4.933 -13.046  1.00 32.92    -0.647 OA
ATOM     19  OE2 GLU D 570     -21.636  -5.076 -14.932  1.00 32.92    -0.647 OA
ENDBRANCH  16  17
ENDBRANCH  15  16
ENDBRANCH  14  15
END_RES GLU D 570
ENDMDL
MODEL 5
REMARK VINA RESULT:      -5.3      2.227      5.905
REMARK  10 active torsions:
REMARK  status: ('A' for Active; 'I' for Inactive)
REMARK    1  A    between atoms: C_2  and  C_3 
REMARK    2  A    between atoms: C_3  and  C_4 
REMARK    3  A    between atoms: C_4  and  C_5 
REMARK    4  A    between atoms: C_5  and  C_6 
REMARK    5  A    between atoms: C_6  and  C_7 
REMARK    6  A    between atoms: C_7  and  C_8 
REMARK    7  A    between atoms: C_8  and  C_9 
REMARK    8  A    between atoms: C_9  and  C_10 
REMARK    9  A    between atoms: C_10  and  C_11 
REMARK   10  A    between atoms: C_11  and  C_12 
ROOT
HETATM    1  C   UNL     1     -21.172  -6.514  -5.835  1.00  0.00     0.000 C 
ENDROOT
BRANCH   1   2
HETATM    2  C   UNL     1     -22.027  -6.914  -4.644  1.00  0.00     0.000 C 
BRANCH   2   3
HETATM    3  C   UNL     1     -21.490  -6.277  -3.372  1.00  0.00     0.000 C 
BRANCH   3   4
HETATM    4  C   UNL     1     -21.520  -7.278  -2.227  1.00  0.00     0.000 C 
BRANCH   4   5
HETATM    5  C   UNL     1     -22.295  -6.709  -1.046  1.00  0.00    -0.000 C 
BRANCH   5   6
HETATM    6  C   UNL     1     -22.789  -7.825  -0.135  1.00  0.00    -0.005 C 
HETATM    7  C   UNL     1     -21.759  -8.136   0.935  1.00  0.00     0.005 C 
ENDBRANCH   5   6
ENDBRANCH   4   5
ENDBRANCH   3   4
ENDBRANCH   2   3
ENDBRANCH   1   2
BRANCH   1   8
HETATM    8  C   UNL     1     -20.338  -5.289  -5.496  1.00  0.00     0.000 C 
BRANCH   8   9
HETATM    9  C   UNL     1     -19.714  -4.714  -6.757  1.00  0.00     0.000 C 
BRANCH   9  10
HETATM   10  C   UNL     1     -20.703  -3.800  -7.465  1.00  0.00     0.000 C 
BRANCH  10  11
HETATM   11  C   UNL     1     -20.797  -4.168  -8.939  1.00  0.00    -0.000 C 
BRANCH  11  12
HETATM   12  C   UNL     1     -22.177  -4.726  -9.267  1.00  0.00    -0.005 C 
HETATM   13  C   UNL     1     -23.229  -4.134  -8.340  1.00  0.00     0.005 C 
ENDBRANCH  11  12
ENDBRANCH  10  11
ENDBRANCH   9  10
ENDBRANCH   8   9
ENDBRANCH   1   8
TORSDOF 10
BEGIN_RES ARG D 557
REMARK  4 active torsions:
REMARK  status: ('A' for Active; 'I' for Inactive)
REMARK    1  A    between atoms: CA   and  CB  
REMARK    2  A    between atoms: CB   and  CG  
REMARK    3  A    between atoms: CG   and  CD  
REMARK    4  A    between atoms: CD   and  NE  
REMARK       I    between atoms: NE   and  CZ  
REMARK       I    between atoms: CZ   and  NH1 
REMARK       I    between atoms: CZ   and  NH2 
ROOT
ATOM      1  CA  ARG D 557     -26.217   2.705 -17.014  1.00 35.49     0.159 C 
ENDROOT
BRANCH   1   2
ATOM      2  CB  ARG D 557     -26.789   1.319 -17.183  1.00 35.49     0.034 C 
BRANCH   2   3
ATOM      3  CG  ARG D 557     -28.230   1.227 -17.449  1.00 35.49     0.027 C 
BRANCH   3   4
ATOM      4  CD  ARG D 557     -28.920   0.317 -16.507  1.00 35.49     0.116 C 
BRANCH   4   5
ATOM      5  NE  ARG D 557     -29.307  -0.920 -17.132  1.00 35.49    -0.212 N 
ATOM      6  CZ  ARG D 557     -28.668  -2.065 -17.032  1.00 35.49     0.666 C 
ATOM      7  NH1 ARG D 557     -27.557  -2.197 -16.332  1.00 35.49    -0.235 N 
ATOM      8  NH2 ARG D 557     -29.175  -3.091 -17.651  1.00 35.49    -0.235 N 
ATOM      9  HH  ARG D 557     -27.207  -1.535 -15.915  1.00 35.49     0.174 HD
ATOM     10  HH  ARG D 557     -27.185  -2.969 -16.301  1.00 35.49     0.174 HD
ATOM     11  HH  ARG D 557     -29.897  -2.978 -18.089  1.00 35.49     0.174 HD
ATOM     12  HH  ARG D 557     -28.793  -3.847 -17.606  1.00 35.49     0.174 HD
ATOM     13  HE  ARG D 557     -29.972  -0.909 -17.662  1.00 35.49     0.178 HD
ENDBRANCH   4   5
ENDBRANCH   3   4
ENDBRANCH   2   3
ENDBRANCH   1   2
END_RES ARG D 557
BEGIN_RES GLU D 570
REMARK  3 active torsions:
REMARK  status: ('A' for Active; 'I' for Inactive)
REMARK    5  A    between atoms: CA   and  CB  
REMARK    6  A    between atoms: CB   and  CG  
REMARK    7  A    between atoms: CG   and  CD  
ROOT
ATOM     14  CA  GLU D 570     -18.033  -6.348 -13.375  1.00 32.92     0.160 C 
ENDROOT
BRANCH  14  15
ATOM     15  CB  GLU D 570     -19.500  -6.345 -13.794  1.00 32.92     0.043 C 
BRANCH  15  16
ATOM     16  CG  GLU D 570     -20.456  -5.602 -12.933  1.00 32.92     0.100 C 
BRANCH  16  17
ATOM     17  CD  GLU D 570     -21.688  -5.144 -13.680  1.00 32.92     0.185 C 
ATOM     18  OE1 GLU D 570     -21.695  -5.196 -14.924  1.00 32.92    -0.647 OA
ATOM     19  OE2 GLU D 570     -22.648  -4.712 -13.013  1.00 32.92    -0.647 OA
ENDBRANCH  16  17
ENDBRANCH  15  16
ENDBRANCH  14  15
END_RES GLU D 570
ENDMDL
MODEL 6
REMARK VINA RESULT:      -5.3      1.627      2.996
REMARK  10 active torsions:
REMARK  status: ('A' for Active; 'I' for Inactive)
REMARK    1  A    between atoms: C_2  and  C_3 
REMARK    2  A    between atoms: C_3  and  C_4 
REMARK    3  A    between atoms: C_4  and  C_5 
REMARK    4  A    between atoms: C_5  and  C_6 
REMARK    5  A    between atoms: C_6  and  C_7 
REMARK    6  A    between atoms: C_7  and  C_8 
REMARK    7  A    between atoms: C_8  and  C_9 
REMARK    8  A    between atoms: C_9  and  C_10 
REMARK    9  A    between atoms: C_10  and  C_11 
REMARK   10  A    between atoms: C_11  and  C_12 
ROOT
HETATM    1  C   UNL     1     -21.528  -6.292  -2.733  1.00  0.00     0.000 C 
ENDROOT
BRANCH   1   2
HETATM    2  C   UNL     1     -21.877  -6.713  -4.151  1.00  0.00     0.000 C 
BRANCH   2   3
HETATM    3  C   UNL     1     -20.611  -7.008  -4.941  1.00  0.00     0.000 C 
BRANCH   3   4
HETATM    4  C   UNL     1     -20.604  -6.216  -6.240  1.00  0.00     0.000 C 
BRANCH   4   5
HETATM    5  C   UNL     1     -20.360  -4.739  -5.959  1.00  0.00    -0.000 C 
BRANCH   5   6
HETATM    6  C   UNL     1     -21.043  -3.869  -7.006  1.00  0.00    -0.005 C 
HETATM    7  C   UNL     1     -22.423  -4.409  -7.332  1.00  0.00     0.005 C 
ENDBRANCH   5   6
ENDBRANCH   4   5
ENDBRANCH   3   4
ENDBRANCH   2   3
ENDBRANCH   1   2
BRANCH   1   8
HETATM    8  C   UNL     1     -21.680  -7.469  -1.783  1.00  0.00     0.000 C 
BRANCH   8   9
HETATM    9  C   UNL     1     -22.420  -7.038  -0.528  1.00  0.00     0.000 C 
BRANCH   9  10
HETATM   10  C   UNL     1     -22.716  -8.244   0.351  1.00  0.00     0.000 C 
BRANCH  10  11
HETATM   11  C   UNL     1     -22.785  -9.507  -0.495  1.00  0.00    -0.000 C 
BRANCH  11  12
HETATM   12  C   UNL     1     -23.934 -10.399  -0.040  1.00  0.00    -0.005 C 
HETATM   13  C   UNL     1     -23.738 -11.823  -0.538  1.00  0.00     0.005 C 
ENDBRANCH  11  12
ENDBRANCH  10  11
ENDBRANCH   9  10
ENDBRANCH   8   9
ENDBRANCH   1   8
TORSDOF 10
BEGIN_RES ARG D 557
REMARK  4 active torsions:
REMARK  status: ('A' for Active; 'I' for Inactive)
REMARK    1  A    between atoms: CA   and  CB  
REMARK    2  A    between atoms: CB   and  CG  
REMARK    3  A    between atoms: CG   and  CD  
REMARK    4  A    between atoms: CD   and  NE  
REMARK       I    between atoms: NE   and  CZ  
REMARK       I    between atoms: CZ   and  NH1 
REMARK       I    between atoms: CZ   and  NH2 
ROOT
ATOM      1  CA  ARG D 557     -26.217   2.705 -17.014  1.00 35.49     0.159 C 
ENDROOT
BRANCH   1   2
ATOM      2  CB  ARG D 557     -26.789   1.319 -17.183  1.00 35.49     0.034 C 
BRANCH   2   3
ATOM      3  CG  ARG D 557     -25.835   0.203 -17.161  1.00 35.49     0.027 C 
BRANCH   3   4
ATOM      4  CD  ARG D 557     -24.760   0.400 -16.162  1.00 35.49     0.116 C 
BRANCH   4   5
ATOM      5  NE  ARG D 557     -24.925  -0.450 -15.012  1.00 35.49    -0.212 N 
ATOM      6  CZ  ARG D 557     -24.121  -1.427 -14.658  1.00 35.49     0.666 C 
ATOM      7  NH1 ARG D 557     -23.047  -1.749 -15.354  1.00 35.49    -0.235 N 
ATOM      8  NH2 ARG D 557     -24.414  -2.082 -13.572  1.00 35.49    -0.235 N 
ATOM      9  HH  ARG D 557     -22.833  -1.331 -16.071  1.00 35.49     0.174 HD
ATOM     10  HH  ARG D 557     -22.558  -2.395 -15.073  1.00 35.49     0.174 HD
ATOM     11  HH  ARG D 557     -25.110  -1.847 -13.138  1.00 35.49     0.174 HD
ATOM     12  HH  ARG D 557     -23.917  -2.717 -13.309  1.00 35.49     0.174 HD
ATOM     13  HE  ARG D 557     -25.631  -0.360 -14.547  1.00 35.49     0.178 HD
ENDBRANCH   4   5
ENDBRANCH   3   4
ENDBRANCH   2   3
ENDBRANCH   1   2
END_RES ARG D 557
BEGIN_RES GLU D 570
REMARK  3 active torsions:
REMARK  status: ('A' for Active; 'I' for Inactive)
REMARK    5  A    between atoms: CA   and  CB  
REMARK    6  A    between atoms: CB   and  CG  
REMARK    7  A    between atoms: CG   and  CD  
ROOT
ATOM     14  CA  GLU D 570     -18.033  -6.348 -13.375  1.00 32.92     0.160 C 
ENDROOT
BRANCH  14  15
ATOM     15  CB  GLU D 570     -19.500  -6.345 -13.794  1.00 32.92     0.043 C 
BRANCH  15  16
ATOM     16  CG  GLU D 570     -20.444  -5.542 -12.975  1.00 32.92     0.100 C 
BRANCH  16  17
ATOM     17  CD  GLU D 570     -21.629  -5.037 -13.766  1.00 32.92     0.185 C 
ATOM     18  OE1 GLU D 570     -21.837  -5.499 -14.905  1.00 32.92    -0.647 OA
ATOM     19  OE2 GLU D 570     -22.346  -4.159 -13.249  1.00 32.92    -0.647 OA
ENDBRANCH  16  17
ENDBRANCH  15  16
ENDBRANCH  14  15
END_RES GLU D 570
ENDMDL
MODEL 7
REMARK VINA RESULT:      -5.1      1.532      5.774
REMARK  10 active torsions:
REMARK  status: ('A' for Active; 'I' for Inactive)
REMARK    1  A    between atoms: C_2  and  C_3 
REMARK    2  A    between atoms: C_3  and  C_4 
REMARK    3  A    between atoms: C_4  and  C_5 
REMARK    4  A    between atoms: C_5  and  C_6 
REMARK    5  A    between atoms: C_6  and  C_7 
REMARK    6  A    between atoms: C_7  and  C_8 
REMARK    7  A    between atoms: C_8  and  C_9 
REMARK    8  A    between atoms: C_9  and  C_10 
REMARK    9  A    between atoms: C_10  and  C_11 
REMARK   10  A    between atoms: C_11  and  C_12 
ROOT
HETATM    1  C   UNL     1     -21.616  -6.307  -2.658  1.00  0.00     0.000 C 
ENDROOT
BRANCH   1   2
HETATM    2  C   UNL     1     -22.358  -6.452  -1.340  1.00  0.00     0.000 C 
BRANCH   2   3
HETATM    3  C   UNL     1     -21.827  -7.648  -0.564  1.00  0.00     0.000 C 
BRANCH   3   4
HETATM    4  C   UNL     1     -22.937  -8.270   0.269  1.00  0.00     0.000 C 
BRANCH   4   5
HETATM    5  C   UNL     1     -23.112  -9.739  -0.095  1.00  0.00    -0.000 C 
BRANCH   5   6
HETATM    6  C   UNL     1     -21.779 -10.360  -0.492  1.00  0.00    -0.005 C 
HETATM    7  C   UNL     1     -21.228 -11.209   0.638  1.00  0.00     0.005 C 
ENDBRANCH   5   6
ENDBRANCH   4   5
ENDBRANCH   3   4
ENDBRANCH   2   3
ENDBRANCH   1   2
BRANCH   1   8
HETATM    8  C   UNL     1     -21.315  -7.676  -3.246  1.00  0.00     0.000 C 
BRANCH   8   9
HETATM    9  C   UNL     1     -21.054  -7.560  -4.739  1.00  0.00     0.000 C 
BRANCH   9  10
HETATM   10  C   UNL     1     -21.867  -6.419  -5.330  1.00  0.00     0.000 C 
BRANCH  10  11
HETATM   11  C   UNL     1     -21.191  -5.886  -6.585  1.00  0.00    -0.000 C 
BRANCH  11  12
HETATM   12  C   UNL     1     -20.247  -4.740  -6.243  1.00  0.00    -0.005 C 
HETATM   13  C   UNL     1     -19.158  -4.610  -7.297  1.00  0.00     0.005 C 
ENDBRANCH  11  12
ENDBRANCH  10  11
ENDBRANCH   9  10
ENDBRANCH   8   9
ENDBRANCH   1   8
TORSDOF 10
BEGIN_RES ARG D 557
REMARK  4 active torsions:
REMARK  status: ('A' for Active; 'I' for Inactive)
REMARK    1  A    between atoms: CA   and  CB  
REMARK    2  A    between atoms: CB   and  CG  
REMARK    3  A    between atoms: CG   and  CD  
REMARK    4  A    between atoms: CD   and  NE  
REMARK       I    between atoms: NE   and  CZ  
REMARK       I    between atoms: CZ   and  NH1 
REMARK       I    between atoms: CZ   and  NH2 
ROOT
ATOM      1  CA  ARG D 557     -26.217   2.705 -17.014  1.00 35.49     0.159 C 
ENDROOT
BRANCH   1   2
ATOM      2  CB  ARG D 557     -26.789   1.319 -17.183  1.00 35.49     0.034 C 
BRANCH   2   3
ATOM      3  CG  ARG D 557     -25.832   0.206 -17.189  1.00 35.49     0.027 C 
BRANCH   3   4
ATOM      4  CD  ARG D 557     -24.752   0.385 -16.192  1.00 35.49     0.116 C 
BRANCH   4   5
ATOM      5  NE  ARG D 557     -24.937  -0.453 -15.036  1.00 35.49    -0.212 N 
ATOM      6  CZ  ARG D 557     -24.144  -1.433 -14.664  1.00 35.49     0.666 C 
ATOM      7  NH1 ARG D 557     -23.065  -1.770 -15.345  1.00 35.49    -0.235 N 
ATOM      8  NH2 ARG D 557     -24.454  -2.075 -13.575  1.00 35.49    -0.235 N 
ATOM      9  HH  ARG D 557     -22.841  -1.360 -16.064  1.00 35.49     0.174 HD
ATOM     10  HH  ARG D 557     -22.584  -2.417 -15.053  1.00 35.49     0.174 HD
ATOM     11  HH  ARG D 557     -25.152  -1.831 -13.151  1.00 35.49     0.174 HD
ATOM     12  HH  ARG D 557     -23.964  -2.711 -13.301  1.00 35.49     0.174 HD
ATOM     13  HE  ARG D 557     -25.647  -0.353 -14.579  1.00 35.49     0.178 HD
ENDBRANCH   4   5
ENDBRANCH   3   4
ENDBRANCH   2   3
ENDBRANCH   1   2
END_RES ARG D 557
BEGIN_RES GLU D 570
REMARK  3 active torsions:
REMARK  status: ('A' for Active; 'I' for Inactive)
REMARK    5  A    between atoms: CA   and  CB  
REMARK    6  A    between atoms: CB   and  CG  
REMARK    7  A    between atoms: CG   and  CD  
ROOT
ATOM     14  CA  GLU D 570     -18.033  -6.348 -13.375  1.00 32.92     0.160 C 
ENDROOT
BRANCH  14  15
ATOM     15  CB  GLU D 570     -19.500  -6.345 -13.794  1.00 32.92     0.043 C 
BRANCH  15  16
ATOM     16  CG  GLU D 570     -20.443  -5.536 -12.980  1.00 32.92     0.100 C 
BRANCH  16  17
ATOM     17  CD  GLU D 570     -21.720  -5.202 -13.715  1.00 32.92     0.185 C 
ATOM     18  OE1 GLU D 570     -22.085  -5.932 -14.656  1.00 32.92    -0.647 OA
ATOM     19  OE2 GLU D 570     -22.353  -4.190 -13.356  1.00 32.92    -0.647 OA
ENDBRANCH  16  17
ENDBRANCH  15  16
ENDBRANCH  14  15
END_RES GLU D 570
ENDMDL
MODEL 8
REMARK VINA RESULT:      -5.0      2.532      3.882
REMARK  10 active torsions:
REMARK  status: ('A' for Active; 'I' for Inactive)
REMARK    1  A    between atoms: C_2  and  C_3 
REMARK    2  A    between atoms: C_3  and  C_4 
REMARK    3  A    between atoms: C_4  and  C_5 
REMARK    4  A    between atoms: C_5  and  C_6 
REMARK    5  A    between atoms: C_6  and  C_7 
REMARK    6  A    between atoms: C_7  and  C_8 
REMARK    7  A    between atoms: C_8  and  C_9 
REMARK    8  A    between atoms: C_9  and  C_10 
REMARK    9  A    between atoms: C_10  and  C_11 
REMARK   10  A    between atoms: C_11  and  C_12 
ROOT
HETATM    1  C   UNL     1     -20.259  -4.617 -10.574  1.00  0.00     0.000 C 
ENDROOT
BRANCH   1   2
HETATM    2  C   UNL     1     -20.775  -3.271 -11.055  1.00  0.00     0.000 C 
BRANCH   2   3
HETATM    3  C   UNL     1     -21.680  -3.455 -12.264  1.00  0.00     0.000 C 
BRANCH   3   4
HETATM    4  C   UNL     1     -22.574  -4.672 -12.073  1.00  0.00     0.000 C 
BRANCH   4   5
HETATM    5  C   UNL     1     -23.981  -4.238 -11.683  1.00  0.00    -0.000 C 
BRANCH   5   6
HETATM    6  C   UNL     1     -24.257  -4.548 -10.218  1.00  0.00    -0.005 C 
HETATM    7  C   UNL     1     -24.604  -3.281  -9.460  1.00  0.00     0.005 C 
ENDBRANCH   5   6
ENDBRANCH   4   5
ENDBRANCH   3   4
ENDBRANCH   2   3
ENDBRANCH   1   2
BRANCH   1   8
HETATM    8  C   UNL     1     -19.977  -4.569  -9.081  1.00  0.00     0.000 C 
BRANCH   8   9
HETATM    9  C   UNL     1     -21.282  -4.547  -8.301  1.00  0.00     0.000 C 
BRANCH   9  10
HETATM   10  C   UNL     1     -21.045  -4.030  -6.890  1.00  0.00     0.000 C 
BRANCH  10  11
HETATM   11  C   UNL     1     -19.885  -4.774  -6.245  1.00  0.00    -0.000 C 
BRANCH  11  12
HETATM   12  C   UNL     1     -20.341  -6.129  -5.716  1.00  0.00    -0.005 C 
HETATM   13  C   UNL     1     -21.218  -5.956  -4.485  1.00  0.00     0.005 C 
ENDBRANCH  11  12
ENDBRANCH  10  11
ENDBRANCH   9  10
ENDBRANCH   8   9
ENDBRANCH   1   8
TORSDOF 10
BEGIN_RES ARG D 557
REMARK  4 active torsions:
REMARK  status: ('A' for Active; 'I' for Inactive)
REMARK    1  A    between atoms: CA   and  CB  
REMARK    2  A    between atoms: CB   and  CG  
REMARK    3  A    between atoms: CG   and  CD  
REMARK    4  A    between atoms: CD   and  NE  
REMARK       I    between atoms: NE   and  CZ  
REMARK       I    between atoms: CZ   and  NH1 
REMARK       I    between atoms: CZ   and  NH2 
ROOT
ATOM      1  CA  ARG D 557     -26.217   2.705 -17.014  1.00 35.49     0.159 C 
ENDROOT
BRANCH   1   2
ATOM      2  CB  ARG D 557     -26.789   1.319 -17.183  1.00 35.49     0.034 C 
BRANCH   2   3
ATOM      3  CG  ARG D 557     -28.229   1.227 -17.455  1.00 35.49     0.027 C 
BRANCH   3   4
ATOM      4  CD  ARG D 557     -28.908   0.251 -16.572  1.00 35.49     0.116 C 
BRANCH   4   5
ATOM      5  NE  ARG D 557     -28.041  -0.834 -16.194  1.00 35.49    -0.212 N 
ATOM      6  CZ  ARG D 557     -28.147  -2.079 -16.601  1.00 35.49     0.666 C 
ATOM      7  NH1 ARG D 557     -29.104  -2.479 -17.418  1.00 35.49    -0.235 N 
ATOM      8  NH2 ARG D 557     -27.258  -2.928 -16.173  1.00 35.49    -0.235 N 
ATOM      9  HH  ARG D 557     -29.698  -1.937 -17.714  1.00 35.49     0.174 HD
ATOM     10  HH  ARG D 557     -29.121  -3.303 -17.652  1.00 35.49     0.174 HD
ATOM     11  HH  ARG D 557     -26.648  -2.639 -15.653  1.00 35.49     0.174 HD
ATOM     12  HH  ARG D 557     -27.292  -3.739 -16.417  1.00 35.49     0.174 HD
ATOM     13  HE  ARG D 557     -27.440  -0.680 -15.613  1.00 35.49     0.178 HD
ENDBRANCH   4   5
ENDBRANCH   3   4
ENDBRANCH   2   3
ENDBRANCH   1   2
END_RES ARG D 557
BEGIN_RES GLU D 570
REMARK  3 active torsions:
REMARK  status: ('A' for Active; 'I' for Inactive)
REMARK    5  A    between atoms: CA   and  CB  
REMARK    6  A    between atoms: CB   and  CG  
REMARK    7  A    between atoms: CG   and  CD  
ROOT
ATOM     14  CA  GLU D 570     -18.033  -6.348 -13.375  1.00 32.92     0.160 C 
ENDROOT
BRANCH  14  15
ATOM     15  CB  GLU D 570     -19.500  -6.345 -13.794  1.00 32.92     0.043 C 
BRANCH  15  16
ATOM     16  CG  GLU D 570     -19.812  -5.945 -15.191  1.00 32.92     0.100 C 
BRANCH  16  17
ATOM     17  CD  GLU D 570     -21.294  -5.795 -15.443  1.00 32.92     0.185 C 
ATOM     18  OE1 GLU D 570     -21.695  -4.849 -16.148  1.00 32.92    -0.647 OA
ATOM     19  OE2 GLU D 570     -22.064  -6.623 -14.917  1.00 32.92    -0.647 OA
ENDBRANCH  16  17
ENDBRANCH  15  16
ENDBRANCH  14  15
END_RES GLU D 570
ENDMDL
MODEL 9
REMARK VINA RESULT:      -5.0      1.745      2.110
REMARK  10 active torsions:
REMARK  status: ('A' for Active; 'I' for Inactive)
REMARK    1  A    between atoms: C_2  and  C_3 
REMARK    2  A    between atoms: C_3  and  C_4 
REMARK    3  A    between atoms: C_4  and  C_5 
REMARK    4  A    between atoms: C_5  and  C_6 
REMARK    5  A    between atoms: C_6  and  C_7 
REMARK    6  A    between atoms: C_7  and  C_8 
REMARK    7  A    between atoms: C_8  and  C_9 
REMARK    8  A    between atoms: C_9  and  C_10 
REMARK    9  A    between atoms: C_10  and  C_11 
REMARK   10  A    between atoms: C_11  and  C_12 
ROOT
HETATM    1  C   UNL     1     -20.369  -4.610  -5.967  1.00  0.00     0.000 C 
ENDROOT
BRANCH   1   2
HETATM    2  C   UNL     1     -20.833  -3.989  -7.274  1.00  0.00     0.000 C 
BRANCH   2   3
HETATM    3  C   UNL     1     -19.804  -4.230  -8.367  1.00  0.00     0.000 C 
BRANCH   3   4
HETATM    4  C   UNL     1     -20.476  -4.237  -9.732  1.00  0.00     0.000 C 
BRANCH   4   5
HETATM    5  C   UNL     1     -21.980  -4.429  -9.580  1.00  0.00    -0.000 C 
BRANCH   5   6
HETATM    6  C   UNL     1     -22.741  -3.497 -10.513  1.00  0.00    -0.005 C 
HETATM    7  C   UNL     1     -21.817  -2.934 -11.576  1.00  0.00     0.005 C 
ENDBRANCH   5   6
ENDBRANCH   4   5
ENDBRANCH   3   4
ENDBRANCH   2   3
ENDBRANCH   1   2
BRANCH   1   8
HETATM    8  C   UNL     1     -20.555  -6.118  -6.006  1.00  0.00     0.000 C 
BRANCH   8   9
HETATM    9  C   UNL     1     -21.614  -6.543  -5.002  1.00  0.00     0.000 C 
BRANCH   9  10
HETATM   10  C   UNL     1     -21.242  -6.063  -3.608  1.00  0.00     0.000 C 
BRANCH  10  11
HETATM   11  C   UNL     1     -21.582  -7.129  -2.576  1.00  0.00    -0.000 C 
BRANCH  11  12
HETATM   12  C   UNL     1     -22.297  -6.512  -1.380  1.00  0.00    -0.005 C 
HETATM   13  C   UNL     1     -22.437  -7.528  -0.256  1.00  0.00     0.005 C 
ENDBRANCH  11  12
ENDBRANCH  10  11
ENDBRANCH   9  10
ENDBRANCH   8   9
ENDBRANCH   1   8
TORSDOF 10
BEGIN_RES ARG D 557
REMARK  4 active torsions:
REMARK  status: ('A' for Active; 'I' for Inactive)
REMARK    1  A    between atoms: CA   and  CB  
REMARK    2  A    between atoms: CB   and  CG  
REMARK    3  A    between atoms: CG   and  CD  
REMARK    4  A    between atoms: CD   and  NE  
REMARK       I    between atoms: NE   and  CZ  
REMARK       I    between atoms: CZ   and  NH1 
REMARK       I    between atoms: CZ   and  NH2 
ROOT
ATOM      1  CA  ARG D 557     -26.217   2.705 -17.014  1.00 35.49     0.159 C 
ENDROOT
BRANCH   1   2
ATOM      2  CB  ARG D 557     -26.789   1.319 -17.183  1.00 35.49     0.034 C 
BRANCH   2   3
ATOM      3  CG  ARG D 557     -25.934   0.197 -16.776  1.00 35.49     0.027 C 
BRANCH   3   4
ATOM      4  CD  ARG D 557     -26.691  -0.863 -16.072  1.00 35.49     0.116 C 
BRANCH   4   5
ATOM      5  NE  ARG D 557     -25.955  -1.410 -14.963  1.00 35.49    -0.212 N 
ATOM      6  CZ  ARG D 557     -25.906  -2.678 -14.624  1.00 35.49     0.666 C 
ATOM      7  NH1 ARG D 557     -26.564  -3.614 -15.283  1.00 35.49    -0.235 N 
ATOM      8  NH2 ARG D 557     -25.169  -2.998 -13.600  1.00 35.49    -0.235 N 
ATOM      9  HH  ARG D 557     -27.053  -3.427 -15.961  1.00 35.49     0.174 HD
ATOM     10  HH  ARG D 557     -26.493  -4.426 -15.017  1.00 35.49     0.174 HD
ATOM     11  HH  ARG D 557     -24.750  -2.374 -13.198  1.00 35.49     0.174 HD
ATOM     12  HH  ARG D 557     -25.110  -3.807 -13.353  1.00 35.49     0.174 HD
ATOM     13  HE  ARG D 557     -25.560  -0.868 -14.440  1.00 35.49     0.178 HD
ENDBRANCH   4   5
ENDBRANCH   3   4
ENDBRANCH   2   3
ENDBRANCH   1   2
END_RES ARG D 557
BEGIN_RES GLU D 570
REMARK  3 active torsions:
REMARK  status: ('A' for Active; 'I' for Inactive)
REMARK    5  A    between atoms: CA   and  CB  
REMARK    6  A    between atoms: CB   and  CG  
REMARK    7  A    between atoms: CG   and  CD  
ROOT
ATOM     14  CA  GLU D 570     -18.033  -6.348 -13.375  1.00 32.92     0.160 C 
ENDROOT
BRANCH  14  15
ATOM     15  CB  GLU D 570     -19.500  -6.345 -13.794  1.00 32.92     0.043 C 
BRANCH  15  16
ATOM     16  CG  GLU D 570     -19.797  -6.223 -15.245  1.00 32.92     0.100 C 
BRANCH  16  17
ATOM     17  CD  GLU D 570     -20.722  -7.305 -15.750  1.00 32.92     0.185 C 
ATOM     18  OE1 GLU D 570     -20.591  -8.465 -15.315  1.00 32.92    -0.647 OA
ATOM     19  OE2 GLU D 570     -21.576  -6.993 -16.603  1.00 32.92    -0.647 OA
ENDBRANCH  16  17
ENDBRANCH  15  16
ENDBRANCH  14  15
END_RES GLU D 570
ENDMDL
