MODEL 1
REMARK VINA RESULT:      -3.3      0.000      0.000
REMARK WARNING: 32 MAX_TORS EXCEEDED!!!
REMARK  125 active torsions:
REMARK  status: ('A' for Active; 'I' for Inactive)
REMARK    1  A    between atoms: C_2  and  C_3 
REMARK    2  A    between atoms: C_3  and  C_4 
REMARK    3  A    between atoms: C_4  and  C_5 
REMARK    4  A    between atoms: C_5  and  C_6 
REMARK    5  A    between atoms: C_6  and  C_7 
REMARK    6  A    between atoms: C_7  and  C_8 
REMARK    7  A    between atoms: C_7  and  O_138 
REMARK    8  A    between atoms: C_8  and  C_9 
REMARK    9  A    between atoms: C_9  and  C_10 
REMARK   10  A    between atoms: C_10  and  C_11 
REMARK   11  A    between atoms: C_11  and  C_12 
REMARK   12  A    between atoms: C_12  and  C_13 
REMARK   13  A    between atoms: C_13  and  C_14 
REMARK   14  A    between atoms: C_14  and  C_15 
REMARK   15  A    between atoms: C_15  and  C_16 
REMARK   16  A    between atoms: C_16  and  C_17 
REMARK   17  A    between atoms: C_17  and  C_18 
REMARK   18  A    between atoms: C_18  and  O_20 
REMARK   19  A    between atoms: O_20  and  C_21 
REMARK   20  A    between atoms: C_21  and  C_22 
REMARK   21  A    between atoms: C_22  and  C_23 
REMARK   22  A    between atoms: C_22  and  C_93 
REMARK   23  A    between atoms: C_22  and  C_116 
REMARK   24  A    between atoms: C_23  and  O_24 
REMARK   25  A    between atoms: O_24  and  C_25 
REMARK   26  A    between atoms: C_25  and  C_26 
REMARK   27  A    between atoms: C_26  and  C_27 
REMARK   28  A    between atoms: C_26  and  C_49 
REMARK   29  A    between atoms: C_26  and  C_71 
REMARK   30  A    between atoms: C_27  and  O_28 
REMARK   31  A    between atoms: O_28  and  C_29 
REMARK   32  A    between atoms: C_29  and  C_31 
REMARK   33  A    between atoms: C_31  and  C_32 
REMARK   34  A    between atoms: C_32  and  C_33 
REMARK   35  A    between atoms: C_33  and  C_34 
REMARK   36  A    between atoms: C_34  and  C_35 
REMARK   37  A    between atoms: C_35  and  C_36 
REMARK   38  A    between atoms: C_36  and  C_37 
REMARK   39  A    between atoms: C_37  and  C_38 
REMARK   40  A    between atoms: C_38  and  C_39 
REMARK   41  A    between atoms: C_39  and  C_40 
REMARK   42  A    between atoms: C_40  and  C_41 
REMARK   43  A    between atoms: C_41  and  C_42 
REMARK   44  A    between atoms: C_41  and  O_48 
REMARK   45  A    between atoms: C_42  and  C_43 
REMARK   46  A    between atoms: C_43  and  C_44 
REMARK   47  A    between atoms: C_44  and  C_45 
REMARK   48  A    between atoms: C_45  and  C_46 
REMARK   49  A    between atoms: C_49  and  O_50 
REMARK   50  A    between atoms: O_50  and  C_51 
REMARK   51  A    between atoms: C_51  and  C_53 
REMARK   52  A    between atoms: C_53  and  C_54 
REMARK   53  A    between atoms: C_54  and  C_55 
REMARK   54  A    between atoms: C_55  and  C_56 
REMARK   55  A    between atoms: C_56  and  C_57 
REMARK   56  A    between atoms: C_57  and  C_58 
REMARK   57  A    between atoms: C_58  and  C_59 
REMARK   58  A    between atoms: C_59  and  C_60 
REMARK   59  A    between atoms: C_60  and  C_61 
REMARK   60  A    between atoms: C_61  and  C_62 
REMARK   61  A    between atoms: C_62  and  C_63 
REMARK   62  A    between atoms: C_63  and  C_64 
REMARK   63  A    between atoms: C_63  and  O_70 
REMARK   64  A    between atoms: C_64  and  C_65 
REMARK   65  A    between atoms: C_65  and  C_66 
REMARK   66  A    between atoms: C_66  and  C_67 
REMARK   67  A    between atoms: C_67  and  C_68 
REMARK   68  A    between atoms: C_71  and  O_72 
REMARK   69  A    between atoms: O_72  and  C_73 
REMARK   70  A    between atoms: C_73  and  C_75 
REMARK   71  A    between atoms: C_75  and  C_76 
REMARK   72  A    between atoms: C_76  and  C_77 
REMARK   73  A    between atoms: C_77  and  C_78 
REMARK   74  A    between atoms: C_78  and  C_79 
REMARK   75  A    between atoms: C_79  and  C_80 
REMARK   76  A    between atoms: C_80  and  C_81 
REMARK   77  A    between atoms: C_81  and  C_82 
REMARK   78  A    between atoms: C_82  and  C_83 
REMARK   79  A    between atoms: C_83  and  C_84 
REMARK   80  A    between atoms: C_84  and  C_85 
REMARK   81  A    between atoms: C_85  and  C_86 
REMARK   82  A    between atoms: C_85  and  O_92 
REMARK   83  A    between atoms: C_86  and  C_87 
REMARK   84  A    between atoms: C_87  and  C_88 
REMARK   85  A    between atoms: C_88  and  C_89 
REMARK   86  A    between atoms: C_89  and  C_90 
REMARK   87  A    between atoms: C_93  and  O_94 
REMARK   88  A    between atoms: O_94  and  C_95 
REMARK   89  A    between atoms: C_95  and  O_96 
REMARK   90  A    between atoms: C_95  and  C_98 
REMARK   91  A    between atoms: C_98  and  C_99 
REMARK   92  A    between atoms: C_99  and  C_100 
REMARK   93  A    between atoms: C_100  and  C_101 
REMARK   94  A    between atoms: C_101  and  C_102 
REMARK   95  A    between atoms: C_102  and  C_103 
REMARK   96  A    between atoms: C_103  and  C_104 
REMARK   97  A    between atoms: C_104  and  C_105 
REMARK   98  A    between atoms: C_105  and  C_106 
REMARK   99  A    between atoms: C_106  and  C_107 
REMARK  100  A    between atoms: C_107  and  C_108 
REMARK  101  A    between atoms: C_108  and  C_109 
REMARK  102  A    between atoms: C_108  and  O_115 
REMARK  103  A    between atoms: C_109  and  C_110 
REMARK  104  A    between atoms: C_110  and  C_111 
REMARK  105  A    between atoms: C_111  and  C_112 
REMARK  106  A    between atoms: C_112  and  C_113 
REMARK  107  A    between atoms: C_116  and  O_117 
REMARK  108  A    between atoms: O_117  and  C_118 
REMARK  109  A    between atoms: C_118  and  C_120 
REMARK  110  A    between atoms: C_120  and  C_121 
REMARK  111  A    between atoms: C_121  and  C_122 
REMARK  112  A    between atoms: C_122  and  C_123 
REMARK  113  A    between atoms: C_123  and  C_124 
REMARK  114  A    between atoms: C_124  and  C_125 
REMARK  115  A    between atoms: C_125  and  C_126 
REMARK  116  A    between atoms: C_126  and  C_127 
REMARK  117  A    between atoms: C_127  and  C_128 
REMARK  118  A    between atoms: C_128  and  C_129 
REMARK  119  A    between atoms: C_129  and  C_130 
REMARK  120  A    between atoms: C_130  and  C_131 
REMARK  121  A    between atoms: C_130  and  O_137 
REMARK  122  A    between atoms: C_131  and  C_132 
REMARK  123  A    between atoms: C_132  and  C_133 
REMARK  124  A    between atoms: C_133  and  C_134 
REMARK  125  A    between atoms: C_134  and  C_135 
ROOT
HETATM    1  C   UNL     1     -23.685  -5.222 -10.811  1.00  0.00     0.183 C 
ENDROOT
BRANCH   1   2
HETATM    2  C   UNL     1     -23.131  -4.441 -12.188  1.00  0.00     0.047 C 
BRANCH   2   3
HETATM    3  C   UNL     1     -24.326  -3.495 -12.597  1.00  0.00     0.194 C 
BRANCH   3   4
HETATM    4  O   UNL     1     -24.670  -3.737 -14.022  1.00  0.00    -0.320 OA
BRANCH   4   5
HETATM    5  C   UNL     1     -25.800  -3.241 -14.619  1.00  0.00     0.258 C 
HETATM    6  O   UNL     1     -26.245  -2.122 -14.417  1.00  0.00    -0.265 OA
BRANCH   5   7
HETATM    7  C   UNL     1     -26.461  -4.273 -15.552  1.00  0.00     0.111 C 
BRANCH   7   8
HETATM    8  C   UNL     1     -28.012  -4.373 -15.542  1.00  0.00     0.010 C 
BRANCH   8   9
HETATM    9  C   UNL     1     -28.593  -5.617 -14.720  1.00  0.00     0.000 C 
BRANCH   9  10
HETATM   10  C   UNL     1     -30.097  -5.562 -14.163  1.00  0.00     0.000 C 
BRANCH  10  11
HETATM   11  C   UNL     1     -30.819  -5.251 -12.669  1.00  0.00     0.000 C 
BRANCH  11  12
HETATM   12  C   UNL     1     -32.195  -4.475 -12.380  1.00  0.00     0.000 C 
BRANCH  12  13
HETATM   13  C   UNL     1     -33.079  -5.227 -11.401  1.00  0.00     0.000 C 
BRANCH  13  14
HETATM   14  C   UNL     1     -33.968  -4.280 -10.585  1.00  0.00     0.000 C 
BRANCH  14  15
HETATM   15  C   UNL     1     -33.595  -2.824 -10.828  1.00  0.00     0.002 C 
BRANCH  15  16
HETATM   16  C   UNL     1     -34.834  -1.954 -10.685  1.00  0.00     0.032 C 
BRANCH  16  17
HETATM   17  C   UNL     1     -35.119  -1.106 -11.904  1.00  0.00     0.118 C 
BRANCH  17  18
HETATM   18  C   UNL     1     -35.964   0.109 -11.528  1.00  0.00     0.032 C 
BRANCH  18  19
HETATM   19  C   UNL     1     -37.442  -0.248 -11.432  1.00  0.00     0.002 C 
BRANCH  19  20
HETATM   20  C   UNL     1     -37.961  -0.091 -10.019  1.00  0.00     0.000 C 
BRANCH  20  21
HETATM   21  C   UNL     1     -36.950   0.711  -9.213  1.00  0.00    -0.000 C 
BRANCH  21  22
HETATM   22  C   UNL     1     -37.665   1.621  -8.228  1.00  0.00    -0.005 C 
HETATM   23  C   UNL     1     -37.275   1.275  -6.806  1.00  0.00     0.005 C 
ENDBRANCH  21  22
ENDBRANCH  20  21
ENDBRANCH  19  20
ENDBRANCH  18  19
ENDBRANCH  17  18
BRANCH  17  24
HETATM   24  O   UNL     1     -35.846  -1.884 -12.855  1.00  0.00    -0.396 OA
HETATM   25  H   UNL     1     -36.741  -2.015 -12.497  1.00  0.00     0.210 HD
ENDBRANCH  17  24
ENDBRANCH  16  17
ENDBRANCH  15  16
ENDBRANCH  14  15
ENDBRANCH  13  14
ENDBRANCH  12  13
ENDBRANCH  11  12
ENDBRANCH  10  11
ENDBRANCH   9  10
ENDBRANCH   8   9
ENDBRANCH   7   8
ENDBRANCH   5   7
ENDBRANCH   4   5
ENDBRANCH   3   4
ENDBRANCH   2   3
BRANCH   2  26
HETATM   26  C   UNL     1     -22.767  -5.104 -13.558  1.00  0.00     0.187 C 
BRANCH  26  27
HETATM   27  O   UNL     1     -23.825  -6.278 -14.220  1.00  0.00    -0.360 OA
BRANCH  27  28
HETATM   28  C   UNL     1     -24.487  -6.925 -15.327  1.00  0.00     0.256 C 
BRANCH  28  29
HETATM   29  O   UNL     1     -25.661  -7.435 -15.055  1.00  0.00    -0.371 OA
ATOM     30  HO  UNL     1     -26.404  -6.901 -15.310  1.00  0.00     0.212 HD
ENDBRANCH  28  29
BRANCH  28  31
HETATM   31  C   UNL     1     -23.949  -7.260 -16.791  1.00  0.00     0.060 C 
BRANCH  31  32
HETATM   32  C   UNL     1     -24.383  -6.696 -18.178  1.00  0.00     0.005 C 
BRANCH  32  33
HETATM   33  C   UNL     1     -23.785  -7.549 -19.351  1.00  0.00     0.000 C 
BRANCH  33  34
HETATM   34  C   UNL     1     -24.774  -7.631 -20.493  1.00  0.00     0.000 C 
BRANCH  34  35
HETATM   35  C   UNL     1     -25.702  -6.431 -20.580  1.00  0.00     0.000 C 
BRANCH  35  36
HETATM   36  C   UNL     1     -27.086  -6.961 -20.259  1.00  0.00     0.000 C 
BRANCH  36  37
HETATM   37  C   UNL     1     -27.715  -6.211 -19.116  1.00  0.00     0.000 C 
BRANCH  37  38
HETATM   38  C   UNL     1     -28.853  -7.049 -18.557  1.00  0.00     0.000 C 
BRANCH  38  39
HETATM   39  C   UNL     1     -29.943  -6.112 -18.100  1.00  0.00     0.002 C 
BRANCH  39  40
HETATM   40  C   UNL     1     -29.517  -4.659 -18.209  1.00  0.00     0.032 C 
BRANCH  40  41
HETATM   41  C   UNL     1     -30.727  -3.726 -18.231  1.00  0.00     0.118 C 
BRANCH  41  42
HETATM   42  C   UNL     1     -32.004  -4.433 -17.775  1.00  0.00     0.032 C 
BRANCH  42  43
HETATM   43  C   UNL     1     -32.402  -4.050 -16.353  1.00  0.00     0.002 C 
BRANCH  43  44
HETATM   44  C   UNL     1     -33.827  -4.482 -16.014  1.00  0.00     0.000 C 
BRANCH  44  45
HETATM   45  C   UNL     1     -34.743  -3.297 -15.704  1.00  0.00    -0.000 C 
BRANCH  45  46
HETATM   46  C   UNL     1     -34.701  -2.262 -16.819  1.00  0.00    -0.005 C 
HETATM   47  C   UNL     1     -35.671  -1.129 -16.530  1.00  0.00     0.005 C 
ENDBRANCH  45  46
ENDBRANCH  44  45
ENDBRANCH  43  44
ENDBRANCH  42  43
ENDBRANCH  41  42
BRANCH  41  48
HETATM   48  O   UNL     1     -30.455  -2.630 -17.358  1.00  0.00    -0.396 OA
HETATM   49  H   UNL     1     -29.709  -2.135 -17.741  1.00  0.00     0.210 HD
ENDBRANCH  41  48
ENDBRANCH  40  41
ENDBRANCH  39  40
ENDBRANCH  38  39
ENDBRANCH  37  38
ENDBRANCH  36  37
ENDBRANCH  35  36
ENDBRANCH  34  35
ENDBRANCH  33  34
ENDBRANCH  32  33
ENDBRANCH  31  32
ENDBRANCH  28  31
ENDBRANCH  27  28
ENDBRANCH  26  27
ENDBRANCH   2  26
BRANCH   2  50
HETATM   50  C   UNL     1     -21.760  -3.835 -11.906  1.00  0.00     0.194 C 
BRANCH  50  51
HETATM   51  O   UNL     1     -21.807  -2.457 -11.648  1.00  0.00    -0.320 OA
BRANCH  51  52
HETATM   52  C   UNL     1     -20.619  -1.967 -11.210  1.00  0.00     0.258 C 
HETATM   53  O   UNL     1     -19.703  -2.586 -10.681  1.00  0.00    -0.265 OA
BRANCH  52  54
HETATM   54  C   UNL     1     -20.579  -0.522 -11.554  1.00  0.00     0.111 C 
BRANCH  54  55
HETATM   55  C   UNL     1     -19.412   0.135 -10.843  1.00  0.00     0.010 C 
BRANCH  55  56
HETATM   56  C   UNL     1     -19.360   1.584 -11.284  1.00  0.00     0.000 C 
BRANCH  56  57
HETATM   57  C   UNL     1     -20.729   2.222 -11.208  1.00  0.00     0.000 C 
BRANCH  57  58
HETATM   58  C   UNL     1     -20.605   3.605 -10.595  1.00  0.00     0.000 C 
BRANCH  58  59
HETATM   59  C   UNL     1     -21.490   3.701  -9.367  1.00  0.00     0.000 C 
BRANCH  59  60
HETATM   60  C   UNL     1     -22.906   4.061  -9.775  1.00  0.00     0.000 C 
BRANCH  60  61
HETATM   61  C   UNL     1     -23.744   4.401  -8.550  1.00  0.00     0.000 C 
BRANCH  61  62
HETATM   62  C   UNL     1     -25.094   4.926  -9.010  1.00  0.00     0.002 C 
BRANCH  62  63
HETATM   63  C   UNL     1     -24.974   5.859 -10.206  1.00  0.00     0.032 C 
BRANCH  63  64
HETATM   64  C   UNL     1     -26.188   6.784 -10.339  1.00  0.00     0.118 C 
BRANCH  64  65
HETATM   65  C   UNL     1     -25.843   8.259 -10.098  1.00  0.00     0.032 C 
BRANCH  65  66
HETATM   66  C   UNL     1     -25.398   8.966 -11.380  1.00  0.00     0.002 C 
BRANCH  66  67
HETATM   67  C   UNL     1     -23.885   9.187 -11.455  1.00  0.00     0.000 C 
BRANCH  67  68
HETATM   68  C   UNL     1     -23.490  10.312 -12.413  1.00  0.00    -0.000 C 
BRANCH  68  69
HETATM   69  C   UNL     1     -22.399  11.198 -11.819  1.00  0.00    -0.005 C 
HETATM   70  C   UNL     1     -21.311  10.356 -11.173  1.00  0.00     0.005 C 
ENDBRANCH  68  69
ENDBRANCH  67  68
ENDBRANCH  66  67
ENDBRANCH  65  66
ENDBRANCH  64  65
BRANCH  64  71
HETATM   71  O   UNL     1     -26.718   6.631 -11.656  1.00  0.00    -0.396 OA
HETATM   72  H   UNL     1     -25.967   6.503 -12.261  1.00  0.00     0.210 HD
ENDBRANCH  64  71
ENDBRANCH  63  64
ENDBRANCH  62  63
ENDBRANCH  61  62
ENDBRANCH  60  61
ENDBRANCH  59  60
ENDBRANCH  58  59
ENDBRANCH  57  58
ENDBRANCH  56  57
ENDBRANCH  55  56
ENDBRANCH  54  55
ENDBRANCH  52  54
ENDBRANCH  51  52
ENDBRANCH  50  51
ENDBRANCH   2  50
ENDBRANCH   1   2
BRANCH   1  73
HETATM   73  O   UNL     1     -23.072  -4.907  -9.512  1.00  0.00    -0.389 OA
BRANCH  73  74
HETATM   74  C   UNL     1     -22.302  -5.948  -8.812  1.00  0.00     0.183 C 
BRANCH  74  75
HETATM   75  C   UNL     1     -21.618  -5.456  -7.407  1.00  0.00     0.047 C 
BRANCH  75  76
HETATM   76  C   UNL     1     -20.930  -6.547  -6.608  1.00  0.00     0.194 C 
BRANCH  76  77
HETATM   77  O   UNL     1     -21.562  -7.833  -6.631  1.00  0.00    -0.320 OA
BRANCH  77  78
HETATM   78  C   UNL     1     -21.106  -8.665  -5.669  1.00  0.00     0.258 C 
HETATM   79  O   UNL     1     -20.325  -8.262  -4.794  1.00  0.00    -0.265 OA
BRANCH  78  80
HETATM   80  C   UNL     1     -21.518 -10.108  -5.935  1.00  0.00     0.111 C 
BRANCH  80  81
HETATM   81  C   UNL     1     -20.629 -11.333  -5.491  1.00  0.00     0.010 C 
BRANCH  81  82
HETATM   82  C   UNL     1     -20.020 -12.054  -4.091  1.00  0.00     0.000 C 
BRANCH  82  83
HETATM   83  C   UNL     1     -20.109 -11.939  -2.309  1.00  0.00     0.000 C 
BRANCH  83  84
HETATM   84  C   UNL     1     -19.042 -11.517  -1.055  1.00  0.00     0.000 C 
BRANCH  84  85
HETATM   85  C   UNL     1     -18.539 -12.579  -0.085  1.00  0.00     0.000 C 
BRANCH  85  86
HETATM   86  C   UNL     1     -17.312 -12.043   0.524  1.00  0.00     0.000 C 
BRANCH  86  87
HETATM   87  C   UNL     1     -16.476 -13.195   0.917  1.00  0.00     0.000 C 
BRANCH  87  88
HETATM   88  C   UNL     1     -15.097 -12.655   0.832  1.00  0.00     0.002 C 
BRANCH  88  89
HETATM   89  C   UNL     1     -14.255 -13.743   1.336  1.00  0.00     0.032 C 
BRANCH  89  90
HETATM   90  C   UNL     1     -13.257 -14.245   0.268  1.00  0.00     0.118 C 
BRANCH  90  91
HETATM   91  C   UNL     1     -11.466 -13.999   0.528  1.00  0.00     0.032 C 
BRANCH  91  92
HETATM   92  C   UNL     1     -10.454 -12.822   1.338  1.00  0.00     0.002 C 
BRANCH  92  93
HETATM   93  C   UNL     1      -9.390 -13.245   2.349  1.00  0.00     0.000 C 
BRANCH  93  94
HETATM   94  C   UNL     1      -8.646 -14.354   1.719  1.00  0.00    -0.000 C 
BRANCH  94  95
HETATM   95  C   UNL     1      -8.555 -15.475   2.687  1.00  0.00    -0.005 C 
HETATM   96  C   UNL     1      -8.376 -14.793   3.999  1.00  0.00     0.005 C 
ENDBRANCH  94  95
ENDBRANCH  93  94
ENDBRANCH  92  93
ENDBRANCH  91  92
ENDBRANCH  90  91
BRANCH  90  97
HETATM   97  O   UNL     1     -13.975 -15.512   0.102  1.00  0.00    -0.396 OA
HETATM   98  H   UNL     1     -14.320 -15.911   0.910  1.00  0.00     0.210 HD
ENDBRANCH  90  97
ENDBRANCH  89  90
ENDBRANCH  88  89
ENDBRANCH  87  88
ENDBRANCH  86  87
ENDBRANCH  85  86
ENDBRANCH  84  85
ENDBRANCH  83  84
ENDBRANCH  82  83
ENDBRANCH  81  82
ENDBRANCH  80  81
ENDBRANCH  78  80
ENDBRANCH  77  78
ENDBRANCH  76  77
ENDBRANCH  75  76
BRANCH  75  99
HETATM   99  C   UNL     1     -20.473  -4.431  -7.602  1.00  0.00     0.194 C 
BRANCH  99 100
HETATM  100  O   UNL     1     -19.416  -4.611  -6.638  1.00  0.00    -0.320 OA
BRANCH 100 101
HETATM  101  C   UNL     1     -18.215  -5.001  -7.126  1.00  0.00     0.258 C 
HETATM  102  O   UNL     1     -17.242  -4.271  -7.258  1.00  0.00    -0.265 OA
BRANCH 101 103
HETATM  103  C   UNL     1     -18.254  -6.459  -7.492  1.00  0.00     0.111 C 
BRANCH 103 104
HETATM  104  C   UNL     1     -17.763  -7.346  -6.354  1.00  0.00     0.010 C 
BRANCH 104 105
HETATM  105  C   UNL     1     -17.551  -8.813  -6.748  1.00  0.00     0.000 C 
BRANCH 105 106
HETATM  106  C   UNL     1     -17.571  -9.783  -5.567  1.00  0.00     0.000 C 
BRANCH 106 107
HETATM  107  C   UNL     1     -16.338  -9.618  -4.692  1.00  0.00     0.000 C 
BRANCH 107 108
HETATM  108  C   UNL     1     -16.701  -9.742  -3.223  1.00  0.00     0.000 C 
BRANCH 108 109
HETATM  109  C   UNL     1     -15.640 -10.562  -2.514  1.00  0.00     0.000 C 
BRANCH 109 110
HETATM  110  C   UNL     1     -15.762 -12.032  -2.880  1.00  0.00     0.000 C 
BRANCH 110 111
HETATM  111  C   UNL     1     -14.394 -12.545  -3.293  1.00  0.00     0.002 C 
BRANCH 111 112
HETATM  112  C   UNL     1     -14.231 -12.581  -4.804  1.00  0.00     0.032 C 
BRANCH 112 113
HETATM  113  C   UNL     1     -15.370 -13.347  -5.483  1.00  0.00     0.118 C 
BRANCH 113 114
HETATM  114  C   UNL     1     -15.924 -12.619  -6.713  1.00  0.00     0.032 C 
BRANCH 114 115
HETATM  115  C   UNL     1     -17.331 -13.089  -7.084  1.00  0.00     0.002 C 
BRANCH 115 116
HETATM  116  C   UNL     1     -17.515 -13.308  -8.589  1.00  0.00     0.000 C 
BRANCH 116 117
HETATM  117  C   UNL     1     -18.710 -14.200  -8.928  1.00  0.00    -0.000 C 
BRANCH 117 118
HETATM  118  C   UNL     1     -18.273 -15.627  -9.241  1.00  0.00    -0.005 C 
HETATM  119  C   UNL     1     -18.087 -15.822 -10.736  1.00  0.00     0.005 C 
ENDBRANCH 117 118
ENDBRANCH 116 117
ENDBRANCH 115 116
ENDBRANCH 114 115
ENDBRANCH 113 114
BRANCH 113 120
HETATM  120  O   UNL     1     -14.867 -14.623  -5.872  1.00  0.00    -0.396 OA
HETATM  121  H   UNL     1     -15.614 -15.145  -6.214  1.00  0.00     0.210 HD
ENDBRANCH 113 120
ENDBRANCH 112 113
ENDBRANCH 111 112
ENDBRANCH 110 111
ENDBRANCH 109 110
ENDBRANCH 108 109
ENDBRANCH 107 108
ENDBRANCH 106 107
ENDBRANCH 105 106
ENDBRANCH 104 105
ENDBRANCH 103 104
ENDBRANCH 101 103
ENDBRANCH 100 101
ENDBRANCH  99 100
ENDBRANCH  75  99
BRANCH  75 122
HETATM  122  C   UNL     1     -22.747  -4.944  -6.473  1.00  0.00     0.194 C 
BRANCH 122 123
HETATM  123  O   UNL     1     -22.508  -5.433  -5.185  1.00  0.00    -0.320 OA
BRANCH 123 124
HETATM  124  C   UNL     1     -23.584  -6.043  -4.652  1.00  0.00     0.258 C 
HETATM  125  O   UNL     1     -24.744  -6.078  -5.058  1.00  0.00    -0.265 OA
BRANCH 124 126
HETATM  126  C   UNL     1     -23.032  -6.951  -3.572  1.00  0.00     0.111 C 
BRANCH 126 127
HETATM  127  C   UNL     1     -21.940  -6.134  -2.939  1.00  0.00     0.010 C 
BRANCH 127 128
HETATM  128  C   UNL     1     -21.354  -6.964  -1.850  1.00  0.00     0.000 C 
BRANCH 128 129
HETATM  129  C   UNL     1     -22.336  -6.913  -0.720  1.00  0.00     0.000 C 
BRANCH 129 130
HETATM  130  C   UNL     1     -22.040  -8.047   0.215  1.00  0.00     0.000 C 
BRANCH 130 131
HETATM  131  C   UNL     1     -23.301  -8.859   0.374  1.00  0.00     0.000 C 
BRANCH 131 132
HETATM  132  C   UNL     1     -23.149 -10.134  -0.414  1.00  0.00     0.000 C 
BRANCH 132 133
HETATM  133  C   UNL     1     -22.365 -11.148   0.395  1.00  0.00     0.000 C 
BRANCH 133 134
HETATM  134  C   UNL     1     -23.217 -12.393   0.534  1.00  0.00     0.002 C 
BRANCH 134 135
HETATM  135  C   UNL     1     -23.817 -12.819  -0.793  1.00  0.00     0.032 C 
BRANCH 135 136
HETATM  136  C   UNL     1     -23.539 -14.294  -1.091  1.00  0.00     0.118 C 
BRANCH 136 137
HETATM  137  C   UNL     1     -24.816 -15.088  -1.386  1.00  0.00     0.032 C 
BRANCH 137 138
HETATM  138  C   UNL     1     -24.929 -16.349  -0.530  1.00  0.00     0.002 C 
BRANCH 138 139
HETATM  139  C   UNL     1     -24.058 -16.301   0.729  1.00  0.00     0.000 C 
BRANCH 139 140
HETATM  140  C   UNL     1     -24.859 -16.053   2.009  1.00  0.00    -0.000 C 
BRANCH 140 141
HETATM  141  C   UNL     1     -24.170 -15.035   2.912  1.00  0.00    -0.005 C 
HETATM  142  C   UNL     1     -24.543 -15.262   4.368  1.00  0.00     0.005 C 
ENDBRANCH 140 141
ENDBRANCH 139 140
ENDBRANCH 138 139
ENDBRANCH 137 138
ENDBRANCH 136 137
BRANCH 136 143
HETATM  143  O   UNL     1     -22.667 -14.356  -2.218  1.00  0.00    -0.396 OA
HETATM  144  H   UNL     1     -21.960 -14.992  -2.011  1.00  0.00     0.210 HD
ENDBRANCH 136 143
ENDBRANCH 135 136
ENDBRANCH 134 135
ENDBRANCH 133 134
ENDBRANCH 132 133
ENDBRANCH 131 132
ENDBRANCH 130 131
ENDBRANCH 129 130
ENDBRANCH 128 129
ENDBRANCH 127 128
ENDBRANCH 126 127
ENDBRANCH 124 126
ENDBRANCH 123 124
ENDBRANCH 122 123
ENDBRANCH  75 122
ENDBRANCH  74  75
ENDBRANCH  73  74
ENDBRANCH   1  73
TORSDOF 125
BEGIN_RES ARG D 557
REMARK  4 active torsions:
REMARK  status: ('A' for Active; 'I' for Inactive)
REMARK    1  A    between atoms: CA   and  CB  
REMARK    2  A    between atoms: CB   and  CG  
REMARK    3  A    between atoms: CG   and  CD  
REMARK    4  A    between atoms: CD   and  NE  
REMARK       I    between atoms: NE   and  CZ  
REMARK       I    between atoms: CZ   and  NH1 
REMARK       I    between atoms: CZ   and  NH2 
ROOT
ATOM      1  CA  ARG D 557     -26.217   2.705 -17.014  1.00 35.49     0.159 C 
ENDROOT
BRANCH   1   2
ATOM      2  CB  ARG D 557     -26.789   1.319 -17.183  1.00 35.49     0.034 C 
BRANCH   2   3
ATOM      3  CG  ARG D 557     -25.828   0.212 -17.253  1.00 35.49     0.027 C 
BRANCH   3   4
ATOM      4  CD  ARG D 557     -24.491   0.592 -16.742  1.00 35.49     0.116 C 
BRANCH   4   5
ATOM      5  NE  ARG D 557     -24.251   0.081 -15.418  1.00 35.49    -0.212 N 
ATOM      6  CZ  ARG D 557     -23.336  -0.804 -15.090  1.00 35.49     0.666 C 
ATOM      7  NH1 ARG D 557     -22.523  -1.345 -15.978  1.00 35.49    -0.235 N 
ATOM      8  NH2 ARG D 557     -23.246  -1.137 -13.835  1.00 35.49    -0.235 N 
ATOM      9  HH  ARG D 557     -22.563  -1.139 -16.809  1.00 35.49     0.174 HD
ATOM     10  HH  ARG D 557     -21.944  -1.915 -15.705  1.00 35.49     0.174 HD
ATOM     11  HH  ARG D 557     -23.780  -0.766 -13.283  1.00 35.49     0.174 HD
ATOM     12  HH  ARG D 557     -22.665  -1.702 -13.585  1.00 35.49     0.174 HD
ATOM     13  HE  ARG D 557     -24.778   0.321 -14.796  1.00 35.49     0.178 HD
ENDBRANCH   4   5
ENDBRANCH   3   4
ENDBRANCH   2   3
ENDBRANCH   1   2
END_RES ARG D 557
BEGIN_RES GLU D 570
REMARK  3 active torsions:
REMARK  status: ('A' for Active; 'I' for Inactive)
REMARK    5  A    between atoms: CA   and  CB  
REMARK    6  A    between atoms: CB   and  CG  
REMARK    7  A    between atoms: CG   and  CD  
ROOT
ATOM     14  CA  GLU D 570     -18.033  -6.348 -13.375  1.00 32.92     0.160 C 
ENDROOT
BRANCH  14  15
ATOM     15  CB  GLU D 570     -19.500  -6.345 -13.794  1.00 32.92     0.043 C 
BRANCH  15  16
ATOM     16  CG  GLU D 570     -20.097  -7.642 -14.206  1.00 32.92     0.100 C 
BRANCH  16  17
ATOM     17  CD  GLU D 570     -20.538  -7.655 -15.651  1.00 32.92     0.185 C 
ATOM     18  OE1 GLU D 570     -20.818  -8.744 -16.188  1.00 32.92    -0.647 OA
ATOM     19  OE2 GLU D 570     -20.587  -6.567 -16.257  1.00 32.92    -0.647 OA
ENDBRANCH  16  17
ENDBRANCH  15  16
ENDBRANCH  14  15
END_RES GLU D 570
ENDMDL
MODEL 2
REMARK VINA RESULT:      -3.2      1.978      3.403
REMARK WARNING: 32 MAX_TORS EXCEEDED!!!
REMARK  125 active torsions:
REMARK  status: ('A' for Active; 'I' for Inactive)
REMARK    1  A    between atoms: C_2  and  C_3 
REMARK    2  A    between atoms: C_3  and  C_4 
REMARK    3  A    between atoms: C_4  and  C_5 
REMARK    4  A    between atoms: C_5  and  C_6 
REMARK    5  A    between atoms: C_6  and  C_7 
REMARK    6  A    between atoms: C_7  and  C_8 
REMARK    7  A    between atoms: C_7  and  O_138 
REMARK    8  A    between atoms: C_8  and  C_9 
REMARK    9  A    between atoms: C_9  and  C_10 
REMARK   10  A    between atoms: C_10  and  C_11 
REMARK   11  A    between atoms: C_11  and  C_12 
REMARK   12  A    between atoms: C_12  and  C_13 
REMARK   13  A    between atoms: C_13  and  C_14 
REMARK   14  A    between atoms: C_14  and  C_15 
REMARK   15  A    between atoms: C_15  and  C_16 
REMARK   16  A    between atoms: C_16  and  C_17 
REMARK   17  A    between atoms: C_17  and  C_18 
REMARK   18  A    between atoms: C_18  and  O_20 
REMARK   19  A    between atoms: O_20  and  C_21 
REMARK   20  A    between atoms: C_21  and  C_22 
REMARK   21  A    between atoms: C_22  and  C_23 
REMARK   22  A    between atoms: C_22  and  C_93 
REMARK   23  A    between atoms: C_22  and  C_116 
REMARK   24  A    between atoms: C_23  and  O_24 
REMARK   25  A    between atoms: O_24  and  C_25 
REMARK   26  A    between atoms: C_25  and  C_26 
REMARK   27  A    between atoms: C_26  and  C_27 
REMARK   28  A    between atoms: C_26  and  C_49 
REMARK   29  A    between atoms: C_26  and  C_71 
REMARK   30  A    between atoms: C_27  and  O_28 
REMARK   31  A    between atoms: O_28  and  C_29 
REMARK   32  A    between atoms: C_29  and  C_31 
REMARK   33  A    between atoms: C_31  and  C_32 
REMARK   34  A    between atoms: C_32  and  C_33 
REMARK   35  A    between atoms: C_33  and  C_34 
REMARK   36  A    between atoms: C_34  and  C_35 
REMARK   37  A    between atoms: C_35  and  C_36 
REMARK   38  A    between atoms: C_36  and  C_37 
REMARK   39  A    between atoms: C_37  and  C_38 
REMARK   40  A    between atoms: C_38  and  C_39 
REMARK   41  A    between atoms: C_39  and  C_40 
REMARK   42  A    between atoms: C_40  and  C_41 
REMARK   43  A    between atoms: C_41  and  C_42 
REMARK   44  A    between atoms: C_41  and  O_48 
REMARK   45  A    between atoms: C_42  and  C_43 
REMARK   46  A    between atoms: C_43  and  C_44 
REMARK   47  A    between atoms: C_44  and  C_45 
REMARK   48  A    between atoms: C_45  and  C_46 
REMARK   49  A    between atoms: C_49  and  O_50 
REMARK   50  A    between atoms: O_50  and  C_51 
REMARK   51  A    between atoms: C_51  and  C_53 
REMARK   52  A    between atoms: C_53  and  C_54 
REMARK   53  A    between atoms: C_54  and  C_55 
REMARK   54  A    between atoms: C_55  and  C_56 
REMARK   55  A    between atoms: C_56  and  C_57 
REMARK   56  A    between atoms: C_57  and  C_58 
REMARK   57  A    between atoms: C_58  and  C_59 
REMARK   58  A    between atoms: C_59  and  C_60 
REMARK   59  A    between atoms: C_60  and  C_61 
REMARK   60  A    between atoms: C_61  and  C_62 
REMARK   61  A    between atoms: C_62  and  C_63 
REMARK   62  A    between atoms: C_63  and  C_64 
REMARK   63  A    between atoms: C_63  and  O_70 
REMARK   64  A    between atoms: C_64  and  C_65 
REMARK   65  A    between atoms: C_65  and  C_66 
REMARK   66  A    between atoms: C_66  and  C_67 
REMARK   67  A    between atoms: C_67  and  C_68 
REMARK   68  A    between atoms: C_71  and  O_72 
REMARK   69  A    between atoms: O_72  and  C_73 
REMARK   70  A    between atoms: C_73  and  C_75 
REMARK   71  A    between atoms: C_75  and  C_76 
REMARK   72  A    between atoms: C_76  and  C_77 
REMARK   73  A    between atoms: C_77  and  C_78 
REMARK   74  A    between atoms: C_78  and  C_79 
REMARK   75  A    between atoms: C_79  and  C_80 
REMARK   76  A    between atoms: C_80  and  C_81 
REMARK   77  A    between atoms: C_81  and  C_82 
REMARK   78  A    between atoms: C_82  and  C_83 
REMARK   79  A    between atoms: C_83  and  C_84 
REMARK   80  A    between atoms: C_84  and  C_85 
REMARK   81  A    between atoms: C_85  and  C_86 
REMARK   82  A    between atoms: C_85  and  O_92 
REMARK   83  A    between atoms: C_86  and  C_87 
REMARK   84  A    between atoms: C_87  and  C_88 
REMARK   85  A    between atoms: C_88  and  C_89 
REMARK   86  A    between atoms: C_89  and  C_90 
REMARK   87  A    between atoms: C_93  and  O_94 
REMARK   88  A    between atoms: O_94  and  C_95 
REMARK   89  A    between atoms: C_95  and  O_96 
REMARK   90  A    between atoms: C_95  and  C_98 
REMARK   91  A    between atoms: C_98  and  C_99 
REMARK   92  A    between atoms: C_99  and  C_100 
REMARK   93  A    between atoms: C_100  and  C_101 
REMARK   94  A    between atoms: C_101  and  C_102 
REMARK   95  A    between atoms: C_102  and  C_103 
REMARK   96  A    between atoms: C_103  and  C_104 
REMARK   97  A    between atoms: C_104  and  C_105 
REMARK   98  A    between atoms: C_105  and  C_106 
REMARK   99  A    between atoms: C_106  and  C_107 
REMARK  100  A    between atoms: C_107  and  C_108 
REMARK  101  A    between atoms: C_108  and  C_109 
REMARK  102  A    between atoms: C_108  and  O_115 
REMARK  103  A    between atoms: C_109  and  C_110 
REMARK  104  A    between atoms: C_110  and  C_111 
REMARK  105  A    between atoms: C_111  and  C_112 
REMARK  106  A    between atoms: C_112  and  C_113 
REMARK  107  A    between atoms: C_116  and  O_117 
REMARK  108  A    between atoms: O_117  and  C_118 
REMARK  109  A    between atoms: C_118  and  C_120 
REMARK  110  A    between atoms: C_120  and  C_121 
REMARK  111  A    between atoms: C_121  and  C_122 
REMARK  112  A    between atoms: C_122  and  C_123 
REMARK  113  A    between atoms: C_123  and  C_124 
REMARK  114  A    between atoms: C_124  and  C_125 
REMARK  115  A    between atoms: C_125  and  C_126 
REMARK  116  A    between atoms: C_126  and  C_127 
REMARK  117  A    between atoms: C_127  and  C_128 
REMARK  118  A    between atoms: C_128  and  C_129 
REMARK  119  A    between atoms: C_129  and  C_130 
REMARK  120  A    between atoms: C_130  and  C_131 
REMARK  121  A    between atoms: C_130  and  O_137 
REMARK  122  A    between atoms: C_131  and  C_132 
REMARK  123  A    between atoms: C_132  and  C_133 
REMARK  124  A    between atoms: C_133  and  C_134 
REMARK  125  A    between atoms: C_134  and  C_135 
ROOT
HETATM    1  C   UNL     1     -23.581  -5.143 -10.882  1.00  0.00     0.183 C 
ENDROOT
BRANCH   1   2
HETATM    2  C   UNL     1     -23.147  -4.232 -12.222  1.00  0.00     0.047 C 
BRANCH   2   3
HETATM    3  C   UNL     1     -24.407  -3.318 -12.486  1.00  0.00     0.194 C 
BRANCH   3   4
HETATM    4  O   UNL     1     -24.563  -3.118 -13.950  1.00  0.00    -0.320 OA
BRANCH   4   5
HETATM    5  C   UNL     1     -25.780  -3.017 -14.571  1.00  0.00     0.258 C 
HETATM    6  O   UNL     1     -26.381  -1.966 -14.730  1.00  0.00    -0.265 OA
BRANCH   5   7
HETATM    7  C   UNL     1     -26.317  -4.390 -15.019  1.00  0.00     0.111 C 
BRANCH   7   8
HETATM    8  C   UNL     1     -27.812  -4.486 -15.433  1.00  0.00     0.010 C 
BRANCH   8   9
HETATM    9  C   UNL     1     -28.635  -5.641 -14.691  1.00  0.00     0.000 C 
BRANCH   9  10
HETATM   10  C   UNL     1     -30.091  -5.317 -14.100  1.00  0.00     0.000 C 
BRANCH  10  11
HETATM   11  C   UNL     1     -30.796  -5.307 -12.566  1.00  0.00     0.000 C 
BRANCH  11  12
HETATM   12  C   UNL     1     -32.108  -4.515 -12.087  1.00  0.00     0.000 C 
BRANCH  12  13
HETATM   13  C   UNL     1     -33.110  -5.429 -11.405  1.00  0.00     0.000 C 
BRANCH  13  14
HETATM   14  C   UNL     1     -34.015  -4.665 -10.430  1.00  0.00     0.000 C 
BRANCH  14  15
HETATM   15  C   UNL     1     -34.985  -3.757 -11.173  1.00  0.00     0.002 C 
BRANCH  15  16
HETATM   16  C   UNL     1     -34.656  -2.305 -10.862  1.00  0.00     0.032 C 
BRANCH  16  17
HETATM   17  C   UNL     1     -35.875  -1.462 -10.559  1.00  0.00     0.118 C 
BRANCH  17  18
HETATM   18  C   UNL     1     -36.137  -0.470 -11.689  1.00  0.00     0.032 C 
BRANCH  18  19
HETATM   19  C   UNL     1     -34.999  -0.467 -12.703  1.00  0.00     0.002 C 
BRANCH  19  20
HETATM   20  C   UNL     1     -34.901   0.861 -13.424  1.00  0.00     0.000 C 
BRANCH  20  21
HETATM   21  C   UNL     1     -34.845   0.601 -14.922  1.00  0.00    -0.000 C 
BRANCH  21  22
HETATM   22  C   UNL     1     -35.927  -0.387 -15.326  1.00  0.00    -0.005 C 
HETATM   23  C   UNL     1     -37.247   0.326 -15.534  1.00  0.00     0.005 C 
ENDBRANCH  21  22
ENDBRANCH  20  21
ENDBRANCH  19  20
ENDBRANCH  18  19
ENDBRANCH  17  18
BRANCH  17  24
HETATM   24  O   UNL     1     -35.648  -0.727  -9.357  1.00  0.00    -0.396 OA
HETATM   25  H   UNL     1     -35.160   0.080  -9.599  1.00  0.00     0.210 HD
ENDBRANCH  17  24
ENDBRANCH  16  17
ENDBRANCH  15  16
ENDBRANCH  14  15
ENDBRANCH  13  14
ENDBRANCH  12  13
ENDBRANCH  11  12
ENDBRANCH  10  11
ENDBRANCH   9  10
ENDBRANCH   8   9
ENDBRANCH   7   8
ENDBRANCH   5   7
ENDBRANCH   4   5
ENDBRANCH   3   4
ENDBRANCH   2   3
BRANCH   2  26
HETATM   26  C   UNL     1     -22.838  -4.769 -13.659  1.00  0.00     0.187 C 
BRANCH  26  27
HETATM   27  O   UNL     1     -23.730  -6.103 -14.258  1.00  0.00    -0.360 OA
BRANCH  27  28
HETATM   28  C   UNL     1     -24.347  -6.856 -15.324  1.00  0.00     0.256 C 
BRANCH  28  29
HETATM   29  O   UNL     1     -25.518  -7.365 -15.043  1.00  0.00    -0.371 OA
ATOM     30  HO  UNL     1     -25.808  -7.247 -14.146  1.00  0.00     0.212 HD
ENDBRANCH  28  29
BRANCH  28  31
HETATM   31  C   UNL     1     -23.757  -7.303 -16.737  1.00  0.00     0.060 C 
BRANCH  31  32
HETATM   32  C   UNL     1     -24.303  -7.066 -18.178  1.00  0.00     0.005 C 
BRANCH  32  33
HETATM   33  C   UNL     1     -23.200  -7.348 -19.257  1.00  0.00     0.000 C 
BRANCH  33  34
HETATM   34  C   UNL     1     -23.834  -7.885 -20.521  1.00  0.00     0.000 C 
BRANCH  34  35
HETATM   35  C   UNL     1     -25.064  -7.109 -20.962  1.00  0.00     0.000 C 
BRANCH  35  36
HETATM   36  C   UNL     1     -26.143  -8.150 -21.190  1.00  0.00     0.000 C 
BRANCH  36  37
HETATM   37  C   UNL     1     -27.423  -7.785 -20.488  1.00  0.00     0.000 C 
BRANCH  37  38
HETATM   38  C   UNL     1     -27.281  -6.380 -19.925  1.00  0.00     0.000 C 
BRANCH  38  39
HETATM   39  C   UNL     1     -27.875  -6.371 -18.538  1.00  0.00     0.002 C 
BRANCH  39  40
HETATM   40  C   UNL     1     -29.347  -6.002 -18.559  1.00  0.00     0.032 C 
BRANCH  40  41
HETATM   41  C   UNL     1     -30.179  -6.997 -17.752  1.00  0.00     0.118 C 
BRANCH  41  42
HETATM   42  C   UNL     1     -31.649  -6.583 -17.673  1.00  0.00     0.032 C 
BRANCH  42  43
HETATM   43  C   UNL     1     -31.879  -5.447 -16.680  1.00  0.00     0.002 C 
BRANCH  43  44
HETATM   44  C   UNL     1     -32.271  -4.143 -17.372  1.00  0.00     0.000 C 
BRANCH  44  45
HETATM   45  C   UNL     1     -33.662  -3.656 -16.965  1.00  0.00    -0.000 C 
BRANCH  45  46
HETATM   46  C   UNL     1     -34.209  -4.464 -15.796  1.00  0.00    -0.005 C 
HETATM   47  C   UNL     1     -34.247  -3.618 -14.536  1.00  0.00     0.005 C 
ENDBRANCH  45  46
ENDBRANCH  44  45
ENDBRANCH  43  44
ENDBRANCH  42  43
ENDBRANCH  41  42
BRANCH  41  48
HETATM   48  O   UNL     1     -30.080  -8.272 -18.385  1.00  0.00    -0.396 OA
HETATM   49  H   UNL     1     -29.975  -8.112 -19.340  1.00  0.00     0.210 HD
ENDBRANCH  41  48
ENDBRANCH  40  41
ENDBRANCH  39  40
ENDBRANCH  38  39
ENDBRANCH  37  38
ENDBRANCH  36  37
ENDBRANCH  35  36
ENDBRANCH  34  35
ENDBRANCH  33  34
ENDBRANCH  32  33
ENDBRANCH  31  32
ENDBRANCH  28  31
ENDBRANCH  27  28
ENDBRANCH  26  27
ENDBRANCH   2  26
BRANCH   2  50
HETATM   50  C   UNL     1     -21.791  -3.581 -11.971  1.00  0.00     0.194 C 
BRANCH  50  51
HETATM   51  O   UNL     1     -21.882  -2.219 -11.650  1.00  0.00    -0.320 OA
BRANCH  51  52
HETATM   52  C   UNL     1     -20.683  -1.682 -11.304  1.00  0.00     0.258 C 
HETATM   53  O   UNL     1     -19.693  -2.271 -10.884  1.00  0.00    -0.265 OA
BRANCH  52  54
HETATM   54  C   UNL     1     -20.745  -0.227 -11.596  1.00  0.00     0.111 C 
BRANCH  54  55
HETATM   55  C   UNL     1     -19.545   0.464 -10.980  1.00  0.00     0.010 C 
BRANCH  55  56
HETATM   56  C   UNL     1     -19.628   1.935 -11.332  1.00  0.00     0.000 C 
BRANCH  56  57
HETATM   57  C   UNL     1     -21.008   2.483 -11.044  1.00  0.00     0.000 C 
BRANCH  57  58
HETATM   58  C   UNL     1     -20.882   3.773 -10.255  1.00  0.00     0.000 C 
BRANCH  58  59
HETATM   59  C   UNL     1     -21.971   3.836  -9.200  1.00  0.00     0.000 C 
BRANCH  59  60
HETATM   60  C   UNL     1     -23.267   4.321  -9.822  1.00  0.00     0.000 C 
BRANCH  60  61
HETATM   61  C   UNL     1     -24.250   4.748  -8.741  1.00  0.00     0.000 C 
BRANCH  61  62
HETATM   62  C   UNL     1     -25.509   5.281  -9.405  1.00  0.00     0.002 C 
BRANCH  62  63
HETATM   63  C   UNL     1     -25.211   6.403 -10.388  1.00  0.00     0.032 C 
BRANCH  63  64
HETATM   64  C   UNL     1     -26.389   7.372 -10.530  1.00  0.00     0.118 C 
BRANCH  64  65
HETATM   65  C   UNL     1     -25.956   8.778 -10.965  1.00  0.00     0.032 C 
BRANCH  65  66
HETATM   66  C   UNL     1     -24.470   9.034 -10.703  1.00  0.00     0.002 C 
BRANCH  66  67
HETATM   67  C   UNL     1     -23.920  10.241 -11.467  1.00  0.00     0.000 C 
BRANCH  67  68
HETATM   68  C   UNL     1     -23.442   9.891 -12.877  1.00  0.00    -0.000 C 
BRANCH  68  69
HETATM   69  C   UNL     1     -23.410  11.120 -13.781  1.00  0.00    -0.005 C 
HETATM   70  C   UNL     1     -24.181  12.271 -13.154  1.00  0.00     0.005 C 
ENDBRANCH  68  69
ENDBRANCH  67  68
ENDBRANCH  66  67
ENDBRANCH  65  66
ENDBRANCH  64  65
BRANCH  64  71
HETATM   71  O   UNL     1     -27.290   6.835 -11.498  1.00  0.00    -0.396 OA
HETATM   72  H   UNL     1     -28.188   7.117 -11.251  1.00  0.00     0.210 HD
ENDBRANCH  64  71
ENDBRANCH  63  64
ENDBRANCH  62  63
ENDBRANCH  61  62
ENDBRANCH  60  61
ENDBRANCH  59  60
ENDBRANCH  58  59
ENDBRANCH  57  58
ENDBRANCH  56  57
ENDBRANCH  55  56
ENDBRANCH  54  55
ENDBRANCH  52  54
ENDBRANCH  51  52
ENDBRANCH  50  51
ENDBRANCH   2  50
ENDBRANCH   1   2
BRANCH   1  73
HETATM   73  O   UNL     1     -23.193  -4.677  -9.543  1.00  0.00    -0.389 OA
BRANCH  73  74
HETATM   74  C   UNL     1     -21.790  -4.810  -9.117  1.00  0.00     0.183 C 
BRANCH  74  75
HETATM   75  C   UNL     1     -21.593  -5.149  -7.526  1.00  0.00     0.047 C 
BRANCH  75  76
HETATM   76  C   UNL     1     -20.812  -6.415  -7.228  1.00  0.00     0.194 C 
BRANCH  76  77
HETATM   77  O   UNL     1     -21.569  -7.504  -6.686  1.00  0.00    -0.320 OA
BRANCH  77  78
HETATM   78  C   UNL     1     -20.953  -8.111  -5.646  1.00  0.00     0.258 C 
HETATM   79  O   UNL     1     -20.092  -7.518  -4.980  1.00  0.00    -0.265 OA
BRANCH  78  80
HETATM   80  C   UNL     1     -21.318  -9.588  -5.565  1.00  0.00     0.111 C 
BRANCH  80  81
HETATM   81  C   UNL     1     -21.043 -10.454  -4.275  1.00  0.00     0.010 C 
BRANCH  81  82
HETATM   82  C   UNL     1     -19.927 -10.586  -3.015  1.00  0.00     0.000 C 
BRANCH  82  83
HETATM   83  C   UNL     1     -18.248 -10.145  -2.586  1.00  0.00     0.000 C 
BRANCH  83  84
HETATM   84  C   UNL     1     -16.900 -10.949  -1.931  1.00  0.00     0.000 C 
BRANCH  84  85
HETATM   85  C   UNL     1     -15.553 -10.890  -2.639  1.00  0.00     0.000 C 
BRANCH  85  86
HETATM   86  C   UNL     1     -15.161 -12.281  -2.912  1.00  0.00     0.000 C 
BRANCH  86  87
HETATM   87  C   UNL     1     -14.270 -12.266  -4.088  1.00  0.00     0.000 C 
BRANCH  87  88
HETATM   88  C   UNL     1     -14.651 -13.501  -4.817  1.00  0.00     0.002 C 
BRANCH  88  89
HETATM   89  C   UNL     1     -13.375 -14.176  -5.067  1.00  0.00     0.032 C 
BRANCH  89  90
HETATM   90  C   UNL     1     -13.093 -15.283  -4.026  1.00  0.00     0.118 C 
BRANCH  90  91
HETATM   91  C   UNL     1     -12.336 -14.838  -2.424  1.00  0.00     0.032 C 
BRANCH  91  92
HETATM   92  C   UNL     1     -12.881 -14.679  -0.768  1.00  0.00     0.002 C 
BRANCH  92  93
HETATM   93  C   UNL     1     -14.367 -14.613  -0.418  1.00  0.00     0.000 C 
BRANCH  93  94
HETATM   94  C   UNL     1     -14.507 -13.520   0.563  1.00  0.00    -0.000 C 
BRANCH  94  95
HETATM   95  C   UNL     1     -14.613 -14.111   1.921  1.00  0.00    -0.005 C 
HETATM   96  C   UNL     1     -15.942 -13.644   2.404  1.00  0.00     0.005 C 
ENDBRANCH  94  95
ENDBRANCH  93  94
ENDBRANCH  92  93
ENDBRANCH  91  92
ENDBRANCH  90  91
BRANCH  90  97
HETATM   97  O   UNL     1     -14.393 -15.920  -4.259  1.00  0.00    -0.396 OA
HETATM   98  H   UNL     1     -14.412 -16.881  -4.186  1.00  0.00     0.210 HD
ENDBRANCH  90  97
ENDBRANCH  89  90
ENDBRANCH  88  89
ENDBRANCH  87  88
ENDBRANCH  86  87
ENDBRANCH  85  86
ENDBRANCH  84  85
ENDBRANCH  83  84
ENDBRANCH  82  83
ENDBRANCH  81  82
ENDBRANCH  80  81
ENDBRANCH  78  80
ENDBRANCH  77  78
ENDBRANCH  76  77
ENDBRANCH  75  76
BRANCH  75  99
HETATM   99  C   UNL     1     -20.771  -4.079  -6.763  1.00  0.00     0.194 C 
BRANCH  99 100
HETATM  100  O   UNL     1     -19.489  -4.583  -6.340  1.00  0.00    -0.320 OA
BRANCH 100 101
HETATM  101  C   UNL     1     -18.512  -4.610  -7.276  1.00  0.00     0.258 C 
HETATM  102  O   UNL     1     -18.476  -3.901  -8.272  1.00  0.00    -0.265 OA
BRANCH 101 103
HETATM  103  C   UNL     1     -17.483  -5.648  -6.920  1.00  0.00     0.111 C 
BRANCH 103 104
HETATM  104  C   UNL     1     -18.015  -7.064  -7.102  1.00  0.00     0.010 C 
BRANCH 104 105
HETATM  105  C   UNL     1     -17.160  -8.147  -6.431  1.00  0.00     0.000 C 
BRANCH 105 106
HETATM  106  C   UNL     1     -17.804  -9.533  -6.428  1.00  0.00     0.000 C 
BRANCH 106 107
HETATM  107  C   UNL     1     -16.807 -10.606  -6.020  1.00  0.00     0.000 C 
BRANCH 107 108
HETATM  108  C   UNL     1     -17.149 -11.934  -6.673  1.00  0.00     0.000 C 
BRANCH 108 109
HETATM  109  C   UNL     1     -18.564 -11.874  -7.216  1.00  0.00     0.000 C 
BRANCH 109 110
HETATM  110  C   UNL     1     -18.601 -12.315  -8.670  1.00  0.00     0.000 C 
BRANCH 110 111
HETATM  111  C   UNL     1     -19.133 -13.736  -8.732  1.00  0.00     0.002 C 
BRANCH 111 112
HETATM  112  C   UNL     1     -18.142 -14.687  -9.383  1.00  0.00     0.032 C 
BRANCH 112 113
HETATM  113  C   UNL     1     -17.853 -15.904  -8.499  1.00  0.00     0.118 C 
BRANCH 113 114
HETATM  114  C   UNL     1     -17.279 -15.521  -7.131  1.00  0.00     0.032 C 
BRANCH 114 115
HETATM  115  C   UNL     1     -18.294 -15.700  -6.001  1.00  0.00     0.002 C 
BRANCH 115 116
HETATM  116  C   UNL     1     -17.857 -15.042  -4.689  1.00  0.00     0.000 C 
BRANCH 116 117
HETATM  117  C   UNL     1     -18.879 -14.042  -4.145  1.00  0.00    -0.000 C 
BRANCH 117 118
HETATM  118  C   UNL     1     -18.864 -14.001  -2.621  1.00  0.00    -0.005 C 
HETATM  119  C   UNL     1     -17.703 -14.810  -2.067  1.00  0.00     0.005 C 
ENDBRANCH 117 118
ENDBRANCH 116 117
ENDBRANCH 115 116
ENDBRANCH 114 115
ENDBRANCH 113 114
BRANCH 113 120
HETATM  120  O   UNL     1     -19.078 -16.613  -8.320  1.00  0.00    -0.396 OA
HETATM  121  H   UNL     1     -19.676 -16.362  -9.045  1.00  0.00     0.210 HD
ENDBRANCH 113 120
ENDBRANCH 112 113
ENDBRANCH 111 112
ENDBRANCH 110 111
ENDBRANCH 109 110
ENDBRANCH 108 109
ENDBRANCH 107 108
ENDBRANCH 106 107
ENDBRANCH 105 106
ENDBRANCH 104 105
ENDBRANCH 103 104
ENDBRANCH 101 103
ENDBRANCH 100 101
ENDBRANCH  99 100
ENDBRANCH  75  99
BRANCH  75 122
HETATM  122  C   UNL     1     -22.994  -5.402  -6.908  1.00  0.00     0.194 C 
BRANCH 122 123
HETATM  123  O   UNL     1     -22.878  -5.348  -5.517  1.00  0.00    -0.320 OA
BRANCH 123 124
HETATM  124  C   UNL     1     -23.873  -6.000  -4.885  1.00  0.00     0.258 C 
HETATM  125  O   UNL     1     -25.080  -6.001  -5.119  1.00  0.00    -0.265 OA
BRANCH 124 126
HETATM  126  C   UNL     1     -23.181  -6.995  -3.975  1.00  0.00     0.111 C 
BRANCH 126 127
HETATM  127  C   UNL     1     -22.328  -6.136  -3.084  1.00  0.00     0.010 C 
BRANCH 127 128
HETATM  128  C   UNL     1     -21.723  -7.036  -2.064  1.00  0.00     0.000 C 
BRANCH 128 129
HETATM  129  C   UNL     1     -22.309  -6.622  -0.749  1.00  0.00     0.000 C 
BRANCH 129 130
HETATM  130  C   UNL     1     -22.727  -7.857  -0.008  1.00  0.00     0.000 C 
BRANCH 130 131
HETATM  131  C   UNL     1     -21.495  -8.688   0.245  1.00  0.00     0.000 C 
BRANCH 131 132
HETATM  132  C   UNL     1     -21.868 -10.142   0.126  1.00  0.00     0.000 C 
BRANCH 132 133
HETATM  133  C   UNL     1     -23.010 -10.301  -0.858  1.00  0.00     0.000 C 
BRANCH 133 134
HETATM  134  C   UNL     1     -23.962 -11.340  -0.304  1.00  0.00     0.002 C 
BRANCH 134 135
HETATM  135  C   UNL     1     -23.249 -12.346   0.580  1.00  0.00     0.032 C 
BRANCH 135 136
HETATM  136  C   UNL     1     -22.905 -13.626  -0.184  1.00  0.00     0.118 C 
BRANCH 136 137
HETATM  137  C   UNL     1     -23.608 -13.711  -1.544  1.00  0.00     0.032 C 
BRANCH 137 138
HETATM  138  C   UNL     1     -22.631 -13.595  -2.714  1.00  0.00     0.002 C 
BRANCH 138 139
HETATM  139  C   UNL     1     -22.519 -14.883  -3.533  1.00  0.00     0.000 C 
BRANCH 139 140
HETATM  140  C   UNL     1     -23.217 -14.797  -4.892  1.00  0.00    -0.000 C 
BRANCH 140 141
HETATM  141  C   UNL     1     -23.025 -13.427  -5.535  1.00  0.00    -0.005 C 
HETATM  142  C   UNL     1     -21.791 -13.412  -6.421  1.00  0.00     0.005 C 
ENDBRANCH 140 141
ENDBRANCH 139 140
ENDBRANCH 138 139
ENDBRANCH 137 138
ENDBRANCH 136 137
BRANCH 136 143
HETATM  143  O   UNL     1     -21.492 -13.656  -0.374  1.00  0.00    -0.396 OA
HETATM  144  H   UNL     1     -21.322 -13.901  -1.301  1.00  0.00     0.210 HD
ENDBRANCH 136 143
ENDBRANCH 135 136
ENDBRANCH 134 135
ENDBRANCH 133 134
ENDBRANCH 132 133
ENDBRANCH 131 132
ENDBRANCH 130 131
ENDBRANCH 129 130
ENDBRANCH 128 129
ENDBRANCH 127 128
ENDBRANCH 126 127
ENDBRANCH 124 126
ENDBRANCH 123 124
ENDBRANCH 122 123
ENDBRANCH  75 122
ENDBRANCH  74  75
ENDBRANCH  73  74
ENDBRANCH   1  73
TORSDOF 125
BEGIN_RES ARG D 557
REMARK  4 active torsions:
REMARK  status: ('A' for Active; 'I' for Inactive)
REMARK    1  A    between atoms: CA   and  CB  
REMARK    2  A    between atoms: CB   and  CG  
REMARK    3  A    between atoms: CG   and  CD  
REMARK    4  A    between atoms: CD   and  NE  
REMARK       I    between atoms: NE   and  CZ  
REMARK       I    between atoms: CZ   and  NH1 
REMARK       I    between atoms: CZ   and  NH2 
ROOT
ATOM      1  CA  ARG D 557     -26.217   2.705 -17.014  1.00 35.49     0.159 C 
ENDROOT
BRANCH   1   2
ATOM      2  CB  ARG D 557     -26.789   1.319 -17.183  1.00 35.49     0.034 C 
BRANCH   2   3
ATOM      3  CG  ARG D 557     -28.201   1.230 -17.576  1.00 35.49     0.027 C 
BRANCH   3   4
ATOM      4  CD  ARG D 557     -29.048   0.651 -16.508  1.00 35.49     0.116 C 
BRANCH   4   5
ATOM      5  NE  ARG D 557     -29.729  -0.540 -16.943  1.00 35.49    -0.212 N 
ATOM      6  CZ  ARG D 557     -29.162  -1.695 -17.210  1.00 35.49     0.666 C 
ATOM      7  NH1 ARG D 557     -27.858  -1.884 -17.116  1.00 35.49    -0.235 N 
ATOM      8  NH2 ARG D 557     -29.937  -2.676 -17.571  1.00 35.49    -0.235 N 
ATOM      9  HH  ARG D 557     -27.329  -1.253 -16.878  1.00 35.49     0.174 HD
ATOM     10  HH  ARG D 557     -27.545  -2.660 -17.300  1.00 35.49     0.174 HD
ATOM     11  HH  ARG D 557     -30.776  -2.527 -17.616  1.00 35.49     0.174 HD
ATOM     12  HH  ARG D 557     -29.608  -3.437 -17.748  1.00 35.49     0.174 HD
ATOM     13  HE  ARG D 557     -30.563  -0.489 -17.100  1.00 35.49     0.178 HD
ENDBRANCH   4   5
ENDBRANCH   3   4
ENDBRANCH   2   3
ENDBRANCH   1   2
END_RES ARG D 557
BEGIN_RES GLU D 570
REMARK  3 active torsions:
REMARK  status: ('A' for Active; 'I' for Inactive)
REMARK    5  A    between atoms: CA   and  CB  
REMARK    6  A    between atoms: CB   and  CG  
REMARK    7  A    between atoms: CG   and  CD  
ROOT
ATOM     14  CA  GLU D 570     -18.033  -6.348 -13.375  1.00 32.92     0.160 C 
ENDROOT
BRANCH  14  15
ATOM     15  CB  GLU D 570     -19.500  -6.345 -13.794  1.00 32.92     0.043 C 
BRANCH  15  16
ATOM     16  CG  GLU D 570     -19.866  -5.558 -15.000  1.00 32.92     0.100 C 
BRANCH  16  17
ATOM     17  CD  GLU D 570     -20.365  -6.420 -16.137  1.00 32.92     0.185 C 
ATOM     18  OE1 GLU D 570     -20.609  -5.889 -17.237  1.00 32.92    -0.647 OA
ATOM     19  OE2 GLU D 570     -20.530  -7.636 -15.919  1.00 32.92    -0.647 OA
ENDBRANCH  16  17
ENDBRANCH  15  16
ENDBRANCH  14  15
END_RES GLU D 570
ENDMDL
MODEL 3
REMARK VINA RESULT:      -3.1      1.455      2.008
REMARK WARNING: 32 MAX_TORS EXCEEDED!!!
REMARK  125 active torsions:
REMARK  status: ('A' for Active; 'I' for Inactive)
REMARK    1  A    between atoms: C_2  and  C_3 
REMARK    2  A    between atoms: C_3  and  C_4 
REMARK    3  A    between atoms: C_4  and  C_5 
REMARK    4  A    between atoms: C_5  and  C_6 
REMARK    5  A    between atoms: C_6  and  C_7 
REMARK    6  A    between atoms: C_7  and  C_8 
REMARK    7  A    between atoms: C_7  and  O_138 
REMARK    8  A    between atoms: C_8  and  C_9 
REMARK    9  A    between atoms: C_9  and  C_10 
REMARK   10  A    between atoms: C_10  and  C_11 
REMARK   11  A    between atoms: C_11  and  C_12 
REMARK   12  A    between atoms: C_12  and  C_13 
REMARK   13  A    between atoms: C_13  and  C_14 
REMARK   14  A    between atoms: C_14  and  C_15 
REMARK   15  A    between atoms: C_15  and  C_16 
REMARK   16  A    between atoms: C_16  and  C_17 
REMARK   17  A    between atoms: C_17  and  C_18 
REMARK   18  A    between atoms: C_18  and  O_20 
REMARK   19  A    between atoms: O_20  and  C_21 
REMARK   20  A    between atoms: C_21  and  C_22 
REMARK   21  A    between atoms: C_22  and  C_23 
REMARK   22  A    between atoms: C_22  and  C_93 
REMARK   23  A    between atoms: C_22  and  C_116 
REMARK   24  A    between atoms: C_23  and  O_24 
REMARK   25  A    between atoms: O_24  and  C_25 
REMARK   26  A    between atoms: C_25  and  C_26 
REMARK   27  A    between atoms: C_26  and  C_27 
REMARK   28  A    between atoms: C_26  and  C_49 
REMARK   29  A    between atoms: C_26  and  C_71 
REMARK   30  A    between atoms: C_27  and  O_28 
REMARK   31  A    between atoms: O_28  and  C_29 
REMARK   32  A    between atoms: C_29  and  C_31 
REMARK   33  A    between atoms: C_31  and  C_32 
REMARK   34  A    between atoms: C_32  and  C_33 
REMARK   35  A    between atoms: C_33  and  C_34 
REMARK   36  A    between atoms: C_34  and  C_35 
REMARK   37  A    between atoms: C_35  and  C_36 
REMARK   38  A    between atoms: C_36  and  C_37 
REMARK   39  A    between atoms: C_37  and  C_38 
REMARK   40  A    between atoms: C_38  and  C_39 
REMARK   41  A    between atoms: C_39  and  C_40 
REMARK   42  A    between atoms: C_40  and  C_41 
REMARK   43  A    between atoms: C_41  and  C_42 
REMARK   44  A    between atoms: C_41  and  O_48 
REMARK   45  A    between atoms: C_42  and  C_43 
REMARK   46  A    between atoms: C_43  and  C_44 
REMARK   47  A    between atoms: C_44  and  C_45 
REMARK   48  A    between atoms: C_45  and  C_46 
REMARK   49  A    between atoms: C_49  and  O_50 
REMARK   50  A    between atoms: O_50  and  C_51 
REMARK   51  A    between atoms: C_51  and  C_53 
REMARK   52  A    between atoms: C_53  and  C_54 
REMARK   53  A    between atoms: C_54  and  C_55 
REMARK   54  A    between atoms: C_55  and  C_56 
REMARK   55  A    between atoms: C_56  and  C_57 
REMARK   56  A    between atoms: C_57  and  C_58 
REMARK   57  A    between atoms: C_58  and  C_59 
REMARK   58  A    between atoms: C_59  and  C_60 
REMARK   59  A    between atoms: C_60  and  C_61 
REMARK   60  A    between atoms: C_61  and  C_62 
REMARK   61  A    between atoms: C_62  and  C_63 
REMARK   62  A    between atoms: C_63  and  C_64 
REMARK   63  A    between atoms: C_63  and  O_70 
REMARK   64  A    between atoms: C_64  and  C_65 
REMARK   65  A    between atoms: C_65  and  C_66 
REMARK   66  A    between atoms: C_66  and  C_67 
REMARK   67  A    between atoms: C_67  and  C_68 
REMARK   68  A    between atoms: C_71  and  O_72 
REMARK   69  A    between atoms: O_72  and  C_73 
REMARK   70  A    between atoms: C_73  and  C_75 
REMARK   71  A    between atoms: C_75  and  C_76 
REMARK   72  A    between atoms: C_76  and  C_77 
REMARK   73  A    between atoms: C_77  and  C_78 
REMARK   74  A    between atoms: C_78  and  C_79 
REMARK   75  A    between atoms: C_79  and  C_80 
REMARK   76  A    between atoms: C_80  and  C_81 
REMARK   77  A    between atoms: C_81  and  C_82 
REMARK   78  A    between atoms: C_82  and  C_83 
REMARK   79  A    between atoms: C_83  and  C_84 
REMARK   80  A    between atoms: C_84  and  C_85 
REMARK   81  A    between atoms: C_85  and  C_86 
REMARK   82  A    between atoms: C_85  and  O_92 
REMARK   83  A    between atoms: C_86  and  C_87 
REMARK   84  A    between atoms: C_87  and  C_88 
REMARK   85  A    between atoms: C_88  and  C_89 
REMARK   86  A    between atoms: C_89  and  C_90 
REMARK   87  A    between atoms: C_93  and  O_94 
REMARK   88  A    between atoms: O_94  and  C_95 
REMARK   89  A    between atoms: C_95  and  O_96 
REMARK   90  A    between atoms: C_95  and  C_98 
REMARK   91  A    between atoms: C_98  and  C_99 
REMARK   92  A    between atoms: C_99  and  C_100 
REMARK   93  A    between atoms: C_100  and  C_101 
REMARK   94  A    between atoms: C_101  and  C_102 
REMARK   95  A    between atoms: C_102  and  C_103 
REMARK   96  A    between atoms: C_103  and  C_104 
REMARK   97  A    between atoms: C_104  and  C_105 
REMARK   98  A    between atoms: C_105  and  C_106 
REMARK   99  A    between atoms: C_106  and  C_107 
REMARK  100  A    between atoms: C_107  and  C_108 
REMARK  101  A    between atoms: C_108  and  C_109 
REMARK  102  A    between atoms: C_108  and  O_115 
REMARK  103  A    between atoms: C_109  and  C_110 
REMARK  104  A    between atoms: C_110  and  C_111 
REMARK  105  A    between atoms: C_111  and  C_112 
REMARK  106  A    between atoms: C_112  and  C_113 
REMARK  107  A    between atoms: C_116  and  O_117 
REMARK  108  A    between atoms: O_117  and  C_118 
REMARK  109  A    between atoms: C_118  and  C_120 
REMARK  110  A    between atoms: C_120  and  C_121 
REMARK  111  A    between atoms: C_121  and  C_122 
REMARK  112  A    between atoms: C_122  and  C_123 
REMARK  113  A    between atoms: C_123  and  C_124 
REMARK  114  A    between atoms: C_124  and  C_125 
REMARK  115  A    between atoms: C_125  and  C_126 
REMARK  116  A    between atoms: C_126  and  C_127 
REMARK  117  A    between atoms: C_127  and  C_128 
REMARK  118  A    between atoms: C_128  and  C_129 
REMARK  119  A    between atoms: C_129  and  C_130 
REMARK  120  A    between atoms: C_130  and  C_131 
REMARK  121  A    between atoms: C_130  and  O_137 
REMARK  122  A    between atoms: C_131  and  C_132 
REMARK  123  A    between atoms: C_132  and  C_133 
REMARK  124  A    between atoms: C_133  and  C_134 
REMARK  125  A    between atoms: C_134  and  C_135 
ROOT
HETATM    1  C   UNL     1     -23.574  -5.195 -10.916  1.00  0.00     0.183 C 
ENDROOT
BRANCH   1   2
HETATM    2  C   UNL     1     -23.124  -4.353 -12.296  1.00  0.00     0.047 C 
BRANCH   2   3
HETATM    3  C   UNL     1     -24.392  -3.478 -12.639  1.00  0.00     0.194 C 
BRANCH   3   4
HETATM    4  O   UNL     1     -24.713  -3.633 -14.081  1.00  0.00    -0.320 OA
BRANCH   4   5
HETATM    5  C   UNL     1     -25.891  -3.213 -14.641  1.00  0.00     0.258 C 
HETATM    6  O   UNL     1     -26.426  -2.144 -14.386  1.00  0.00    -0.265 OA
BRANCH   5   7
HETATM    7  C   UNL     1     -26.479  -4.259 -15.607  1.00  0.00     0.111 C 
BRANCH   7   8
HETATM    8  C   UNL     1     -28.022  -4.442 -15.629  1.00  0.00     0.010 C 
BRANCH   8   9
HETATM    9  C   UNL     1     -28.567  -5.611 -14.681  1.00  0.00     0.000 C 
BRANCH   9  10
HETATM   10  C   UNL     1     -30.071  -5.539 -14.124  1.00  0.00     0.000 C 
BRANCH  10  11
HETATM   11  C   UNL     1     -30.793  -5.175 -12.643  1.00  0.00     0.000 C 
BRANCH  11  12
HETATM   12  C   UNL     1     -32.286  -4.648 -12.374  1.00  0.00     0.000 C 
BRANCH  12  13
HETATM   13  C   UNL     1     -32.959  -5.393 -11.236  1.00  0.00     0.000 C 
BRANCH  13  14
HETATM   14  C   UNL     1     -34.046  -4.550 -10.560  1.00  0.00     0.000 C 
BRANCH  14  15
HETATM   15  C   UNL     1     -33.813  -3.062 -10.787  1.00  0.00     0.002 C 
BRANCH  15  16
HETATM   16  C   UNL     1     -35.140  -2.323 -10.694  1.00  0.00     0.032 C 
BRANCH  16  17
HETATM   17  C   UNL     1     -35.280  -1.207 -11.705  1.00  0.00     0.118 C 
BRANCH  17  18
HETATM   18  C   UNL     1     -36.175  -0.097 -11.159  1.00  0.00     0.032 C 
BRANCH  18  19
HETATM   19  C   UNL     1     -37.355  -0.665 -10.379  1.00  0.00     0.002 C 
BRANCH  19  20
HETATM   20  C   UNL     1     -37.809   0.282  -9.290  1.00  0.00     0.000 C 
BRANCH  20  21
HETATM   21  C   UNL     1     -36.831   0.197  -8.128  1.00  0.00    -0.000 C 
BRANCH  21  22
HETATM   22  C   UNL     1     -37.079   1.330  -7.146  1.00  0.00    -0.005 C 
HETATM   23  C   UNL     1     -37.149   0.800  -5.730  1.00  0.00     0.005 C 
ENDBRANCH  21  22
ENDBRANCH  20  21
ENDBRANCH  19  20
ENDBRANCH  18  19
ENDBRANCH  17  18
BRANCH  17  24
HETATM   24  O   UNL     1     -35.876  -1.724 -12.893  1.00  0.00    -0.396 OA
HETATM   25  H   UNL     1     -35.155  -1.917 -13.518  1.00  0.00     0.210 HD
ENDBRANCH  17  24
ENDBRANCH  16  17
ENDBRANCH  15  16
ENDBRANCH  14  15
ENDBRANCH  13  14
ENDBRANCH  12  13
ENDBRANCH  11  12
ENDBRANCH  10  11
ENDBRANCH   9  10
ENDBRANCH   8   9
ENDBRANCH   7   8
ENDBRANCH   5   7
ENDBRANCH   4   5
ENDBRANCH   3   4
ENDBRANCH   2   3
BRANCH   2  26
HETATM   26  C   UNL     1     -22.773  -4.964 -13.692  1.00  0.00     0.187 C 
BRANCH  26  27
HETATM   27  O   UNL     1     -23.781  -6.188 -14.342  1.00  0.00    -0.360 OA
BRANCH  27  28
HETATM   28  C   UNL     1     -24.504  -6.810 -15.425  1.00  0.00     0.256 C 
BRANCH  28  29
HETATM   29  O   UNL     1     -25.602  -7.432 -15.080  1.00  0.00    -0.371 OA
ATOM     30  HO  UNL     1     -25.790  -7.437 -14.148  1.00  0.00     0.212 HD
ENDBRANCH  28  29
BRANCH  28  31
HETATM   31  C   UNL     1     -24.095  -6.999 -16.955  1.00  0.00     0.060 C 
BRANCH  31  32
HETATM   32  C   UNL     1     -24.939  -6.815 -18.254  1.00  0.00     0.005 C 
BRANCH  32  33
HETATM   33  C   UNL     1     -24.129  -7.252 -19.524  1.00  0.00     0.000 C 
BRANCH  33  34
HETATM   34  C   UNL     1     -25.030  -7.259 -20.739  1.00  0.00     0.000 C 
BRANCH  34  35
HETATM   35  C   UNL     1     -26.508  -7.166 -20.401  1.00  0.00     0.000 C 
BRANCH  35  36
HETATM   36  C   UNL     1     -27.171  -8.309 -21.146  1.00  0.00     0.000 C 
BRANCH  36  37
HETATM   37  C   UNL     1     -28.517  -8.644 -20.564  1.00  0.00     0.000 C 
BRANCH  37  38
HETATM   38  C   UNL     1     -28.617  -8.015 -19.183  1.00  0.00     0.000 C 
BRANCH  38  39
HETATM   39  C   UNL     1     -30.077  -7.923 -18.816  1.00  0.00     0.002 C 
BRANCH  39  40
HETATM   40  C   UNL     1     -30.299  -7.032 -17.608  1.00  0.00     0.032 C 
BRANCH  40  41
HETATM   41  C   UNL     1     -30.674  -5.612 -18.026  1.00  0.00     0.118 C 
BRANCH  41  42
HETATM   42  C   UNL     1     -31.314  -4.827 -16.881  1.00  0.00     0.032 C 
BRANCH  42  43
HETATM   43  C   UNL     1     -31.850  -3.473 -17.335  1.00  0.00     0.002 C 
BRANCH  43  44
HETATM   44  C   UNL     1     -33.363  -3.487 -17.542  1.00  0.00     0.000 C 
BRANCH  44  45
HETATM   45  C   UNL     1     -34.133  -3.709 -16.240  1.00  0.00    -0.000 C 
BRANCH  45  46
HETATM   46  C   UNL     1     -34.671  -2.397 -15.687  1.00  0.00    -0.005 C 
HETATM   47  C   UNL     1     -35.385  -1.614 -16.775  1.00  0.00     0.005 C 
ENDBRANCH  45  46
ENDBRANCH  44  45
ENDBRANCH  43  44
ENDBRANCH  42  43
ENDBRANCH  41  42
BRANCH  41  48
HETATM   48  O   UNL     1     -29.484  -4.947 -18.449  1.00  0.00    -0.396 OA
HETATM   49  H   UNL     1     -28.772  -5.611 -18.464  1.00  0.00     0.210 HD
ENDBRANCH  41  48
ENDBRANCH  40  41
ENDBRANCH  39  40
ENDBRANCH  38  39
ENDBRANCH  37  38
ENDBRANCH  36  37
ENDBRANCH  35  36
ENDBRANCH  34  35
ENDBRANCH  33  34
ENDBRANCH  32  33
ENDBRANCH  31  32
ENDBRANCH  28  31
ENDBRANCH  27  28
ENDBRANCH  26  27
ENDBRANCH   2  26
BRANCH   2  50
HETATM   50  C   UNL     1     -21.785  -3.665 -12.052  1.00  0.00     0.194 C 
BRANCH  50  51
HETATM   51  O   UNL     1     -21.911  -2.304 -11.739  1.00  0.00    -0.320 OA
BRANCH  51  52
HETATM   52  C   UNL     1     -20.740  -1.751 -11.330  1.00  0.00     0.258 C 
HETATM   53  O   UNL     1     -19.767  -2.325 -10.854  1.00  0.00    -0.265 OA
BRANCH  52  54
HETATM   54  C   UNL     1     -20.805  -0.298 -11.632  1.00  0.00     0.111 C 
BRANCH  54  55
HETATM   55  C   UNL     1     -19.576   0.391 -11.070  1.00  0.00     0.010 C 
BRANCH  55  56
HETATM   56  C   UNL     1     -19.691   1.868 -11.383  1.00  0.00     0.000 C 
BRANCH  56  57
HETATM   57  C   UNL     1     -21.067   2.390 -11.033  1.00  0.00     0.000 C 
BRANCH  57  58
HETATM   58  C   UNL     1     -20.937   3.762 -10.396  1.00  0.00     0.000 C 
BRANCH  58  59
HETATM   59  C   UNL     1     -21.784   3.823  -9.139  1.00  0.00     0.000 C 
BRANCH  59  60
HETATM   60  C   UNL     1     -23.219   4.162  -9.496  1.00  0.00     0.000 C 
BRANCH  60  61
HETATM   61  C   UNL     1     -24.022   4.473  -8.240  1.00  0.00     0.000 C 
BRANCH  61  62
HETATM   62  C   UNL     1     -25.305   5.181  -8.641  1.00  0.00     0.002 C 
BRANCH  62  63
HETATM   63  C   UNL     1     -25.274   5.657 -10.086  1.00  0.00     0.032 C 
BRANCH  63  64
HETATM   64  C   UNL     1     -26.030   6.977 -10.273  1.00  0.00     0.118 C 
BRANCH  64  65
HETATM   65  C   UNL     1     -25.144   8.098 -10.831  1.00  0.00     0.032 C 
BRANCH  65  66
HETATM   66  C   UNL     1     -23.977   7.556 -11.660  1.00  0.00     0.002 C 
BRANCH  66  67
HETATM   67  C   UNL     1     -22.716   8.418 -11.565  1.00  0.00     0.000 C 
BRANCH  67  68
HETATM   68  C   UNL     1     -23.010   9.872 -11.195  1.00  0.00    -0.000 C 
BRANCH  68  69
HETATM   69  C   UNL     1     -21.727  10.658 -10.938  1.00  0.00    -0.005 C 
HETATM   70  C   UNL     1     -21.308  11.426 -12.182  1.00  0.00     0.005 C 
ENDBRANCH  68  69
ENDBRANCH  67  68
ENDBRANCH  66  67
ENDBRANCH  65  66
ENDBRANCH  64  65
BRANCH  64  71
HETATM   71  O   UNL     1     -27.115   6.741 -11.171  1.00  0.00    -0.396 OA
HETATM   72  H   UNL     1     -26.856   6.011 -11.759  1.00  0.00     0.210 HD
ENDBRANCH  64  71
ENDBRANCH  63  64
ENDBRANCH  62  63
ENDBRANCH  61  62
ENDBRANCH  60  61
ENDBRANCH  59  60
ENDBRANCH  58  59
ENDBRANCH  57  58
ENDBRANCH  56  57
ENDBRANCH  55  56
ENDBRANCH  54  55
ENDBRANCH  52  54
ENDBRANCH  51  52
ENDBRANCH  50  51
ENDBRANCH   2  50
ENDBRANCH   1   2
BRANCH   1  73
HETATM   73  O   UNL     1     -23.182  -4.673  -9.599  1.00  0.00    -0.389 OA
BRANCH  73  74
HETATM   74  C   UNL     1     -21.777  -4.785  -9.172  1.00  0.00     0.183 C 
BRANCH  74  75
HETATM   75  C   UNL     1     -21.576  -5.122  -7.581  1.00  0.00     0.047 C 
BRANCH  75  76
HETATM   76  C   UNL     1     -20.827  -6.407  -7.284  1.00  0.00     0.194 C 
BRANCH  76  77
HETATM   77  O   UNL     1     -21.610  -7.475  -6.736  1.00  0.00    -0.320 OA
BRANCH  77  78
HETATM   78  C   UNL     1     -20.991  -8.119  -5.721  1.00  0.00     0.258 C 
HETATM   79  O   UNL     1     -20.109  -7.559  -5.054  1.00  0.00    -0.265 OA
BRANCH  78  80
HETATM   80  C   UNL     1     -21.383  -9.590  -5.670  1.00  0.00     0.111 C 
BRANCH  80  81
HETATM   81  C   UNL     1     -21.045 -10.509  -4.433  1.00  0.00     0.010 C 
BRANCH  81  82
HETATM   82  C   UNL     1     -19.933 -10.624  -3.168  1.00  0.00     0.000 C 
BRANCH  82  83
HETATM   83  C   UNL     1     -18.300 -10.073  -2.690  1.00  0.00     0.000 C 
BRANCH  83  84
HETATM   84  C   UNL     1     -16.943 -10.772  -1.942  1.00  0.00     0.000 C 
BRANCH  84  85
HETATM   85  C   UNL     1     -17.092 -12.042  -1.114  1.00  0.00     0.000 C 
BRANCH  85  86
HETATM   86  C   UNL     1     -15.866 -12.166  -0.311  1.00  0.00     0.000 C 
BRANCH  86  87
HETATM   87  C   UNL     1     -16.275 -12.465   1.075  1.00  0.00     0.000 C 
BRANCH  87  88
HETATM   88  C   UNL     1     -15.437 -13.637   1.429  1.00  0.00     0.002 C 
BRANCH  88  89
HETATM   89  C   UNL     1     -14.078 -13.225   1.070  1.00  0.00     0.032 C 
BRANCH  89  90
HETATM   90  C   UNL     1     -13.124 -14.434   0.932  1.00  0.00     0.118 C 
BRANCH  90  91
HETATM   91  C   UNL     1     -11.355 -14.146   0.580  1.00  0.00     0.032 C 
BRANCH  91  92
HETATM   92  C   UNL     1     -10.101 -13.084   1.183  1.00  0.00     0.002 C 
BRANCH  92  93
HETATM   93  C   UNL     1      -9.568 -13.207   2.609  1.00  0.00     0.000 C 
BRANCH  93  94
HETATM   94  C   UNL     1      -8.691 -14.394   2.616  1.00  0.00    -0.000 C 
BRANCH  94  95
HETATM   95  C   UNL     1      -8.408 -14.770   4.024  1.00  0.00    -0.005 C 
HETATM   96  C   UNL     1      -9.012 -13.658   4.811  1.00  0.00     0.005 C 
ENDBRANCH  94  95
ENDBRANCH  93  94
ENDBRANCH  92  93
ENDBRANCH  91  92
ENDBRANCH  90  91
BRANCH  90  97
HETATM   97  O   UNL     1     -13.711 -15.108   2.094  1.00  0.00    -0.396 OA
HETATM   98  H   UNL     1     -13.086 -15.483   2.725  1.00  0.00     0.210 HD
ENDBRANCH  90  97
ENDBRANCH  89  90
ENDBRANCH  88  89
ENDBRANCH  87  88
ENDBRANCH  86  87
ENDBRANCH  85  86
ENDBRANCH  84  85
ENDBRANCH  83  84
ENDBRANCH  82  83
ENDBRANCH  81  82
ENDBRANCH  80  81
ENDBRANCH  78  80
ENDBRANCH  77  78
ENDBRANCH  76  77
ENDBRANCH  75  76
BRANCH  75  99
HETATM   99  C   UNL     1     -20.719  -4.071  -6.831  1.00  0.00     0.194 C 
BRANCH  99 100
HETATM  100  O   UNL     1     -19.483  -4.630  -6.344  1.00  0.00    -0.320 OA
BRANCH 100 101
HETATM  101  C   UNL     1     -18.439  -4.628  -7.205  1.00  0.00     0.258 C 
HETATM  102  O   UNL     1     -18.333  -3.890  -8.175  1.00  0.00    -0.265 OA
BRANCH 101 103
HETATM  103  C   UNL     1     -17.434  -5.672  -6.802  1.00  0.00     0.111 C 
BRANCH 103 104
HETATM  104  C   UNL     1     -17.923  -7.082  -7.109  1.00  0.00     0.010 C 
BRANCH 104 105
HETATM  105  C   UNL     1     -17.119  -8.190  -6.417  1.00  0.00     0.000 C 
BRANCH 105 106
HETATM  106  C   UNL     1     -17.833  -9.540  -6.369  1.00  0.00     0.000 C 
BRANCH 106 107
HETATM  107  C   UNL     1     -16.865 -10.670  -6.059  1.00  0.00     0.000 C 
BRANCH 107 108
HETATM  108  C   UNL     1     -15.588 -10.129  -5.440  1.00  0.00     0.000 C 
BRANCH 108 109
HETATM  109  C   UNL     1     -14.831 -11.267  -4.782  1.00  0.00     0.000 C 
BRANCH 109 110
HETATM  110  C   UNL     1     -14.226 -12.186  -5.831  1.00  0.00     0.000 C 
BRANCH 110 111
HETATM  111  C   UNL     1     -13.321 -13.187  -5.134  1.00  0.00     0.002 C 
BRANCH 111 112
HETATM  112  C   UNL     1     -13.248 -12.942  -3.636  1.00  0.00     0.032 C 
BRANCH 112 113
HETATM  113  C   UNL     1     -13.320 -14.247  -2.838  1.00  0.00     0.118 C 
BRANCH 113 114
HETATM  114  C   UNL     1     -14.758 -14.692  -2.557  1.00  0.00     0.032 C 
BRANCH 114 115
HETATM  115  C   UNL     1     -15.239 -15.765  -3.535  1.00  0.00     0.002 C 
BRANCH 115 116
HETATM  116  C   UNL     1     -16.394 -15.294  -4.424  1.00  0.00     0.000 C 
BRANCH 116 117
HETATM  117  C   UNL     1     -16.952 -13.930  -4.016  1.00  0.00    -0.000 C 
BRANCH 117 118
HETATM  118  C   UNL     1     -18.381 -13.738  -4.514  1.00  0.00    -0.005 C 
HETATM  119  C   UNL     1     -19.208 -14.992  -4.286  1.00  0.00     0.005 C 
ENDBRANCH 117 118
ENDBRANCH 116 117
ENDBRANCH 115 116
ENDBRANCH 114 115
ENDBRANCH 113 114
BRANCH 113 120
HETATM  120  O   UNL     1     -12.648 -15.255  -3.590  1.00  0.00    -0.396 OA
HETATM  121  H   UNL     1     -12.460 -14.892  -4.473  1.00  0.00     0.210 HD
ENDBRANCH 113 120
ENDBRANCH 112 113
ENDBRANCH 111 112
ENDBRANCH 110 111
ENDBRANCH 109 110
ENDBRANCH 108 109
ENDBRANCH 107 108
ENDBRANCH 106 107
ENDBRANCH 105 106
ENDBRANCH 104 105
ENDBRANCH 103 104
ENDBRANCH 101 103
ENDBRANCH 100 101
ENDBRANCH  99 100
ENDBRANCH  75  99
BRANCH  75 122
HETATM  122  C   UNL     1     -22.978  -5.334  -6.951  1.00  0.00     0.194 C 
BRANCH 122 123
HETATM  123  O   UNL     1     -22.839  -5.337  -5.560  1.00  0.00    -0.320 OA
BRANCH 123 124
HETATM  124  C   UNL     1     -23.849  -5.975  -4.937  1.00  0.00     0.258 C 
HETATM  125  O   UNL     1     -25.047  -5.998  -5.213  1.00  0.00    -0.265 OA
BRANCH 124 126
HETATM  126  C   UNL     1     -23.180  -6.926  -3.966  1.00  0.00     0.111 C 
BRANCH 126 127
HETATM  127  C   UNL     1     -22.346  -6.025  -3.097  1.00  0.00     0.010 C 
BRANCH 127 128
HETATM  128  C   UNL     1     -21.664  -6.896  -2.101  1.00  0.00     0.000 C 
BRANCH 128 129
HETATM  129  C   UNL     1     -22.444  -6.759  -0.830  1.00  0.00     0.000 C 
BRANCH 129 130
HETATM  130  C   UNL     1     -22.180  -7.966   0.020  1.00  0.00     0.000 C 
BRANCH 130 131
HETATM  131  C   UNL     1     -22.481  -9.191  -0.806  1.00  0.00     0.000 C 
BRANCH 131 132
HETATM  132  C   UNL     1     -22.147 -10.411   0.011  1.00  0.00     0.000 C 
BRANCH 132 133
HETATM  133  C   UNL     1     -20.661 -10.441   0.306  1.00  0.00     0.000 C 
BRANCH 133 134
HETATM  134  C   UNL     1     -20.316 -11.821   0.826  1.00  0.00     0.002 C 
BRANCH 134 135
HETATM  135  C   UNL     1     -21.513 -12.753   0.794  1.00  0.00     0.032 C 
BRANCH 135 136
HETATM  136  C   UNL     1     -21.093 -14.205   0.558  1.00  0.00     0.118 C 
BRANCH 136 137
HETATM  137  C   UNL     1     -22.009 -14.933  -0.433  1.00  0.00     0.032 C 
BRANCH 137 138
HETATM  138  C   UNL     1     -23.382 -14.272  -0.551  1.00  0.00     0.002 C 
BRANCH 138 139
HETATM  139  C   UNL     1     -23.703 -13.805  -1.974  1.00  0.00     0.000 C 
BRANCH 139 140
HETATM  140  C   UNL     1     -22.461 -13.648  -2.853  1.00  0.00    -0.000 C 
BRANCH 140 141
HETATM  141  C   UNL     1     -22.787 -13.862  -4.327  1.00  0.00    -0.005 C 
HETATM  142  C   UNL     1     -22.804 -15.343  -4.669  1.00  0.00     0.005 C 
ENDBRANCH 140 141
ENDBRANCH 139 140
ENDBRANCH 138 139
ENDBRANCH 137 138
ENDBRANCH 136 137
BRANCH 136 143
HETATM  143  O   UNL     1     -19.757 -14.198   0.057  1.00  0.00    -0.396 OA
HETATM  144  H   UNL     1     -19.422 -15.111   0.096  1.00  0.00     0.210 HD
ENDBRANCH 136 143
ENDBRANCH 135 136
ENDBRANCH 134 135
ENDBRANCH 133 134
ENDBRANCH 132 133
ENDBRANCH 131 132
ENDBRANCH 130 131
ENDBRANCH 129 130
ENDBRANCH 128 129
ENDBRANCH 127 128
ENDBRANCH 126 127
ENDBRANCH 124 126
ENDBRANCH 123 124
ENDBRANCH 122 123
ENDBRANCH  75 122
ENDBRANCH  74  75
ENDBRANCH  73  74
ENDBRANCH   1  73
TORSDOF 125
BEGIN_RES ARG D 557
REMARK  4 active torsions:
REMARK  status: ('A' for Active; 'I' for Inactive)
REMARK    1  A    between atoms: CA   and  CB  
REMARK    2  A    between atoms: CB   and  CG  
REMARK    3  A    between atoms: CG   and  CD  
REMARK    4  A    between atoms: CD   and  NE  
REMARK       I    between atoms: NE   and  CZ  
REMARK       I    between atoms: CZ   and  NH1 
REMARK       I    between atoms: CZ   and  NH2 
ROOT
ATOM      1  CA  ARG D 557     -26.217   2.705 -17.014  1.00 35.49     0.159 C 
ENDROOT
BRANCH   1   2
ATOM      2  CB  ARG D 557     -26.789   1.319 -17.183  1.00 35.49     0.034 C 
BRANCH   2   3
ATOM      3  CG  ARG D 557     -25.897   0.301 -17.751  1.00 35.49     0.027 C 
BRANCH   3   4
ATOM      4  CD  ARG D 557     -24.514   0.411 -17.234  1.00 35.49     0.116 C 
BRANCH   4   5
ATOM      5  NE  ARG D 557     -24.429   0.078 -15.836  1.00 35.49    -0.212 N 
ATOM      6  CZ  ARG D 557     -23.522  -0.697 -15.285  1.00 35.49     0.666 C 
ATOM      7  NH1 ARG D 557     -22.569  -1.283 -15.986  1.00 35.49    -0.235 N 
ATOM      8  NH2 ARG D 557     -23.585  -0.873 -13.997  1.00 35.49    -0.235 N 
ATOM      9  HH  ARG D 557     -22.507  -1.180 -16.835  1.00 35.49     0.174 HD
ATOM     10  HH  ARG D 557     -22.003  -1.776 -15.572  1.00 35.49     0.174 HD
ATOM     11  HH  ARG D 557     -24.207  -0.476 -13.569  1.00 35.49     0.174 HD
ATOM     12  HH  ARG D 557     -23.015  -1.363 -13.605  1.00 35.49     0.174 HD
ATOM     13  HE  ARG D 557     -25.047   0.354 -15.322  1.00 35.49     0.178 HD
ENDBRANCH   4   5
ENDBRANCH   3   4
ENDBRANCH   2   3
ENDBRANCH   1   2
END_RES ARG D 557
BEGIN_RES GLU D 570
REMARK  3 active torsions:
REMARK  status: ('A' for Active; 'I' for Inactive)
REMARK    5  A    between atoms: CA   and  CB  
REMARK    6  A    between atoms: CB   and  CG  
REMARK    7  A    between atoms: CG   and  CD  
ROOT
ATOM     14  CA  GLU D 570     -18.033  -6.348 -13.375  1.00 32.92     0.160 C 
ENDROOT
BRANCH  14  15
ATOM     15  CB  GLU D 570     -19.500  -6.345 -13.794  1.00 32.92     0.043 C 
BRANCH  15  16
ATOM     16  CG  GLU D 570     -20.091  -7.638 -14.227  1.00 32.92     0.100 C 
BRANCH  16  17
ATOM     17  CD  GLU D 570     -20.696  -7.575 -15.610  1.00 32.92     0.185 C 
ATOM     18  OE1 GLU D 570     -21.304  -8.570 -16.050  1.00 32.92    -0.647 OA
ATOM     19  OE2 GLU D 570     -20.546  -6.526 -16.267  1.00 32.92    -0.647 OA
ENDBRANCH  16  17
ENDBRANCH  15  16
ENDBRANCH  14  15
END_RES GLU D 570
ENDMDL
MODEL 4
REMARK VINA RESULT:      -3.0      1.803      3.339
REMARK WARNING: 32 MAX_TORS EXCEEDED!!!
REMARK  125 active torsions:
REMARK  status: ('A' for Active; 'I' for Inactive)
REMARK    1  A    between atoms: C_2  and  C_3 
REMARK    2  A    between atoms: C_3  and  C_4 
REMARK    3  A    between atoms: C_4  and  C_5 
REMARK    4  A    between atoms: C_5  and  C_6 
REMARK    5  A    between atoms: C_6  and  C_7 
REMARK    6  A    between atoms: C_7  and  C_8 
REMARK    7  A    between atoms: C_7  and  O_138 
REMARK    8  A    between atoms: C_8  and  C_9 
REMARK    9  A    between atoms: C_9  and  C_10 
REMARK   10  A    between atoms: C_10  and  C_11 
REMARK   11  A    between atoms: C_11  and  C_12 
REMARK   12  A    between atoms: C_12  and  C_13 
REMARK   13  A    between atoms: C_13  and  C_14 
REMARK   14  A    between atoms: C_14  and  C_15 
REMARK   15  A    between atoms: C_15  and  C_16 
REMARK   16  A    between atoms: C_16  and  C_17 
REMARK   17  A    between atoms: C_17  and  C_18 
REMARK   18  A    between atoms: C_18  and  O_20 
REMARK   19  A    between atoms: O_20  and  C_21 
REMARK   20  A    between atoms: C_21  and  C_22 
REMARK   21  A    between atoms: C_22  and  C_23 
REMARK   22  A    between atoms: C_22  and  C_93 
REMARK   23  A    between atoms: C_22  and  C_116 
REMARK   24  A    between atoms: C_23  and  O_24 
REMARK   25  A    between atoms: O_24  and  C_25 
REMARK   26  A    between atoms: C_25  and  C_26 
REMARK   27  A    between atoms: C_26  and  C_27 
REMARK   28  A    between atoms: C_26  and  C_49 
REMARK   29  A    between atoms: C_26  and  C_71 
REMARK   30  A    between atoms: C_27  and  O_28 
REMARK   31  A    between atoms: O_28  and  C_29 
REMARK   32  A    between atoms: C_29  and  C_31 
REMARK   33  A    between atoms: C_31  and  C_32 
REMARK   34  A    between atoms: C_32  and  C_33 
REMARK   35  A    between atoms: C_33  and  C_34 
REMARK   36  A    between atoms: C_34  and  C_35 
REMARK   37  A    between atoms: C_35  and  C_36 
REMARK   38  A    between atoms: C_36  and  C_37 
REMARK   39  A    between atoms: C_37  and  C_38 
REMARK   40  A    between atoms: C_38  and  C_39 
REMARK   41  A    between atoms: C_39  and  C_40 
REMARK   42  A    between atoms: C_40  and  C_41 
REMARK   43  A    between atoms: C_41  and  C_42 
REMARK   44  A    between atoms: C_41  and  O_48 
REMARK   45  A    between atoms: C_42  and  C_43 
REMARK   46  A    between atoms: C_43  and  C_44 
REMARK   47  A    between atoms: C_44  and  C_45 
REMARK   48  A    between atoms: C_45  and  C_46 
REMARK   49  A    between atoms: C_49  and  O_50 
REMARK   50  A    between atoms: O_50  and  C_51 
REMARK   51  A    between atoms: C_51  and  C_53 
REMARK   52  A    between atoms: C_53  and  C_54 
REMARK   53  A    between atoms: C_54  and  C_55 
REMARK   54  A    between atoms: C_55  and  C_56 
REMARK   55  A    between atoms: C_56  and  C_57 
REMARK   56  A    between atoms: C_57  and  C_58 
REMARK   57  A    between atoms: C_58  and  C_59 
REMARK   58  A    between atoms: C_59  and  C_60 
REMARK   59  A    between atoms: C_60  and  C_61 
REMARK   60  A    between atoms: C_61  and  C_62 
REMARK   61  A    between atoms: C_62  and  C_63 
REMARK   62  A    between atoms: C_63  and  C_64 
REMARK   63  A    between atoms: C_63  and  O_70 
REMARK   64  A    between atoms: C_64  and  C_65 
REMARK   65  A    between atoms: C_65  and  C_66 
REMARK   66  A    between atoms: C_66  and  C_67 
REMARK   67  A    between atoms: C_67  and  C_68 
REMARK   68  A    between atoms: C_71  and  O_72 
REMARK   69  A    between atoms: O_72  and  C_73 
REMARK   70  A    between atoms: C_73  and  C_75 
REMARK   71  A    between atoms: C_75  and  C_76 
REMARK   72  A    between atoms: C_76  and  C_77 
REMARK   73  A    between atoms: C_77  and  C_78 
REMARK   74  A    between atoms: C_78  and  C_79 
REMARK   75  A    between atoms: C_79  and  C_80 
REMARK   76  A    between atoms: C_80  and  C_81 
REMARK   77  A    between atoms: C_81  and  C_82 
REMARK   78  A    between atoms: C_82  and  C_83 
REMARK   79  A    between atoms: C_83  and  C_84 
REMARK   80  A    between atoms: C_84  and  C_85 
REMARK   81  A    between atoms: C_85  and  C_86 
REMARK   82  A    between atoms: C_85  and  O_92 
REMARK   83  A    between atoms: C_86  and  C_87 
REMARK   84  A    between atoms: C_87  and  C_88 
REMARK   85  A    between atoms: C_88  and  C_89 
REMARK   86  A    between atoms: C_89  and  C_90 
REMARK   87  A    between atoms: C_93  and  O_94 
REMARK   88  A    between atoms: O_94  and  C_95 
REMARK   89  A    between atoms: C_95  and  O_96 
REMARK   90  A    between atoms: C_95  and  C_98 
REMARK   91  A    between atoms: C_98  and  C_99 
REMARK   92  A    between atoms: C_99  and  C_100 
REMARK   93  A    between atoms: C_100  and  C_101 
REMARK   94  A    between atoms: C_101  and  C_102 
REMARK   95  A    between atoms: C_102  and  C_103 
REMARK   96  A    between atoms: C_103  and  C_104 
REMARK   97  A    between atoms: C_104  and  C_105 
REMARK   98  A    between atoms: C_105  and  C_106 
REMARK   99  A    between atoms: C_106  and  C_107 
REMARK  100  A    between atoms: C_107  and  C_108 
REMARK  101  A    between atoms: C_108  and  C_109 
REMARK  102  A    between atoms: C_108  and  O_115 
REMARK  103  A    between atoms: C_109  and  C_110 
REMARK  104  A    between atoms: C_110  and  C_111 
REMARK  105  A    between atoms: C_111  and  C_112 
REMARK  106  A    between atoms: C_112  and  C_113 
REMARK  107  A    between atoms: C_116  and  O_117 
REMARK  108  A    between atoms: O_117  and  C_118 
REMARK  109  A    between atoms: C_118  and  C_120 
REMARK  110  A    between atoms: C_120  and  C_121 
REMARK  111  A    between atoms: C_121  and  C_122 
REMARK  112  A    between atoms: C_122  and  C_123 
REMARK  113  A    between atoms: C_123  and  C_124 
REMARK  114  A    between atoms: C_124  and  C_125 
REMARK  115  A    between atoms: C_125  and  C_126 
REMARK  116  A    between atoms: C_126  and  C_127 
REMARK  117  A    between atoms: C_127  and  C_128 
REMARK  118  A    between atoms: C_128  and  C_129 
REMARK  119  A    between atoms: C_129  and  C_130 
REMARK  120  A    between atoms: C_130  and  C_131 
REMARK  121  A    between atoms: C_130  and  O_137 
REMARK  122  A    between atoms: C_131  and  C_132 
REMARK  123  A    between atoms: C_132  and  C_133 
REMARK  124  A    between atoms: C_133  and  C_134 
REMARK  125  A    between atoms: C_134  and  C_135 
ROOT
HETATM    1  C   UNL     1     -23.702  -5.214 -10.790  1.00  0.00     0.183 C 
ENDROOT
BRANCH   1   2
HETATM    2  C   UNL     1     -23.211  -4.424 -12.186  1.00  0.00     0.047 C 
BRANCH   2   3
HETATM    3  C   UNL     1     -24.435  -3.497 -12.551  1.00  0.00     0.194 C 
BRANCH   3   4
HETATM    4  O   UNL     1     -24.784  -3.694 -13.981  1.00  0.00    -0.320 OA
BRANCH   4   5
HETATM    5  C   UNL     1     -25.920  -3.187 -14.557  1.00  0.00     0.258 C 
HETATM    6  O   UNL     1     -26.389  -2.091 -14.292  1.00  0.00    -0.265 OA
BRANCH   5   7
HETATM    7  C   UNL     1     -26.553  -4.175 -15.555  1.00  0.00     0.111 C 
BRANCH   7   8
HETATM    8  C   UNL     1     -28.097  -4.347 -15.526  1.00  0.00     0.010 C 
BRANCH   8   9
HETATM    9  C   UNL     1     -28.613  -5.591 -14.660  1.00  0.00     0.000 C 
BRANCH   9  10
HETATM   10  C   UNL     1     -30.095  -5.565 -14.046  1.00  0.00     0.000 C 
BRANCH  10  11
HETATM   11  C   UNL     1     -30.770  -5.223 -12.538  1.00  0.00     0.000 C 
BRANCH  11  12
HETATM   12  C   UNL     1     -32.148  -4.459 -12.222  1.00  0.00     0.000 C 
BRANCH  12  13
HETATM   13  C   UNL     1     -33.104  -5.317 -11.414  1.00  0.00     0.000 C 
BRANCH  13  14
HETATM   14  C   UNL     1     -34.050  -4.469 -10.555  1.00  0.00     0.000 C 
BRANCH  14  15
HETATM   15  C   UNL     1     -34.717  -3.376 -11.380  1.00  0.00     0.002 C 
BRANCH  15  16
HETATM   16  C   UNL     1     -34.620  -2.053 -10.637  1.00  0.00     0.032 C 
BRANCH  16  17
HETATM   17  C   UNL     1     -35.963  -1.503 -10.208  1.00  0.00     0.118 C 
BRANCH  17  18
HETATM   18  C   UNL     1     -36.703  -0.902 -11.400  1.00  0.00     0.032 C 
BRANCH  18  19
HETATM   19  C   UNL     1     -35.805   0.034 -12.200  1.00  0.00     0.002 C 
BRANCH  19  20
HETATM   20  C   UNL     1     -35.852  -0.280 -13.680  1.00  0.00     0.000 C 
BRANCH  20  21
HETATM   21  C   UNL     1     -35.314   0.916 -14.451  1.00  0.00    -0.000 C 
BRANCH  21  22
HETATM   22  C   UNL     1     -36.128   1.137 -15.715  1.00  0.00    -0.005 C 
HETATM   23  C   UNL     1     -35.961   2.557 -16.213  1.00  0.00     0.005 C 
ENDBRANCH  21  22
ENDBRANCH  20  21
ENDBRANCH  19  20
ENDBRANCH  18  19
ENDBRANCH  17  18
BRANCH  17  24
HETATM   24  O   UNL     1     -35.759  -0.475  -9.239  1.00  0.00    -0.396 OA
HETATM   25  H   UNL     1     -36.232   0.315  -9.552  1.00  0.00     0.210 HD
ENDBRANCH  17  24
ENDBRANCH  16  17
ENDBRANCH  15  16
ENDBRANCH  14  15
ENDBRANCH  13  14
ENDBRANCH  12  13
ENDBRANCH  11  12
ENDBRANCH  10  11
ENDBRANCH   9  10
ENDBRANCH   8   9
ENDBRANCH   7   8
ENDBRANCH   5   7
ENDBRANCH   4   5
ENDBRANCH   3   4
ENDBRANCH   2   3
BRANCH   2  26
HETATM   26  C   UNL     1     -22.888  -5.082 -13.569  1.00  0.00     0.187 C 
BRANCH  26  27
HETATM   27  O   UNL     1     -23.968  -6.248 -14.208  1.00  0.00    -0.360 OA
BRANCH  27  28
HETATM   28  C   UNL     1     -24.635  -6.911 -15.302  1.00  0.00     0.256 C 
BRANCH  28  29
HETATM   29  O   UNL     1     -25.857  -7.307 -15.055  1.00  0.00    -0.371 OA
ATOM     30  HO  UNL     1     -26.463  -6.620 -14.800  1.00  0.00     0.212 HD
ENDBRANCH  28  29
BRANCH  28  31
HETATM   31  C   UNL     1     -24.066  -7.382 -16.716  1.00  0.00     0.060 C 
BRANCH  31  32
HETATM   32  C   UNL     1     -24.525  -7.016 -18.161  1.00  0.00     0.005 C 
BRANCH  32  33
HETATM   33  C   UNL     1     -23.372  -7.247 -19.199  1.00  0.00     0.000 C 
BRANCH  33  34
HETATM   34  C   UNL     1     -23.920  -7.892 -20.452  1.00  0.00     0.000 C 
BRANCH  34  35
HETATM   35  C   UNL     1     -25.123  -7.167 -21.032  1.00  0.00     0.000 C 
BRANCH  35  36
HETATM   36  C   UNL     1     -26.192  -8.228 -21.212  1.00  0.00     0.000 C 
BRANCH  36  37
HETATM   37  C   UNL     1     -27.477  -7.842 -20.532  1.00  0.00     0.000 C 
BRANCH  37  38
HETATM   38  C   UNL     1     -27.326  -6.435 -19.975  1.00  0.00     0.000 C 
BRANCH  38  39
HETATM   39  C   UNL     1     -28.282  -6.286 -18.818  1.00  0.00     0.002 C 
BRANCH  39  40
HETATM   40  C   UNL     1     -28.648  -4.833 -18.575  1.00  0.00     0.032 C 
BRANCH  40  41
HETATM   41  C   UNL     1     -30.161  -4.655 -18.458  1.00  0.00     0.118 C 
BRANCH  41  42
HETATM   42  C   UNL     1     -30.771  -5.600 -17.422  1.00  0.00     0.032 C 
BRANCH  42  43
HETATM   43  C   UNL     1     -32.278  -5.411 -17.283  1.00  0.00     0.002 C 
BRANCH  43  44
HETATM   44  C   UNL     1     -32.640  -4.425 -16.174  1.00  0.00     0.000 C 
BRANCH  44  45
HETATM   45  C   UNL     1     -34.122  -4.474 -15.803  1.00  0.00    -0.000 C 
BRANCH  45  46
HETATM   46  C   UNL     1     -34.671  -3.077 -15.543  1.00  0.00    -0.005 C 
HETATM   47  C   UNL     1     -34.712  -2.273 -16.830  1.00  0.00     0.005 C 
ENDBRANCH  45  46
ENDBRANCH  44  45
ENDBRANCH  43  44
ENDBRANCH  42  43
ENDBRANCH  41  42
BRANCH  41  48
HETATM   48  O   UNL     1     -30.418  -3.303 -18.075  1.00  0.00    -0.396 OA
HETATM   49  H   UNL     1     -30.371  -2.761 -18.882  1.00  0.00     0.210 HD
ENDBRANCH  41  48
ENDBRANCH  40  41
ENDBRANCH  39  40
ENDBRANCH  38  39
ENDBRANCH  37  38
ENDBRANCH  36  37
ENDBRANCH  35  36
ENDBRANCH  34  35
ENDBRANCH  33  34
ENDBRANCH  32  33
ENDBRANCH  31  32
ENDBRANCH  28  31
ENDBRANCH  27  28
ENDBRANCH  26  27
ENDBRANCH   2  26
BRANCH   2  50
HETATM   50  C   UNL     1     -21.840  -3.796 -11.955  1.00  0.00     0.194 C 
BRANCH  50  51
HETATM   51  O   UNL     1     -21.896  -2.412 -11.737  1.00  0.00    -0.320 OA
BRANCH  51  52
HETATM   52  C   UNL     1     -20.700  -1.895 -11.353  1.00  0.00     0.258 C 
HETATM   53  O   UNL     1     -19.713  -2.505 -10.957  1.00  0.00    -0.265 OA
BRANCH  52  54
HETATM   54  C   UNL     1     -20.760  -0.427 -11.569  1.00  0.00     0.111 C 
BRANCH  54  55
HETATM   55  C   UNL     1     -19.603   0.238 -10.847  1.00  0.00     0.010 C 
BRANCH  55  56
HETATM   56  C   UNL     1     -19.561   1.689 -11.281  1.00  0.00     0.000 C 
BRANCH  56  57
HETATM   57  C   UNL     1     -20.949   2.290 -11.296  1.00  0.00     0.000 C 
BRANCH  57  58
HETATM   58  C   UNL     1     -20.914   3.653 -10.630  1.00  0.00     0.000 C 
BRANCH  58  59
HETATM   59  C   UNL     1     -21.741   3.622  -9.358  1.00  0.00     0.000 C 
BRANCH  59  60
HETATM   60  C   UNL     1     -23.132   4.163  -9.631  1.00  0.00     0.000 C 
BRANCH  60  61
HETATM   61  C   UNL     1     -23.882   4.386  -8.326  1.00  0.00     0.000 C 
BRANCH  61  62
HETATM   62  C   UNL     1     -25.132   5.203  -8.612  1.00  0.00     0.002 C 
BRANCH  62  63
HETATM   63  C   UNL     1     -25.234   5.607 -10.075  1.00  0.00     0.032 C 
BRANCH  63  64
HETATM   64  C   UNL     1     -25.996   6.924 -10.256  1.00  0.00     0.118 C 
BRANCH  64  65
HETATM   65  C   UNL     1     -25.091   8.083 -10.692  1.00  0.00     0.032 C 
BRANCH  65  66
HETATM   66  C   UNL     1     -25.428   9.387  -9.965  1.00  0.00     0.002 C 
BRANCH  66  67
HETATM   67  C   UNL     1     -24.769  10.618 -10.594  1.00  0.00     0.000 C 
BRANCH  67  68
HETATM   68  C   UNL     1     -25.203  10.855 -12.041  1.00  0.00    -0.000 C 
BRANCH  68  69
HETATM   69  C   UNL     1     -24.001  11.005 -12.970  1.00  0.00    -0.005 C 
HETATM   70  C   UNL     1     -22.778  10.318 -12.384  1.00  0.00     0.005 C 
ENDBRANCH  68  69
ENDBRANCH  67  68
ENDBRANCH  66  67
ENDBRANCH  65  66
ENDBRANCH  64  65
BRANCH  64  71
HETATM   71  O   UNL     1     -27.008   6.718 -11.243  1.00  0.00    -0.396 OA
HETATM   72  H   UNL     1     -27.463   5.886 -11.026  1.00  0.00     0.210 HD
ENDBRANCH  64  71
ENDBRANCH  63  64
ENDBRANCH  62  63
ENDBRANCH  61  62
ENDBRANCH  60  61
ENDBRANCH  59  60
ENDBRANCH  58  59
ENDBRANCH  57  58
ENDBRANCH  56  57
ENDBRANCH  55  56
ENDBRANCH  54  55
ENDBRANCH  52  54
ENDBRANCH  51  52
ENDBRANCH  50  51
ENDBRANCH   2  50
ENDBRANCH   1   2
BRANCH   1  73
HETATM   73  O   UNL     1     -23.252  -4.707  -9.485  1.00  0.00    -0.389 OA
BRANCH  73  74
HETATM   74  C   UNL     1     -21.839  -4.864  -9.104  1.00  0.00     0.183 C 
BRANCH  74  75
HETATM   75  C   UNL     1     -21.598  -5.214  -7.521  1.00  0.00     0.047 C 
BRANCH  75  76
HETATM   76  C   UNL     1     -20.785  -6.468  -7.255  1.00  0.00     0.194 C 
BRANCH  76  77
HETATM   77  O   UNL     1     -21.485  -7.545  -6.622  1.00  0.00    -0.320 OA
BRANCH  77  78
HETATM   78  C   UNL     1     -20.797  -8.095  -5.596  1.00  0.00     0.258 C 
HETATM   79  O   UNL     1     -19.882  -7.473  -5.036  1.00  0.00    -0.265 OA
BRANCH  78  80
HETATM   80  C   UNL     1     -21.167  -9.559  -5.394  1.00  0.00     0.111 C 
BRANCH  80  81
HETATM   81  C   UNL     1     -20.599 -10.413  -4.196  1.00  0.00     0.010 C 
BRANCH  81  82
HETATM   82  C   UNL     1     -19.458 -10.311  -2.956  1.00  0.00     0.000 C 
BRANCH  82  83
HETATM   83  C   UNL     1     -17.787  -9.760  -2.638  1.00  0.00     0.000 C 
BRANCH  83  84
HETATM   84  C   UNL     1     -16.290 -10.505  -2.334  1.00  0.00     0.000 C 
BRANCH  84  85
HETATM   85  C   UNL     1     -16.235 -11.874  -1.668  1.00  0.00     0.000 C 
BRANCH  85  86
HETATM   86  C   UNL     1     -15.419 -11.718  -0.454  1.00  0.00     0.000 C 
BRANCH  86  87
HETATM   87  C   UNL     1     -16.254 -12.123   0.694  1.00  0.00     0.000 C 
BRANCH  87  88
HETATM   88  C   UNL     1     -15.849 -13.531   0.925  1.00  0.00     0.002 C 
BRANCH  88  89
HETATM   89  C   UNL     1     -14.412 -13.449   1.199  1.00  0.00     0.032 C 
BRANCH  89  90
HETATM   90  C   UNL     1     -13.645 -14.668   0.636  1.00  0.00     0.118 C 
BRANCH  90  91
HETATM   91  C   UNL     1     -12.664 -14.483  -0.893  1.00  0.00     0.032 C 
BRANCH  91  92
HETATM   92  C   UNL     1     -13.001 -14.387  -2.608  1.00  0.00     0.002 C 
BRANCH  92  93
HETATM   93  C   UNL     1     -13.208 -13.044  -3.307  1.00  0.00     0.000 C 
BRANCH  93  94
HETATM   94  C   UNL     1     -13.642 -13.362  -4.681  1.00  0.00    -0.000 C 
BRANCH  94  95
HETATM   95  C   UNL     1     -13.736 -14.837  -4.821  1.00  0.00    -0.005 C 
HETATM   96  C   UNL     1     -14.159 -15.029  -6.236  1.00  0.00     0.005 C 
ENDBRANCH  94  95
ENDBRANCH  93  94
ENDBRANCH  92  93
ENDBRANCH  91  92
ENDBRANCH  90  91
BRANCH  90  97
HETATM   97  O   UNL     1     -13.170 -15.061   1.966  1.00  0.00    -0.396 OA
HETATM   98  H   UNL     1     -12.859 -14.345   2.533  1.00  0.00     0.210 HD
ENDBRANCH  90  97
ENDBRANCH  89  90
ENDBRANCH  88  89
ENDBRANCH  87  88
ENDBRANCH  86  87
ENDBRANCH  85  86
ENDBRANCH  84  85
ENDBRANCH  83  84
ENDBRANCH  82  83
ENDBRANCH  81  82
ENDBRANCH  80  81
ENDBRANCH  78  80
ENDBRANCH  77  78
ENDBRANCH  76  77
ENDBRANCH  75  76
BRANCH  75  99
HETATM   99  C   UNL     1     -20.780  -4.136  -6.768  1.00  0.00     0.194 C 
BRANCH  99 100
HETATM  100  O   UNL     1     -19.467  -4.609  -6.405  1.00  0.00    -0.320 OA
BRANCH 100 101
HETATM  101  C   UNL     1     -18.483  -4.412  -7.313  1.00  0.00     0.258 C 
HETATM  102  O   UNL     1     -18.519  -3.592  -8.219  1.00  0.00    -0.265 OA
BRANCH 101 103
HETATM  103  C   UNL     1     -17.343  -5.358  -7.052  1.00  0.00     0.111 C 
BRANCH 103 104
HETATM  104  C   UNL     1     -17.808  -6.807  -6.986  1.00  0.00     0.010 C 
BRANCH 104 105
HETATM  105  C   UNL     1     -16.686  -7.815  -6.707  1.00  0.00     0.000 C 
BRANCH 105 106
HETATM  106  C   UNL     1     -17.182  -9.205  -6.310  1.00  0.00     0.000 C 
BRANCH 106 107
HETATM  107  C   UNL     1     -16.040 -10.087  -5.831  1.00  0.00     0.000 C 
BRANCH 107 108
HETATM  108  C   UNL     1     -16.334 -11.549  -6.115  1.00  0.00     0.000 C 
BRANCH 108 109
HETATM  109  C   UNL     1     -17.795 -11.831  -5.819  1.00  0.00     0.000 C 
BRANCH 109 110
HETATM  110  C   UNL     1     -18.079 -13.323  -5.890  1.00  0.00     0.000 C 
BRANCH 110 111
HETATM  111  C   UNL     1     -17.611 -13.967  -4.597  1.00  0.00     0.002 C 
BRANCH 111 112
HETATM  112  C   UNL     1     -17.467 -15.474  -4.731  1.00  0.00     0.032 C 
BRANCH 112 113
HETATM  113  C   UNL     1     -17.615 -16.185  -3.383  1.00  0.00     0.118 C 
BRANCH 113 114
HETATM  114  C   UNL     1     -17.456 -15.237  -2.191  1.00  0.00     0.032 C 
BRANCH 114 115
HETATM  115  C   UNL     1     -18.136 -15.768  -0.928  1.00  0.00     0.002 C 
BRANCH 115 116
HETATM  116  C   UNL     1     -19.170 -14.797  -0.348  1.00  0.00     0.000 C 
BRANCH 116 117
HETATM  117  C   UNL     1     -19.201 -13.448  -1.068  1.00  0.00    -0.000 C 
BRANCH 117 118
HETATM  118  C   UNL     1     -19.985 -12.408  -0.275  1.00  0.00    -0.005 C 
HETATM  119  C   UNL     1     -20.764 -13.061   0.855  1.00  0.00     0.005 C 
ENDBRANCH 117 118
ENDBRANCH 116 117
ENDBRANCH 115 116
ENDBRANCH 114 115
ENDBRANCH 113 114
BRANCH 113 120
HETATM  120  O   UNL     1     -18.909 -16.784  -3.346  1.00  0.00    -0.396 OA
HETATM  121  H   UNL     1     -19.273 -16.762  -4.249  1.00  0.00     0.210 HD
ENDBRANCH 113 120
ENDBRANCH 112 113
ENDBRANCH 111 112
ENDBRANCH 110 111
ENDBRANCH 109 110
ENDBRANCH 108 109
ENDBRANCH 107 108
ENDBRANCH 106 107
ENDBRANCH 105 106
ENDBRANCH 104 105
ENDBRANCH 103 104
ENDBRANCH 101 103
ENDBRANCH 100 101
ENDBRANCH  99 100
ENDBRANCH  75  99
BRANCH  75 122
HETATM  122  C   UNL     1     -22.978  -5.502  -6.874  1.00  0.00     0.194 C 
BRANCH 122 123
HETATM  123  O   UNL     1     -22.843  -5.401  -5.487  1.00  0.00    -0.320 OA
BRANCH 123 124
HETATM  124  C   UNL     1     -23.834  -6.026  -4.820  1.00  0.00     0.258 C 
HETATM  125  O   UNL     1     -25.043  -6.027  -5.039  1.00  0.00    -0.265 OA
BRANCH 124 126
HETATM  126  C   UNL     1     -23.136  -6.993  -3.886  1.00  0.00     0.111 C 
BRANCH 126 127
HETATM  127  C   UNL     1     -22.284  -6.107  -3.020  1.00  0.00     0.010 C 
BRANCH 127 128
HETATM  128  C   UNL     1     -21.550  -6.997  -2.079  1.00  0.00     0.000 C 
BRANCH 128 129
HETATM  129  C   UNL     1     -22.333  -6.983  -0.803  1.00  0.00     0.000 C 
BRANCH 129 130
HETATM  130  C   UNL     1     -22.117  -8.290  -0.100  1.00  0.00     0.000 C 
BRANCH 130 131
HETATM  131  C   UNL     1     -23.455  -8.778   0.395  1.00  0.00     0.000 C 
BRANCH 131 132
HETATM  132  C   UNL     1     -23.620 -10.216  -0.021  1.00  0.00     0.000 C 
BRANCH 132 133
HETATM  133  C   UNL     1     -22.808 -10.486  -1.272  1.00  0.00     0.000 C 
BRANCH 133 134
HETATM  134  C   UNL     1     -23.446 -11.651  -2.000  1.00  0.00     0.002 C 
BRANCH 134 135
HETATM  135  C   UNL     1     -23.935 -12.719  -1.038  1.00  0.00     0.032 C 
BRANCH 135 136
HETATM  136  C   UNL     1     -23.965 -14.100  -1.695  1.00  0.00     0.118 C 
BRANCH 136 137
HETATM  137  C   UNL     1     -22.618 -14.828  -1.606  1.00  0.00     0.032 C 
BRANCH 137 138
HETATM  138  C   UNL     1     -22.131 -15.323  -2.968  1.00  0.00     0.002 C 
BRANCH 138 139
HETATM  139  C   UNL     1     -21.426 -14.237  -3.785  1.00  0.00     0.000 C 
BRANCH 139 140
HETATM  140  C   UNL     1     -21.264 -14.602  -5.262  1.00  0.00    -0.000 C 
BRANCH 140 141
HETATM  141  C   UNL     1     -21.744 -13.477  -6.173  1.00  0.00    -0.005 C 
HETATM  142  C   UNL     1     -23.041 -12.877  -5.656  1.00  0.00     0.005 C 
ENDBRANCH 140 141
ENDBRANCH 139 140
ENDBRANCH 138 139
ENDBRANCH 137 138
ENDBRANCH 136 137
BRANCH 136 143
HETATM  143  O   UNL     1     -24.970 -14.874  -1.043  1.00  0.00    -0.396 OA
HETATM  144  H   UNL     1     -25.274 -14.370  -0.267  1.00  0.00     0.210 HD
ENDBRANCH 136 143
ENDBRANCH 135 136
ENDBRANCH 134 135
ENDBRANCH 133 134
ENDBRANCH 132 133
ENDBRANCH 131 132
ENDBRANCH 130 131
ENDBRANCH 129 130
ENDBRANCH 128 129
ENDBRANCH 127 128
ENDBRANCH 126 127
ENDBRANCH 124 126
ENDBRANCH 123 124
ENDBRANCH 122 123
ENDBRANCH  75 122
ENDBRANCH  74  75
ENDBRANCH  73  74
ENDBRANCH   1  73
TORSDOF 125
BEGIN_RES ARG D 557
REMARK  4 active torsions:
REMARK  status: ('A' for Active; 'I' for Inactive)
REMARK    1  A    between atoms: CA   and  CB  
REMARK    2  A    between atoms: CB   and  CG  
REMARK    3  A    between atoms: CG   and  CD  
REMARK    4  A    between atoms: CD   and  NE  
REMARK       I    between atoms: NE   and  CZ  
REMARK       I    between atoms: CZ   and  NH1 
REMARK       I    between atoms: CZ   and  NH2 
ROOT
ATOM      1  CA  ARG D 557     -26.217   2.705 -17.014  1.00 35.49     0.159 C 
ENDROOT
BRANCH   1   2
ATOM      2  CB  ARG D 557     -26.789   1.319 -17.183  1.00 35.49     0.034 C 
BRANCH   2   3
ATOM      3  CG  ARG D 557     -25.918   0.196 -16.816  1.00 35.49     0.027 C 
BRANCH   3   4
ATOM      4  CD  ARG D 557     -24.596   0.644 -16.323  1.00 35.49     0.116 C 
BRANCH   4   5
ATOM      5  NE  ARG D 557     -23.632  -0.425 -16.306  1.00 35.49    -0.212 N 
ATOM      6  CZ  ARG D 557     -23.266  -1.111 -15.247  1.00 35.49     0.666 C 
ATOM      7  NH1 ARG D 557     -23.752  -0.872 -14.043  1.00 35.49    -0.235 N 
ATOM      8  NH2 ARG D 557     -22.394  -2.062 -15.420  1.00 35.49    -0.235 N 
ATOM      9  HH  ARG D 557     -24.329  -0.252 -13.907  1.00 35.49     0.174 HD
ATOM     10  HH  ARG D 557     -23.478  -1.354 -13.390  1.00 35.49     0.174 HD
ATOM     11  HH  ARG D 557     -22.103  -2.199 -16.210  1.00 35.49     0.174 HD
ATOM     12  HH  ARG D 557     -22.136  -2.529 -14.761  1.00 35.49     0.174 HD
ATOM     13  HE  ARG D 557     -23.215  -0.598 -17.026  1.00 35.49     0.178 HD
ENDBRANCH   4   5
ENDBRANCH   3   4
ENDBRANCH   2   3
ENDBRANCH   1   2
END_RES ARG D 557
BEGIN_RES GLU D 570
REMARK  3 active torsions:
REMARK  status: ('A' for Active; 'I' for Inactive)
REMARK    5  A    between atoms: CA   and  CB  
REMARK    6  A    between atoms: CB   and  CG  
REMARK    7  A    between atoms: CG   and  CD  
ROOT
ATOM     14  CA  GLU D 570     -18.033  -6.348 -13.375  1.00 32.92     0.160 C 
ENDROOT
BRANCH  14  15
ATOM     15  CB  GLU D 570     -19.500  -6.345 -13.794  1.00 32.92     0.043 C 
BRANCH  15  16
ATOM     16  CG  GLU D 570     -19.800  -6.135 -15.234  1.00 32.92     0.100 C 
BRANCH  16  17
ATOM     17  CD  GLU D 570     -20.601  -7.264 -15.840  1.00 32.92     0.185 C 
ATOM     18  OE1 GLU D 570     -21.080  -8.136 -15.090  1.00 32.92    -0.647 OA
ATOM     19  OE2 GLU D 570     -20.735  -7.286 -17.079  1.00 32.92    -0.647 OA
ENDBRANCH  16  17
ENDBRANCH  15  16
ENDBRANCH  14  15
END_RES GLU D 570
ENDMDL
MODEL 5
REMARK VINA RESULT:      -3.0      1.317      2.325
REMARK WARNING: 32 MAX_TORS EXCEEDED!!!
REMARK  125 active torsions:
REMARK  status: ('A' for Active; 'I' for Inactive)
REMARK    1  A    between atoms: C_2  and  C_3 
REMARK    2  A    between atoms: C_3  and  C_4 
REMARK    3  A    between atoms: C_4  and  C_5 
REMARK    4  A    between atoms: C_5  and  C_6 
REMARK    5  A    between atoms: C_6  and  C_7 
REMARK    6  A    between atoms: C_7  and  C_8 
REMARK    7  A    between atoms: C_7  and  O_138 
REMARK    8  A    between atoms: C_8  and  C_9 
REMARK    9  A    between atoms: C_9  and  C_10 
REMARK   10  A    between atoms: C_10  and  C_11 
REMARK   11  A    between atoms: C_11  and  C_12 
REMARK   12  A    between atoms: C_12  and  C_13 
REMARK   13  A    between atoms: C_13  and  C_14 
REMARK   14  A    between atoms: C_14  and  C_15 
REMARK   15  A    between atoms: C_15  and  C_16 
REMARK   16  A    between atoms: C_16  and  C_17 
REMARK   17  A    between atoms: C_17  and  C_18 
REMARK   18  A    between atoms: C_18  and  O_20 
REMARK   19  A    between atoms: O_20  and  C_21 
REMARK   20  A    between atoms: C_21  and  C_22 
REMARK   21  A    between atoms: C_22  and  C_23 
REMARK   22  A    between atoms: C_22  and  C_93 
REMARK   23  A    between atoms: C_22  and  C_116 
REMARK   24  A    between atoms: C_23  and  O_24 
REMARK   25  A    between atoms: O_24  and  C_25 
REMARK   26  A    between atoms: C_25  and  C_26 
REMARK   27  A    between atoms: C_26  and  C_27 
REMARK   28  A    between atoms: C_26  and  C_49 
REMARK   29  A    between atoms: C_26  and  C_71 
REMARK   30  A    between atoms: C_27  and  O_28 
REMARK   31  A    between atoms: O_28  and  C_29 
REMARK   32  A    between atoms: C_29  and  C_31 
REMARK   33  A    between atoms: C_31  and  C_32 
REMARK   34  A    between atoms: C_32  and  C_33 
REMARK   35  A    between atoms: C_33  and  C_34 
REMARK   36  A    between atoms: C_34  and  C_35 
REMARK   37  A    between atoms: C_35  and  C_36 
REMARK   38  A    between atoms: C_36  and  C_37 
REMARK   39  A    between atoms: C_37  and  C_38 
REMARK   40  A    between atoms: C_38  and  C_39 
REMARK   41  A    between atoms: C_39  and  C_40 
REMARK   42  A    between atoms: C_40  and  C_41 
REMARK   43  A    between atoms: C_41  and  C_42 
REMARK   44  A    between atoms: C_41  and  O_48 
REMARK   45  A    between atoms: C_42  and  C_43 
REMARK   46  A    between atoms: C_43  and  C_44 
REMARK   47  A    between atoms: C_44  and  C_45 
REMARK   48  A    between atoms: C_45  and  C_46 
REMARK   49  A    between atoms: C_49  and  O_50 
REMARK   50  A    between atoms: O_50  and  C_51 
REMARK   51  A    between atoms: C_51  and  C_53 
REMARK   52  A    between atoms: C_53  and  C_54 
REMARK   53  A    between atoms: C_54  and  C_55 
REMARK   54  A    between atoms: C_55  and  C_56 
REMARK   55  A    between atoms: C_56  and  C_57 
REMARK   56  A    between atoms: C_57  and  C_58 
REMARK   57  A    between atoms: C_58  and  C_59 
REMARK   58  A    between atoms: C_59  and  C_60 
REMARK   59  A    between atoms: C_60  and  C_61 
REMARK   60  A    between atoms: C_61  and  C_62 
REMARK   61  A    between atoms: C_62  and  C_63 
REMARK   62  A    between atoms: C_63  and  C_64 
REMARK   63  A    between atoms: C_63  and  O_70 
REMARK   64  A    between atoms: C_64  and  C_65 
REMARK   65  A    between atoms: C_65  and  C_66 
REMARK   66  A    between atoms: C_66  and  C_67 
REMARK   67  A    between atoms: C_67  and  C_68 
REMARK   68  A    between atoms: C_71  and  O_72 
REMARK   69  A    between atoms: O_72  and  C_73 
REMARK   70  A    between atoms: C_73  and  C_75 
REMARK   71  A    between atoms: C_75  and  C_76 
REMARK   72  A    between atoms: C_76  and  C_77 
REMARK   73  A    between atoms: C_77  and  C_78 
REMARK   74  A    between atoms: C_78  and  C_79 
REMARK   75  A    between atoms: C_79  and  C_80 
REMARK   76  A    between atoms: C_80  and  C_81 
REMARK   77  A    between atoms: C_81  and  C_82 
REMARK   78  A    between atoms: C_82  and  C_83 
REMARK   79  A    between atoms: C_83  and  C_84 
REMARK   80  A    between atoms: C_84  and  C_85 
REMARK   81  A    between atoms: C_85  and  C_86 
REMARK   82  A    between atoms: C_85  and  O_92 
REMARK   83  A    between atoms: C_86  and  C_87 
REMARK   84  A    between atoms: C_87  and  C_88 
REMARK   85  A    between atoms: C_88  and  C_89 
REMARK   86  A    between atoms: C_89  and  C_90 
REMARK   87  A    between atoms: C_93  and  O_94 
REMARK   88  A    between atoms: O_94  and  C_95 
REMARK   89  A    between atoms: C_95  and  O_96 
REMARK   90  A    between atoms: C_95  and  C_98 
REMARK   91  A    between atoms: C_98  and  C_99 
REMARK   92  A    between atoms: C_99  and  C_100 
REMARK   93  A    between atoms: C_100  and  C_101 
REMARK   94  A    between atoms: C_101  and  C_102 
REMARK   95  A    between atoms: C_102  and  C_103 
REMARK   96  A    between atoms: C_103  and  C_104 
REMARK   97  A    between atoms: C_104  and  C_105 
REMARK   98  A    between atoms: C_105  and  C_106 
REMARK   99  A    between atoms: C_106  and  C_107 
REMARK  100  A    between atoms: C_107  and  C_108 
REMARK  101  A    between atoms: C_108  and  C_109 
REMARK  102  A    between atoms: C_108  and  O_115 
REMARK  103  A    between atoms: C_109  and  C_110 
REMARK  104  A    between atoms: C_110  and  C_111 
REMARK  105  A    between atoms: C_111  and  C_112 
REMARK  106  A    between atoms: C_112  and  C_113 
REMARK  107  A    between atoms: C_116  and  O_117 
REMARK  108  A    between atoms: O_117  and  C_118 
REMARK  109  A    between atoms: C_118  and  C_120 
REMARK  110  A    between atoms: C_120  and  C_121 
REMARK  111  A    between atoms: C_121  and  C_122 
REMARK  112  A    between atoms: C_122  and  C_123 
REMARK  113  A    between atoms: C_123  and  C_124 
REMARK  114  A    between atoms: C_124  and  C_125 
REMARK  115  A    between atoms: C_125  and  C_126 
REMARK  116  A    between atoms: C_126  and  C_127 
REMARK  117  A    between atoms: C_127  and  C_128 
REMARK  118  A    between atoms: C_128  and  C_129 
REMARK  119  A    between atoms: C_129  and  C_130 
REMARK  120  A    between atoms: C_130  and  C_131 
REMARK  121  A    between atoms: C_130  and  O_137 
REMARK  122  A    between atoms: C_131  and  C_132 
REMARK  123  A    between atoms: C_132  and  C_133 
REMARK  124  A    between atoms: C_133  and  C_134 
REMARK  125  A    between atoms: C_134  and  C_135 
ROOT
HETATM    1  C   UNL     1     -23.590  -5.112 -10.936  1.00  0.00     0.183 C 
ENDROOT
BRANCH   1   2
HETATM    2  C   UNL     1     -23.138  -4.288 -12.325  1.00  0.00     0.047 C 
BRANCH   2   3
HETATM    3  C   UNL     1     -24.402  -3.408 -12.674  1.00  0.00     0.194 C 
BRANCH   3   4
HETATM    4  O   UNL     1     -24.731  -3.581 -14.112  1.00  0.00    -0.320 OA
BRANCH   4   5
HETATM    5  C   UNL     1     -25.936  -3.222 -14.658  1.00  0.00     0.258 C 
HETATM    6  O   UNL     1     -26.523  -2.184 -14.394  1.00  0.00    -0.265 OA
BRANCH   5   7
HETATM    7  C   UNL     1     -26.478  -4.294 -15.622  1.00  0.00     0.111 C 
BRANCH   7   8
HETATM    8  C   UNL     1     -28.016  -4.500 -15.690  1.00  0.00     0.010 C 
BRANCH   8   9
HETATM    9  C   UNL     1     -28.580  -5.641 -14.720  1.00  0.00     0.000 C 
BRANCH   9  10
HETATM   10  C   UNL     1     -30.103  -5.570 -14.219  1.00  0.00     0.000 C 
BRANCH  10  11
HETATM   11  C   UNL     1     -30.879  -5.183 -12.771  1.00  0.00     0.000 C 
BRANCH  11  12
HETATM   12  C   UNL     1     -32.275  -4.414 -12.574  1.00  0.00     0.000 C 
BRANCH  12  13
HETATM   13  C   UNL     1     -33.154  -5.084 -11.533  1.00  0.00     0.000 C 
BRANCH  13  14
HETATM   14  C   UNL     1     -33.783  -4.068 -10.572  1.00  0.00     0.000 C 
BRANCH  14  15
HETATM   15  C   UNL     1     -33.251  -2.664 -10.825  1.00  0.00     0.002 C 
BRANCH  15  16
HETATM   16  C   UNL     1     -34.391  -1.663 -10.711  1.00  0.00     0.032 C 
BRANCH  16  17
HETATM   17  C   UNL     1     -35.612  -2.047 -11.517  1.00  0.00     0.118 C 
BRANCH  17  18
HETATM   18  C   UNL     1     -36.242  -0.814 -12.158  1.00  0.00     0.032 C 
BRANCH  18  19
HETATM   19  C   UNL     1     -35.218  -0.017 -12.957  1.00  0.00     0.002 C 
BRANCH  19  20
HETATM   20  C   UNL     1     -35.784   0.443 -14.284  1.00  0.00     0.000 C 
BRANCH  20  21
HETATM   21  C   UNL     1     -35.075  -0.304 -15.403  1.00  0.00    -0.000 C 
BRANCH  21  22
HETATM   22  C   UNL     1     -36.090  -0.921 -16.351  1.00  0.00    -0.005 C 
HETATM   23  C   UNL     1     -37.459  -0.310 -16.134  1.00  0.00     0.005 C 
ENDBRANCH  21  22
ENDBRANCH  20  21
ENDBRANCH  19  20
ENDBRANCH  18  19
ENDBRANCH  17  18
BRANCH  17  24
HETATM   24  O   UNL     1     -36.574  -2.646 -10.649  1.00  0.00    -0.396 OA
HETATM   25  H   UNL     1     -37.443  -2.565 -11.081  1.00  0.00     0.210 HD
ENDBRANCH  17  24
ENDBRANCH  16  17
ENDBRANCH  15  16
ENDBRANCH  14  15
ENDBRANCH  13  14
ENDBRANCH  12  13
ENDBRANCH  11  12
ENDBRANCH  10  11
ENDBRANCH   9  10
ENDBRANCH   8   9
ENDBRANCH   7   8
ENDBRANCH   5   7
ENDBRANCH   4   5
ENDBRANCH   3   4
ENDBRANCH   2   3
BRANCH   2  26
HETATM   26  C   UNL     1     -22.794  -4.915 -13.716  1.00  0.00     0.187 C 
BRANCH  26  27
HETATM   27  O   UNL     1     -23.770  -6.188 -14.318  1.00  0.00    -0.360 OA
BRANCH  27  28
HETATM   28  C   UNL     1     -24.477  -6.870 -15.376  1.00  0.00     0.256 C 
BRANCH  28  29
HETATM   29  O   UNL     1     -25.603  -7.432 -15.024  1.00  0.00    -0.371 OA
ATOM     30  HO  UNL     1     -25.824  -7.358 -14.102  1.00  0.00     0.212 HD
ENDBRANCH  28  29
BRANCH  28  31
HETATM   31  C   UNL     1     -24.026  -7.184 -16.874  1.00  0.00     0.060 C 
BRANCH  31  32
HETATM   32  C   UNL     1     -24.558  -6.619 -18.226  1.00  0.00     0.005 C 
BRANCH  32  33
HETATM   33  C   UNL     1     -23.997  -7.434 -19.443  1.00  0.00     0.000 C 
BRANCH  33  34
HETATM   34  C   UNL     1     -25.043  -7.535 -20.530  1.00  0.00     0.000 C 
BRANCH  34  35
HETATM   35  C   UNL     1     -25.969  -6.332 -20.596  1.00  0.00     0.000 C 
BRANCH  35  36
HETATM   36  C   UNL     1     -27.346  -6.855 -20.233  1.00  0.00     0.000 C 
BRANCH  36  37
HETATM   37  C   UNL     1     -27.949  -6.084 -19.091  1.00  0.00     0.000 C 
BRANCH  37  38
HETATM   38  C   UNL     1     -28.969  -6.970 -18.395  1.00  0.00     0.000 C 
BRANCH  38  39
HETATM   39  C   UNL     1     -30.158  -6.116 -18.031  1.00  0.00     0.002 C 
BRANCH  39  40
HETATM   40  C   UNL     1     -29.868  -4.638 -18.220  1.00  0.00     0.032 C 
BRANCH  40  41
HETATM   41  C   UNL     1     -31.070  -3.782 -17.824  1.00  0.00     0.118 C 
BRANCH  41  42
HETATM   42  C   UNL     1     -31.955  -4.479 -16.791  1.00  0.00     0.032 C 
BRANCH  42  43
HETATM   43  C   UNL     1     -33.379  -3.932 -16.784  1.00  0.00     0.002 C 
BRANCH  43  44
HETATM   44  C   UNL     1     -34.272  -4.651 -15.774  1.00  0.00     0.000 C 
BRANCH  44  45
HETATM   45  C   UNL     1     -34.380  -6.152 -16.048  1.00  0.00    -0.000 C 
BRANCH  45  46
HETATM   46  C   UNL     1     -35.834  -6.600 -16.093  1.00  0.00    -0.005 C 
HETATM   47  C   UNL     1     -36.101  -7.648 -15.027  1.00  0.00     0.005 C 
ENDBRANCH  45  46
ENDBRANCH  44  45
ENDBRANCH  43  44
ENDBRANCH  42  43
ENDBRANCH  41  42
BRANCH  41  48
HETATM   48  O   UNL     1     -30.580  -2.557 -17.279  1.00  0.00    -0.396 OA
HETATM   49  H   UNL     1     -30.297  -2.742 -16.365  1.00  0.00     0.210 HD
ENDBRANCH  41  48
ENDBRANCH  40  41
ENDBRANCH  39  40
ENDBRANCH  38  39
ENDBRANCH  37  38
ENDBRANCH  36  37
ENDBRANCH  35  36
ENDBRANCH  34  35
ENDBRANCH  33  34
ENDBRANCH  32  33
ENDBRANCH  31  32
ENDBRANCH  28  31
ENDBRANCH  27  28
ENDBRANCH  26  27
ENDBRANCH   2  26
BRANCH   2  50
HETATM   50  C   UNL     1     -21.794  -3.605 -12.092  1.00  0.00     0.194 C 
BRANCH  50  51
HETATM   51  O   UNL     1     -21.905  -2.225 -11.872  1.00  0.00    -0.320 OA
BRANCH  51  52
HETATM   52  C   UNL     1     -20.759  -1.678 -11.392  1.00  0.00     0.258 C 
HETATM   53  O   UNL     1     -19.802  -2.262 -10.895  1.00  0.00    -0.265 OA
BRANCH  52  54
HETATM   54  C   UNL     1     -20.823  -0.216 -11.643  1.00  0.00     0.111 C 
BRANCH  54  55
HETATM   55  C   UNL     1     -19.677   0.472 -10.927  1.00  0.00     0.010 C 
BRANCH  55  56
HETATM   56  C   UNL     1     -19.733   1.945 -11.274  1.00  0.00     0.000 C 
BRANCH  56  57
HETATM   57  C   UNL     1     -21.107   2.514 -11.000  1.00  0.00     0.000 C 
BRANCH  57  58
HETATM   58  C   UNL     1     -20.969   3.817 -10.234  1.00  0.00     0.000 C 
BRANCH  58  59
HETATM   59  C   UNL     1     -21.916   3.817  -9.049  1.00  0.00     0.000 C 
BRANCH  59  60
HETATM   60  C   UNL     1     -23.288   4.296  -9.482  1.00  0.00     0.000 C 
BRANCH  60  61
HETATM   61  C   UNL     1     -24.194   4.481  -8.272  1.00  0.00     0.000 C 
BRANCH  61  62
HETATM   62  C   UNL     1     -25.325   5.426  -8.645  1.00  0.00     0.002 C 
BRANCH  62  63
HETATM   63  C   UNL     1     -25.428   5.636 -10.149  1.00  0.00     0.032 C 
BRANCH  63  64
HETATM   64  C   UNL     1     -26.013   7.009 -10.498  1.00  0.00     0.118 C 
BRANCH  64  65
HETATM   65  C   UNL     1     -24.962   7.986 -11.039  1.00  0.00     0.032 C 
BRANCH  65  66
HETATM   66  C   UNL     1     -25.350   9.446 -10.797  1.00  0.00     0.002 C 
BRANCH  66  67
HETATM   67  C   UNL     1     -24.146  10.359 -10.550  1.00  0.00     0.000 C 
BRANCH  67  68
HETATM   68  C   UNL     1     -22.883   9.893 -11.275  1.00  0.00    -0.000 C 
BRANCH  68  69
HETATM   69  C   UNL     1     -22.442  10.896 -12.337  1.00  0.00    -0.005 C 
HETATM   70  C   UNL     1     -23.073  10.570 -13.681  1.00  0.00     0.005 C 
ENDBRANCH  68  69
ENDBRANCH  67  68
ENDBRANCH  66  67
ENDBRANCH  65  66
ENDBRANCH  64  65
BRANCH  64  71
HETATM   71  O   UNL     1     -27.031   6.817 -11.482  1.00  0.00    -0.396 OA
HETATM   72  H   UNL     1     -26.743   7.270 -12.294  1.00  0.00     0.210 HD
ENDBRANCH  64  71
ENDBRANCH  63  64
ENDBRANCH  62  63
ENDBRANCH  61  62
ENDBRANCH  60  61
ENDBRANCH  59  60
ENDBRANCH  58  59
ENDBRANCH  57  58
ENDBRANCH  56  57
ENDBRANCH  55  56
ENDBRANCH  54  55
ENDBRANCH  52  54
ENDBRANCH  51  52
ENDBRANCH  50  51
ENDBRANCH   2  50
ENDBRANCH   1   2
BRANCH   1  73
HETATM   73  O   UNL     1     -22.927  -4.789  -9.664  1.00  0.00    -0.389 OA
BRANCH  73  74
HETATM   74  C   UNL     1     -22.325  -5.875  -8.873  1.00  0.00     0.183 C 
BRANCH  74  75
HETATM   75  C   UNL     1     -21.574  -5.381  -7.503  1.00  0.00     0.047 C 
BRANCH  75  76
HETATM   76  C   UNL     1     -20.901  -6.482  -6.704  1.00  0.00     0.194 C 
BRANCH  76  77
HETATM   77  O   UNL     1     -21.573  -7.747  -6.693  1.00  0.00    -0.320 OA
BRANCH  77  78
HETATM   78  C   UNL     1     -21.115  -8.582  -5.734  1.00  0.00     0.258 C 
HETATM   79  O   UNL     1     -20.358  -8.174  -4.841  1.00  0.00    -0.265 OA
BRANCH  78  80
HETATM   80  C   UNL     1     -21.491 -10.029  -6.025  1.00  0.00     0.111 C 
BRANCH  80  81
HETATM   81  C   UNL     1     -20.641 -11.245  -5.489  1.00  0.00     0.010 C 
BRANCH  81  82
HETATM   82  C   UNL     1     -20.033 -11.865  -4.041  1.00  0.00     0.000 C 
BRANCH  82  83
HETATM   83  C   UNL     1     -20.177 -11.669  -2.270  1.00  0.00     0.000 C 
BRANCH  83  84
HETATM   84  C   UNL     1     -19.177 -11.105  -1.015  1.00  0.00     0.000 C 
BRANCH  84  85
HETATM   85  C   UNL     1     -18.613 -12.078   0.012  1.00  0.00     0.000 C 
BRANCH  85  86
HETATM   86  C   UNL     1     -17.150 -11.934  -0.032  1.00  0.00     0.000 C 
BRANCH  86  87
HETATM   87  C   UNL     1     -16.579 -12.952   0.872  1.00  0.00     0.000 C 
BRANCH  87  88
HETATM   88  C   UNL     1     -15.377 -13.418   0.138  1.00  0.00     0.002 C 
BRANCH  88  89
HETATM   89  C   UNL     1     -14.284 -13.252   1.099  1.00  0.00     0.032 C 
BRANCH  89  90
HETATM   90  C   UNL     1     -13.202 -14.345   0.940  1.00  0.00     0.118 C 
BRANCH  90  91
HETATM   91  C   UNL     1     -11.443 -13.861   0.863  1.00  0.00     0.032 C 
BRANCH  91  92
HETATM   92  C   UNL     1      -9.931 -14.480   1.493  1.00  0.00     0.002 C 
BRANCH  92  93
HETATM   93  C   UNL     1      -9.212 -13.800   2.656  1.00  0.00     0.000 C 
BRANCH  93  94
HETATM   94  C   UNL     1      -9.187 -14.786   3.753  1.00  0.00    -0.000 C 
BRANCH  94  95
HETATM   95  C   UNL     1      -8.304 -14.276   4.832  1.00  0.00    -0.005 C 
HETATM   96  C   UNL     1      -9.200 -13.395   5.632  1.00  0.00     0.005 C 
ENDBRANCH  94  95
ENDBRANCH  93  94
ENDBRANCH  92  93
ENDBRANCH  91  92
ENDBRANCH  90  91
BRANCH  90  97
HETATM   97  O   UNL     1     -13.851 -15.217   1.923  1.00  0.00    -0.396 OA
HETATM   98  H   UNL     1     -13.331 -15.969   2.231  1.00  0.00     0.210 HD
ENDBRANCH  90  97
ENDBRANCH  89  90
ENDBRANCH  88  89
ENDBRANCH  87  88
ENDBRANCH  86  87
ENDBRANCH  85  86
ENDBRANCH  84  85
ENDBRANCH  83  84
ENDBRANCH  82  83
ENDBRANCH  81  82
ENDBRANCH  80  81
ENDBRANCH  78  80
ENDBRANCH  77  78
ENDBRANCH  76  77
ENDBRANCH  75  76
BRANCH  75  99
HETATM   99  C   UNL     1     -20.397  -4.407  -7.761  1.00  0.00     0.194 C 
BRANCH  99 100
HETATM  100  O   UNL     1     -19.382  -4.504  -6.742  1.00  0.00    -0.320 OA
BRANCH 100 101
HETATM  101  C   UNL     1     -18.173  -4.964  -7.137  1.00  0.00     0.258 C 
HETATM  102  O   UNL     1     -17.149  -4.296  -7.183  1.00  0.00    -0.265 OA
BRANCH 101 103
HETATM  103  C   UNL     1     -18.273  -6.415  -7.522  1.00  0.00     0.111 C 
BRANCH 103 104
HETATM  104  C   UNL     1     -17.648  -7.327  -6.473  1.00  0.00     0.010 C 
BRANCH 104 105
HETATM  105  C   UNL     1     -17.797  -8.824  -6.774  1.00  0.00     0.000 C 
BRANCH 105 106
HETATM  106  C   UNL     1     -17.304  -9.736  -5.651  1.00  0.00     0.000 C 
BRANCH 106 107
HETATM  107  C   UNL     1     -15.997 -10.418  -6.022  1.00  0.00     0.000 C 
BRANCH 107 108
HETATM  108  C   UNL     1     -15.638 -11.484  -5.002  1.00  0.00     0.000 C 
BRANCH 108 109
HETATM  109  C   UNL     1     -14.129 -11.557  -4.867  1.00  0.00     0.000 C 
BRANCH 109 110
HETATM  110  C   UNL     1     -13.676 -12.997  -4.684  1.00  0.00     0.000 C 
BRANCH 110 111
HETATM  111  C   UNL     1     -13.688 -13.685  -6.037  1.00  0.00     0.002 C 
BRANCH 111 112
HETATM  112  C   UNL     1     -13.200 -15.122  -5.950  1.00  0.00     0.032 C 
BRANCH 112 113
HETATM  113  C   UNL     1     -14.348 -16.126  -6.092  1.00  0.00     0.118 C 
BRANCH 113 114
HETATM  114  C   UNL     1     -15.725 -15.484  -5.896  1.00  0.00     0.032 C 
BRANCH 114 115
HETATM  115  C   UNL     1     -16.792 -16.105  -6.800  1.00  0.00     0.002 C 
BRANCH 115 116
HETATM  116  C   UNL     1     -18.067 -15.261  -6.892  1.00  0.00     0.000 C 
BRANCH 116 117
HETATM  117  C   UNL     1     -17.823 -13.771  -6.649  1.00  0.00    -0.000 C 
BRANCH 117 118
HETATM  118  C   UNL     1     -17.645 -13.012  -7.960  1.00  0.00    -0.005 C 
HETATM  119  C   UNL     1     -18.985 -12.778  -8.638  1.00  0.00     0.005 C 
ENDBRANCH 117 118
ENDBRANCH 116 117
ENDBRANCH 115 116
ENDBRANCH 114 115
ENDBRANCH 113 114
BRANCH 113 120
HETATM  120  O   UNL     1     -14.269 -16.696  -7.397  1.00  0.00    -0.396 OA
HETATM  121  H   UNL     1     -14.187 -15.966  -8.035  1.00  0.00     0.210 HD
ENDBRANCH 113 120
ENDBRANCH 112 113
ENDBRANCH 111 112
ENDBRANCH 110 111
ENDBRANCH 109 110
ENDBRANCH 108 109
ENDBRANCH 107 108
ENDBRANCH 106 107
ENDBRANCH 105 106
ENDBRANCH 104 105
ENDBRANCH 103 104
ENDBRANCH 101 103
ENDBRANCH 100 101
ENDBRANCH  99 100
ENDBRANCH  75  99
BRANCH  75 122
HETATM  122  C   UNL     1     -22.649  -4.805  -6.543  1.00  0.00     0.194 C 
BRANCH 122 123
HETATM  123  O   UNL     1     -22.442  -5.350  -5.273  1.00  0.00    -0.320 OA
BRANCH 123 124
HETATM  124  C   UNL     1     -23.551  -5.921  -4.764  1.00  0.00     0.258 C 
HETATM  125  O   UNL     1     -24.693  -5.950  -5.217  1.00  0.00    -0.265 OA
BRANCH 124 126
HETATM  126  C   UNL     1     -23.062  -6.798  -3.629  1.00  0.00     0.111 C 
BRANCH 126 127
HETATM  127  C   UNL     1     -21.931  -6.011  -3.028  1.00  0.00     0.010 C 
BRANCH 127 128
HETATM  128  C   UNL     1     -21.340  -6.855  -1.953  1.00  0.00     0.000 C 
BRANCH 128 129
HETATM  129  C   UNL     1     -22.325  -6.835  -0.825  1.00  0.00     0.000 C 
BRANCH 129 130
HETATM  130  C   UNL     1     -21.949  -7.911   0.150  1.00  0.00     0.000 C 
BRANCH 130 131
HETATM  131  C   UNL     1     -23.153  -8.797   0.352  1.00  0.00     0.000 C 
BRANCH 131 132
HETATM  132  C   UNL     1     -23.077  -9.934  -0.632  1.00  0.00     0.000 C 
BRANCH 132 133
HETATM  133  C   UNL     1     -23.695 -11.179  -0.027  1.00  0.00     0.000 C 
BRANCH 133 134
HETATM  134  C   UNL     1     -22.573 -12.134   0.323  1.00  0.00     0.002 C 
BRANCH 134 135
HETATM  135  C   UNL     1     -23.035 -13.225   1.272  1.00  0.00     0.032 C 
BRANCH 135 136
HETATM  136  C   UNL     1     -23.366 -14.520   0.527  1.00  0.00     0.118 C 
BRANCH 136 137
HETATM  137  C   UNL     1     -22.546 -14.690  -0.757  1.00  0.00     0.032 C 
BRANCH 137 138
HETATM  138  C   UNL     1     -21.140 -15.225  -0.485  1.00  0.00     0.002 C 
BRANCH 138 139
HETATM  139  C   UNL     1     -20.209 -15.109  -1.696  1.00  0.00     0.000 C 
BRANCH 139 140
HETATM  140  C   UNL     1     -18.747 -15.413  -1.364  1.00  0.00    -0.000 C 
BRANCH 140 141
HETATM  141  C   UNL     1     -17.885 -15.459  -2.622  1.00  0.00    -0.005 C 
HETATM  142  C   UNL     1     -17.295 -14.091  -2.924  1.00  0.00     0.005 C 
ENDBRANCH 140 141
ENDBRANCH 139 140
ENDBRANCH 138 139
ENDBRANCH 137 138
ENDBRANCH 136 137
BRANCH 136 143
HETATM  143  O   UNL     1     -23.106 -15.611   1.408  1.00  0.00    -0.396 OA
HETATM  144  H   UNL     1     -22.170 -15.859   1.304  1.00  0.00     0.210 HD
ENDBRANCH 136 143
ENDBRANCH 135 136
ENDBRANCH 134 135
ENDBRANCH 133 134
ENDBRANCH 132 133
ENDBRANCH 131 132
ENDBRANCH 130 131
ENDBRANCH 129 130
ENDBRANCH 128 129
ENDBRANCH 127 128
ENDBRANCH 126 127
ENDBRANCH 124 126
ENDBRANCH 123 124
ENDBRANCH 122 123
ENDBRANCH  75 122
ENDBRANCH  74  75
ENDBRANCH  73  74
ENDBRANCH   1  73
TORSDOF 125
BEGIN_RES ARG D 557
REMARK  4 active torsions:
REMARK  status: ('A' for Active; 'I' for Inactive)
REMARK    1  A    between atoms: CA   and  CB  
REMARK    2  A    between atoms: CB   and  CG  
REMARK    3  A    between atoms: CG   and  CD  
REMARK    4  A    between atoms: CD   and  NE  
REMARK       I    between atoms: NE   and  CZ  
REMARK       I    between atoms: CZ   and  NH1 
REMARK       I    between atoms: CZ   and  NH2 
ROOT
ATOM      1  CA  ARG D 557     -26.217   2.705 -17.014  1.00 35.49     0.159 C 
ENDROOT
BRANCH   1   2
ATOM      2  CB  ARG D 557     -26.789   1.319 -17.183  1.00 35.49     0.034 C 
BRANCH   2   3
ATOM      3  CG  ARG D 557     -25.830   0.209 -17.223  1.00 35.49     0.027 C 
BRANCH   3   4
ATOM      4  CD  ARG D 557     -24.425   0.676 -17.201  1.00 35.49     0.116 C 
BRANCH   4   5
ATOM      5  NE  ARG D 557     -23.536  -0.305 -16.636  1.00 35.49    -0.212 N 
ATOM      6  CZ  ARG D 557     -23.567  -0.748 -15.399  1.00 35.49     0.666 C 
ATOM      7  NH1 ARG D 557     -24.442  -0.311 -14.511  1.00 35.49    -0.235 N 
ATOM      8  NH2 ARG D 557     -22.697  -1.655 -15.064  1.00 35.49    -0.235 N 
ATOM      9  HH  ARG D 557     -25.025   0.285 -14.710  1.00 35.49     0.174 HD
ATOM     10  HH  ARG D 557     -24.416  -0.638 -13.720  1.00 35.49     0.174 HD
ATOM     11  HH  ARG D 557     -22.149  -1.924 -15.660  1.00 35.49     0.174 HD
ATOM     12  HH  ARG D 557     -22.689  -1.968 -14.275  1.00 35.49     0.174 HD
ATOM     13  HE  ARG D 557     -22.894  -0.587 -17.117  1.00 35.49     0.178 HD
ENDBRANCH   4   5
ENDBRANCH   3   4
ENDBRANCH   2   3
ENDBRANCH   1   2
END_RES ARG D 557
BEGIN_RES GLU D 570
REMARK  3 active torsions:
REMARK  status: ('A' for Active; 'I' for Inactive)
REMARK    5  A    between atoms: CA   and  CB  
REMARK    6  A    between atoms: CB   and  CG  
REMARK    7  A    between atoms: CG   and  CD  
ROOT
ATOM     14  CA  GLU D 570     -18.033  -6.348 -13.375  1.00 32.92     0.160 C 
ENDROOT
BRANCH  14  15
ATOM     15  CB  GLU D 570     -19.500  -6.345 -13.794  1.00 32.92     0.043 C 
BRANCH  15  16
ATOM     16  CG  GLU D 570     -20.077  -7.627 -14.276  1.00 32.92     0.100 C 
BRANCH  16  17
ATOM     17  CD  GLU D 570     -20.646  -7.529 -15.672  1.00 32.92     0.185 C 
ATOM     18  OE1 GLU D 570     -21.267  -8.501 -16.142  1.00 32.92    -0.647 OA
ATOM     19  OE2 GLU D 570     -20.452  -6.475 -16.310  1.00 32.92    -0.647 OA
ENDBRANCH  16  17
ENDBRANCH  15  16
ENDBRANCH  14  15
END_RES GLU D 570
ENDMDL
MODEL 6
REMARK VINA RESULT:      -3.0      1.511      2.763
REMARK WARNING: 32 MAX_TORS EXCEEDED!!!
REMARK  125 active torsions:
REMARK  status: ('A' for Active; 'I' for Inactive)
REMARK    1  A    between atoms: C_2  and  C_3 
REMARK    2  A    between atoms: C_3  and  C_4 
REMARK    3  A    between atoms: C_4  and  C_5 
REMARK    4  A    between atoms: C_5  and  C_6 
REMARK    5  A    between atoms: C_6  and  C_7 
REMARK    6  A    between atoms: C_7  and  C_8 
REMARK    7  A    between atoms: C_7  and  O_138 
REMARK    8  A    between atoms: C_8  and  C_9 
REMARK    9  A    between atoms: C_9  and  C_10 
REMARK   10  A    between atoms: C_10  and  C_11 
REMARK   11  A    between atoms: C_11  and  C_12 
REMARK   12  A    between atoms: C_12  and  C_13 
REMARK   13  A    between atoms: C_13  and  C_14 
REMARK   14  A    between atoms: C_14  and  C_15 
REMARK   15  A    between atoms: C_15  and  C_16 
REMARK   16  A    between atoms: C_16  and  C_17 
REMARK   17  A    between atoms: C_17  and  C_18 
REMARK   18  A    between atoms: C_18  and  O_20 
REMARK   19  A    between atoms: O_20  and  C_21 
REMARK   20  A    between atoms: C_21  and  C_22 
REMARK   21  A    between atoms: C_22  and  C_23 
REMARK   22  A    between atoms: C_22  and  C_93 
REMARK   23  A    between atoms: C_22  and  C_116 
REMARK   24  A    between atoms: C_23  and  O_24 
REMARK   25  A    between atoms: O_24  and  C_25 
REMARK   26  A    between atoms: C_25  and  C_26 
REMARK   27  A    between atoms: C_26  and  C_27 
REMARK   28  A    between atoms: C_26  and  C_49 
REMARK   29  A    between atoms: C_26  and  C_71 
REMARK   30  A    between atoms: C_27  and  O_28 
REMARK   31  A    between atoms: O_28  and  C_29 
REMARK   32  A    between atoms: C_29  and  C_31 
REMARK   33  A    between atoms: C_31  and  C_32 
REMARK   34  A    between atoms: C_32  and  C_33 
REMARK   35  A    between atoms: C_33  and  C_34 
REMARK   36  A    between atoms: C_34  and  C_35 
REMARK   37  A    between atoms: C_35  and  C_36 
REMARK   38  A    between atoms: C_36  and  C_37 
REMARK   39  A    between atoms: C_37  and  C_38 
REMARK   40  A    between atoms: C_38  and  C_39 
REMARK   41  A    between atoms: C_39  and  C_40 
REMARK   42  A    between atoms: C_40  and  C_41 
REMARK   43  A    between atoms: C_41  and  C_42 
REMARK   44  A    between atoms: C_41  and  O_48 
REMARK   45  A    between atoms: C_42  and  C_43 
REMARK   46  A    between atoms: C_43  and  C_44 
REMARK   47  A    between atoms: C_44  and  C_45 
REMARK   48  A    between atoms: C_45  and  C_46 
REMARK   49  A    between atoms: C_49  and  O_50 
REMARK   50  A    between atoms: O_50  and  C_51 
REMARK   51  A    between atoms: C_51  and  C_53 
REMARK   52  A    between atoms: C_53  and  C_54 
REMARK   53  A    between atoms: C_54  and  C_55 
REMARK   54  A    between atoms: C_55  and  C_56 
REMARK   55  A    between atoms: C_56  and  C_57 
REMARK   56  A    between atoms: C_57  and  C_58 
REMARK   57  A    between atoms: C_58  and  C_59 
REMARK   58  A    between atoms: C_59  and  C_60 
REMARK   59  A    between atoms: C_60  and  C_61 
REMARK   60  A    between atoms: C_61  and  C_62 
REMARK   61  A    between atoms: C_62  and  C_63 
REMARK   62  A    between atoms: C_63  and  C_64 
REMARK   63  A    between atoms: C_63  and  O_70 
REMARK   64  A    between atoms: C_64  and  C_65 
REMARK   65  A    between atoms: C_65  and  C_66 
REMARK   66  A    between atoms: C_66  and  C_67 
REMARK   67  A    between atoms: C_67  and  C_68 
REMARK   68  A    between atoms: C_71  and  O_72 
REMARK   69  A    between atoms: O_72  and  C_73 
REMARK   70  A    between atoms: C_73  and  C_75 
REMARK   71  A    between atoms: C_75  and  C_76 
REMARK   72  A    between atoms: C_76  and  C_77 
REMARK   73  A    between atoms: C_77  and  C_78 
REMARK   74  A    between atoms: C_78  and  C_79 
REMARK   75  A    between atoms: C_79  and  C_80 
REMARK   76  A    between atoms: C_80  and  C_81 
REMARK   77  A    between atoms: C_81  and  C_82 
REMARK   78  A    between atoms: C_82  and  C_83 
REMARK   79  A    between atoms: C_83  and  C_84 
REMARK   80  A    between atoms: C_84  and  C_85 
REMARK   81  A    between atoms: C_85  and  C_86 
REMARK   82  A    between atoms: C_85  and  O_92 
REMARK   83  A    between atoms: C_86  and  C_87 
REMARK   84  A    between atoms: C_87  and  C_88 
REMARK   85  A    between atoms: C_88  and  C_89 
REMARK   86  A    between atoms: C_89  and  C_90 
REMARK   87  A    between atoms: C_93  and  O_94 
REMARK   88  A    between atoms: O_94  and  C_95 
REMARK   89  A    between atoms: C_95  and  O_96 
REMARK   90  A    between atoms: C_95  and  C_98 
REMARK   91  A    between atoms: C_98  and  C_99 
REMARK   92  A    between atoms: C_99  and  C_100 
REMARK   93  A    between atoms: C_100  and  C_101 
REMARK   94  A    between atoms: C_101  and  C_102 
REMARK   95  A    between atoms: C_102  and  C_103 
REMARK   96  A    between atoms: C_103  and  C_104 
REMARK   97  A    between atoms: C_104  and  C_105 
REMARK   98  A    between atoms: C_105  and  C_106 
REMARK   99  A    between atoms: C_106  and  C_107 
REMARK  100  A    between atoms: C_107  and  C_108 
REMARK  101  A    between atoms: C_108  and  C_109 
REMARK  102  A    between atoms: C_108  and  O_115 
REMARK  103  A    between atoms: C_109  and  C_110 
REMARK  104  A    between atoms: C_110  and  C_111 
REMARK  105  A    between atoms: C_111  and  C_112 
REMARK  106  A    between atoms: C_112  and  C_113 
REMARK  107  A    between atoms: C_116  and  O_117 
REMARK  108  A    between atoms: O_117  and  C_118 
REMARK  109  A    between atoms: C_118  and  C_120 
REMARK  110  A    between atoms: C_120  and  C_121 
REMARK  111  A    between atoms: C_121  and  C_122 
REMARK  112  A    between atoms: C_122  and  C_123 
REMARK  113  A    between atoms: C_123  and  C_124 
REMARK  114  A    between atoms: C_124  and  C_125 
REMARK  115  A    between atoms: C_125  and  C_126 
REMARK  116  A    between atoms: C_126  and  C_127 
REMARK  117  A    between atoms: C_127  and  C_128 
REMARK  118  A    between atoms: C_128  and  C_129 
REMARK  119  A    between atoms: C_129  and  C_130 
REMARK  120  A    between atoms: C_130  and  C_131 
REMARK  121  A    between atoms: C_130  and  O_137 
REMARK  122  A    between atoms: C_131  and  C_132 
REMARK  123  A    between atoms: C_132  and  C_133 
REMARK  124  A    between atoms: C_133  and  C_134 
REMARK  125  A    between atoms: C_134  and  C_135 
ROOT
HETATM    1  C   UNL     1     -23.661  -5.154 -10.737  1.00  0.00     0.183 C 
ENDROOT
BRANCH   1   2
HETATM    2  C   UNL     1     -23.180  -4.389 -12.149  1.00  0.00     0.047 C 
BRANCH   2   3
HETATM    3  C   UNL     1     -24.420  -3.494 -12.540  1.00  0.00     0.194 C 
BRANCH   3   4
HETATM    4  O   UNL     1     -24.735  -3.701 -13.977  1.00  0.00    -0.320 OA
BRANCH   4   5
HETATM    5  C   UNL     1     -25.859  -3.202 -14.582  1.00  0.00     0.258 C 
HETATM    6  O   UNL     1     -26.320  -2.093 -14.359  1.00  0.00    -0.265 OA
BRANCH   5   7
HETATM    7  C   UNL     1     -26.490  -4.216 -15.555  1.00  0.00     0.111 C 
BRANCH   7   8
HETATM    8  C   UNL     1     -28.037  -4.368 -15.543  1.00  0.00     0.010 C 
BRANCH   8   9
HETATM    9  C   UNL     1     -28.582  -5.557 -14.621  1.00  0.00     0.000 C 
BRANCH   9  10
HETATM   10  C   UNL     1     -30.095  -5.513 -14.088  1.00  0.00     0.000 C 
BRANCH  10  11
HETATM   11  C   UNL     1     -30.843  -5.202 -12.608  1.00  0.00     0.000 C 
BRANCH  11  12
HETATM   12  C   UNL     1     -32.215  -4.410 -12.341  1.00  0.00     0.000 C 
BRANCH  12  13
HETATM   13  C   UNL     1     -33.140  -5.167 -11.405  1.00  0.00     0.000 C 
BRANCH  13  14
HETATM   14  C   UNL     1     -33.919  -4.225 -10.481  1.00  0.00     0.000 C 
BRANCH  14  15
HETATM   15  C   UNL     1     -35.275  -3.864 -11.074  1.00  0.00     0.002 C 
BRANCH  15  16
HETATM   16  C   UNL     1     -35.286  -2.389 -11.447  1.00  0.00     0.032 C 
BRANCH  16  17
HETATM   17  C   UNL     1     -36.177  -1.550 -10.559  1.00  0.00     0.118 C 
BRANCH  17  18
HETATM   18  C   UNL     1     -36.890  -0.475 -11.375  1.00  0.00     0.032 C 
BRANCH  18  19
HETATM   19  C   UNL     1     -36.532  -0.568 -12.853  1.00  0.00     0.002 C 
BRANCH  19  20
HETATM   20  C   UNL     1     -35.519   0.485 -13.247  1.00  0.00     0.000 C 
BRANCH  20  21
HETATM   21  C   UNL     1     -35.025   0.187 -14.654  1.00  0.00    -0.000 C 
BRANCH  21  22
HETATM   22  C   UNL     1     -36.188  -0.214 -15.546  1.00  0.00    -0.005 C 
HETATM   23  C   UNL     1     -35.706  -1.084 -16.688  1.00  0.00     0.005 C 
ENDBRANCH  21  22
ENDBRANCH  20  21
ENDBRANCH  19  20
ENDBRANCH  18  19
ENDBRANCH  17  18
BRANCH  17  24
HETATM   24  O   UNL     1     -35.376  -0.906  -9.568  1.00  0.00    -0.396 OA
HETATM   25  H   UNL     1     -34.735  -1.563  -9.243  1.00  0.00     0.210 HD
ENDBRANCH  17  24
ENDBRANCH  16  17
ENDBRANCH  15  16
ENDBRANCH  14  15
ENDBRANCH  13  14
ENDBRANCH  12  13
ENDBRANCH  11  12
ENDBRANCH  10  11
ENDBRANCH   9  10
ENDBRANCH   8   9
ENDBRANCH   7   8
ENDBRANCH   5   7
ENDBRANCH   4   5
ENDBRANCH   3   4
ENDBRANCH   2   3
BRANCH   2  26
HETATM   26  C   UNL     1     -22.839  -5.072 -13.515  1.00  0.00     0.187 C 
BRANCH  26  27
HETATM   27  O   UNL     1     -23.925  -6.229 -14.160  1.00  0.00    -0.360 OA
BRANCH  27  28
HETATM   28  C   UNL     1     -24.559  -6.917 -15.259  1.00  0.00     0.256 C 
BRANCH  28  29
HETATM   29  O   UNL     1     -25.758  -7.377 -15.013  1.00  0.00    -0.371 OA
ATOM     30  HO  UNL     1     -25.796  -8.117 -14.418  1.00  0.00     0.212 HD
ENDBRANCH  28  29
BRANCH  28  31
HETATM   31  C   UNL     1     -23.968  -7.348 -16.677  1.00  0.00     0.060 C 
BRANCH  31  32
HETATM   32  C   UNL     1     -24.486  -7.050 -18.117  1.00  0.00     0.005 C 
BRANCH  32  33
HETATM   33  C   UNL     1     -23.326  -7.142 -19.169  1.00  0.00     0.000 C 
BRANCH  33  34
HETATM   34  C   UNL     1     -23.800  -7.874 -20.405  1.00  0.00     0.000 C 
BRANCH  34  35
HETATM   35  C   UNL     1     -24.914  -7.156 -21.147  1.00  0.00     0.000 C 
BRANCH  35  36
HETATM   36  C   UNL     1     -26.037  -8.167 -21.276  1.00  0.00     0.000 C 
BRANCH  36  37
HETATM   37  C   UNL     1     -27.273  -7.720 -20.544  1.00  0.00     0.000 C 
BRANCH  37  38
HETATM   38  C   UNL     1     -27.086  -6.272 -20.119  1.00  0.00     0.000 C 
BRANCH  38  39
HETATM   39  C   UNL     1     -28.060  -5.984 -19.004  1.00  0.00     0.002 C 
BRANCH  39  40
HETATM   40  C   UNL     1     -28.027  -7.062 -17.936  1.00  0.00     0.032 C 
BRANCH  40  41
HETATM   41  C   UNL     1     -29.437  -7.521 -17.568  1.00  0.00     0.118 C 
BRANCH  41  42
HETATM   42  C   UNL     1     -30.448  -6.376 -17.631  1.00  0.00     0.032 C 
BRANCH  42  43
HETATM   43  C   UNL     1     -31.888  -6.876 -17.686  1.00  0.00     0.002 C 
BRANCH  43  44
HETATM   44  C   UNL     1     -32.858  -5.928 -16.984  1.00  0.00     0.000 C 
BRANCH  44  45
HETATM   45  C   UNL     1     -32.184  -4.641 -16.510  1.00  0.00    -0.000 C 
BRANCH  45  46
HETATM   46  C   UNL     1     -32.033  -3.645 -17.652  1.00  0.00    -0.005 C 
HETATM   47  C   UNL     1     -30.627  -3.070 -17.673  1.00  0.00     0.005 C 
ENDBRANCH  45  46
ENDBRANCH  44  45
ENDBRANCH  43  44
ENDBRANCH  42  43
ENDBRANCH  41  42
BRANCH  41  48
HETATM   48  O   UNL     1     -29.822  -8.544 -18.488  1.00  0.00    -0.396 OA
HETATM   49  H   UNL     1     -30.212  -8.102 -19.263  1.00  0.00     0.210 HD
ENDBRANCH  41  48
ENDBRANCH  40  41
ENDBRANCH  39  40
ENDBRANCH  38  39
ENDBRANCH  37  38
ENDBRANCH  36  37
ENDBRANCH  35  36
ENDBRANCH  34  35
ENDBRANCH  33  34
ENDBRANCH  32  33
ENDBRANCH  31  32
ENDBRANCH  28  31
ENDBRANCH  27  28
ENDBRANCH  26  27
ENDBRANCH   2  26
BRANCH   2  50
HETATM   50  C   UNL     1     -21.823  -3.729 -11.928  1.00  0.00     0.194 C 
BRANCH  50  51
HETATM   51  O   UNL     1     -21.914  -2.362 -11.630  1.00  0.00    -0.320 OA
BRANCH  51  52
HETATM   52  C   UNL     1     -20.721  -1.826 -11.264  1.00  0.00     0.258 C 
HETATM   53  O   UNL     1     -19.740  -2.413 -10.822  1.00  0.00    -0.265 OA
BRANCH  52  54
HETATM   54  C   UNL     1     -20.775  -0.372 -11.567  1.00  0.00     0.111 C 
BRANCH  54  55
HETATM   55  C   UNL     1     -19.567   0.315 -10.960  1.00  0.00     0.010 C 
BRANCH  55  56
HETATM   56  C   UNL     1     -19.609   1.772 -11.374  1.00  0.00     0.000 C 
BRANCH  56  57
HETATM   57  C   UNL     1     -20.960   2.381 -11.073  1.00  0.00     0.000 C 
BRANCH  57  58
HETATM   58  C   UNL     1     -20.767   3.692 -10.333  1.00  0.00     0.000 C 
BRANCH  58  59
HETATM   59  C   UNL     1     -21.670   3.728  -9.113  1.00  0.00     0.000 C 
BRANCH  59  60
HETATM   60  C   UNL     1     -23.081   4.102  -9.523  1.00  0.00     0.000 C 
BRANCH  60  61
HETATM   61  C   UNL     1     -23.921   4.438  -8.299  1.00  0.00     0.000 C 
BRANCH  61  62
HETATM   62  C   UNL     1     -25.133   5.241  -8.740  1.00  0.00     0.002 C 
BRANCH  62  63
HETATM   63  C   UNL     1     -25.179   5.435 -10.248  1.00  0.00     0.032 C 
BRANCH  63  64
HETATM   64  C   UNL     1     -25.615   6.852 -10.633  1.00  0.00     0.118 C 
BRANCH  64  65
HETATM   65  C   UNL     1     -24.771   7.449 -11.767  1.00  0.00     0.032 C 
BRANCH  65  66
HETATM   66  C   UNL     1     -24.155   8.796 -11.382  1.00  0.00     0.002 C 
BRANCH  66  67
HETATM   67  C   UNL     1     -25.071   9.987 -11.676  1.00  0.00     0.000 C 
BRANCH  67  68
HETATM   68  C   UNL     1     -24.415  11.042 -12.567  1.00  0.00    -0.000 C 
BRANCH  68  69
HETATM   69  C   UNL     1     -22.981  10.662 -12.925  1.00  0.00    -0.005 C 
HETATM   70  C   UNL     1     -22.711  10.904 -14.402  1.00  0.00     0.005 C 
ENDBRANCH  68  69
ENDBRANCH  67  68
ENDBRANCH  66  67
ENDBRANCH  65  66
ENDBRANCH  64  65
BRANCH  64  71
HETATM   71  O   UNL     1     -26.983   6.799 -11.041  1.00  0.00    -0.396 OA
HETATM   72  H   UNL     1     -27.000   6.828 -12.013  1.00  0.00     0.210 HD
ENDBRANCH  64  71
ENDBRANCH  63  64
ENDBRANCH  62  63
ENDBRANCH  61  62
ENDBRANCH  60  61
ENDBRANCH  59  60
ENDBRANCH  58  59
ENDBRANCH  57  58
ENDBRANCH  56  57
ENDBRANCH  55  56
ENDBRANCH  54  55
ENDBRANCH  52  54
ENDBRANCH  51  52
ENDBRANCH  50  51
ENDBRANCH   2  50
ENDBRANCH   1   2
BRANCH   1  73
HETATM   73  O   UNL     1     -23.126  -4.686  -9.450  1.00  0.00    -0.389 OA
BRANCH  73  74
HETATM   74  C   UNL     1     -21.756  -5.060  -9.065  1.00  0.00     0.183 C 
BRANCH  74  75
HETATM   75  C   UNL     1     -21.546  -5.311  -7.459  1.00  0.00     0.047 C 
BRANCH  75  76
HETATM   76  C   UNL     1     -20.828  -6.597  -7.097  1.00  0.00     0.194 C 
BRANCH  76  77
HETATM   77  O   UNL     1     -21.651  -7.645  -6.570  1.00  0.00    -0.320 OA
BRANCH  77  78
HETATM   78  C   UNL     1     -21.034  -8.372  -5.611  1.00  0.00     0.258 C 
HETATM   79  O   UNL     1     -20.164  -7.866  -4.887  1.00  0.00    -0.265 OA
BRANCH  78  80
HETATM   80  C   UNL     1     -21.412  -9.846  -5.695  1.00  0.00     0.111 C 
BRANCH  80  81
HETATM   81  C   UNL     1     -21.522 -10.761  -4.415  1.00  0.00     0.010 C 
BRANCH  81  82
HETATM   82  C   UNL     1     -20.788 -10.982  -2.911  1.00  0.00     0.000 C 
BRANCH  82  83
HETATM   83  C   UNL     1     -19.362 -10.465  -1.964  1.00  0.00     0.000 C 
BRANCH  83  84
HETATM   84  C   UNL     1     -17.851 -11.133  -1.563  1.00  0.00     0.000 C 
BRANCH  84  85
HETATM   85  C   UNL     1     -17.773 -12.441  -0.786  1.00  0.00     0.000 C 
BRANCH  85  86
HETATM   86  C   UNL     1     -16.652 -12.303   0.156  1.00  0.00     0.000 C 
BRANCH  86  87
HETATM   87  C   UNL     1     -15.553 -13.157  -0.337  1.00  0.00     0.000 C 
BRANCH  87  88
HETATM   88  C   UNL     1     -15.136 -13.905   0.874  1.00  0.00     0.002 C 
BRANCH  88  89
HETATM   89  C   UNL     1     -13.797 -13.388   1.169  1.00  0.00     0.032 C 
BRANCH  89  90
HETATM   90  C   UNL     1     -12.690 -14.394   0.778  1.00  0.00     0.118 C 
BRANCH  90  91
HETATM   91  C   UNL     1     -10.946 -13.852   0.769  1.00  0.00     0.032 C 
BRANCH  91  92
HETATM   92  C   UNL     1      -9.712 -13.539   1.970  1.00  0.00     0.002 C 
BRANCH  92  93
HETATM   93  C   UNL     1      -8.736 -14.627   2.414  1.00  0.00     0.000 C 
BRANCH  93  94
HETATM   94  C   UNL     1      -8.260 -14.227   3.752  1.00  0.00    -0.000 C 
BRANCH  94  95
HETATM   95  C   UNL     1      -9.372 -14.395   4.722  1.00  0.00    -0.005 C 
HETATM   96  C   UNL     1      -9.122 -13.327   5.730  1.00  0.00     0.005 C 
ENDBRANCH  94  95
ENDBRANCH  93  94
ENDBRANCH  92  93
ENDBRANCH  91  92
ENDBRANCH  90  91
BRANCH  90  97
HETATM   97  O   UNL     1     -13.293 -15.464   1.578  1.00  0.00    -0.396 OA
HETATM   98  H   UNL     1     -12.832 -16.311   1.569  1.00  0.00     0.210 HD
ENDBRANCH  90  97
ENDBRANCH  89  90
ENDBRANCH  88  89
ENDBRANCH  87  88
ENDBRANCH  86  87
ENDBRANCH  85  86
ENDBRANCH  84  85
ENDBRANCH  83  84
ENDBRANCH  82  83
ENDBRANCH  81  82
ENDBRANCH  80  81
ENDBRANCH  78  80
ENDBRANCH  77  78
ENDBRANCH  76  77
ENDBRANCH  75  76
BRANCH  75  99
HETATM   99  C   UNL     1     -20.653  -4.243  -6.779  1.00  0.00     0.194 C 
BRANCH  99 100
HETATM  100  O   UNL     1     -19.436  -4.811  -6.253  1.00  0.00    -0.320 OA
BRANCH 100 101
HETATM  101  C   UNL     1     -18.374  -4.840  -7.090  1.00  0.00     0.258 C 
HETATM  102  O   UNL     1     -18.187  -4.059  -8.013  1.00  0.00    -0.265 OA
BRANCH 101 103
HETATM  103  C   UNL     1     -17.461  -5.980  -6.728  1.00  0.00     0.111 C 
BRANCH 103 104
HETATM  104  C   UNL     1     -17.996  -7.318  -7.223  1.00  0.00     0.010 C 
BRANCH 104 105
HETATM  105  C   UNL     1     -17.702  -8.497  -6.287  1.00  0.00     0.000 C 
BRANCH 105 106
HETATM  106  C   UNL     1     -16.289  -9.062  -6.425  1.00  0.00     0.000 C 
BRANCH 106 107
HETATM  107  C   UNL     1     -15.800  -9.660  -5.115  1.00  0.00     0.000 C 
BRANCH 107 108
HETATM  108  C   UNL     1     -15.215 -11.043  -5.340  1.00  0.00     0.000 C 
BRANCH 108 109
HETATM  109  C   UNL     1     -15.097 -11.757  -4.007  1.00  0.00     0.000 C 
BRANCH 109 110
HETATM  110  C   UNL     1     -15.469 -13.224  -4.149  1.00  0.00     0.000 C 
BRANCH 110 111
HETATM  111  C   UNL     1     -16.974 -13.328  -4.321  1.00  0.00     0.002 C 
BRANCH 111 112
HETATM  112  C   UNL     1     -17.368 -14.506  -5.198  1.00  0.00     0.032 C 
BRANCH 112 113
HETATM  113  C   UNL     1     -16.531 -14.569  -6.479  1.00  0.00     0.118 C 
BRANCH 113 114
HETATM  114  C   UNL     1     -15.977 -15.971  -6.757  1.00  0.00     0.032 C 
BRANCH 114 115
HETATM  115  C   UNL     1     -14.482 -16.079  -6.451  1.00  0.00     0.002 C 
BRANCH 115 116
HETATM  116  C   UNL     1     -14.193 -16.718  -5.089  1.00  0.00     0.000 C 
BRANCH 116 117
HETATM  117  C   UNL     1     -12.905 -16.203  -4.443  1.00  0.00    -0.000 C 
BRANCH 117 118
HETATM  118  C   UNL     1     -13.131 -15.801  -2.989  1.00  0.00    -0.005 C 
HETATM  119  C   UNL     1     -12.438 -14.485  -2.675  1.00  0.00     0.005 C 
ENDBRANCH 117 118
ENDBRANCH 116 117
ENDBRANCH 115 116
ENDBRANCH 114 115
ENDBRANCH 113 114
BRANCH 113 120
HETATM  120  O   UNL     1     -17.362 -14.162  -7.564  1.00  0.00    -0.396 OA
HETATM  121  H   UNL     1     -17.778 -14.959  -7.936  1.00  0.00     0.210 HD
ENDBRANCH 113 120
ENDBRANCH 112 113
ENDBRANCH 111 112
ENDBRANCH 110 111
ENDBRANCH 109 110
ENDBRANCH 108 109
ENDBRANCH 107 108
ENDBRANCH 106 107
ENDBRANCH 105 106
ENDBRANCH 104 105
ENDBRANCH 103 104
ENDBRANCH 101 103
ENDBRANCH 100 101
ENDBRANCH  99 100
ENDBRANCH  75  99
BRANCH  75 122
HETATM  122  C   UNL     1     -22.946  -5.448  -6.805  1.00  0.00     0.194 C 
BRANCH 122 123
HETATM  123  O   UNL     1     -22.785  -5.439  -5.416  1.00  0.00    -0.320 OA
BRANCH 123 124
HETATM  124  C   UNL     1     -23.799  -6.046  -4.770  1.00  0.00     0.258 C 
HETATM  125  O   UNL     1     -24.990  -6.109  -5.069  1.00  0.00    -0.265 OA
BRANCH 124 126
HETATM  126  C   UNL     1     -23.139  -6.911  -3.716  1.00  0.00     0.111 C 
BRANCH 126 127
HETATM  127  C   UNL     1     -22.075  -6.022  -3.136  1.00  0.00     0.010 C 
BRANCH 127 128
HETATM  128  C   UNL     1     -21.404  -6.797  -2.057  1.00  0.00     0.000 C 
BRANCH 128 129
HETATM  129  C   UNL     1     -22.400  -6.902  -0.943  1.00  0.00     0.000 C 
BRANCH 129 130
HETATM  130  C   UNL     1     -21.860  -7.847   0.088  1.00  0.00     0.000 C 
BRANCH 130 131
HETATM  131  C   UNL     1     -23.012  -8.658   0.624  1.00  0.00     0.000 C 
BRANCH 131 132
HETATM  132  C   UNL     1     -23.237  -9.831  -0.293  1.00  0.00     0.000 C 
BRANCH 132 133
HETATM  133  C   UNL     1     -22.533 -11.056   0.256  1.00  0.00     0.000 C 
BRANCH 133 134
HETATM  134  C   UNL     1     -23.532 -12.194   0.286  1.00  0.00     0.002 C 
BRANCH 134 135
HETATM  135  C   UNL     1     -24.038 -12.538  -1.102  1.00  0.00     0.032 C 
BRANCH 135 136
HETATM  136  C   UNL     1     -24.120 -14.052  -1.315  1.00  0.00     0.118 C 
BRANCH 136 137
HETATM  137  C   UNL     1     -23.109 -14.560  -2.348  1.00  0.00     0.032 C 
BRANCH 137 138
HETATM  138  C   UNL     1     -23.542 -15.878  -2.989  1.00  0.00     0.002 C 
BRANCH 138 139
HETATM  139  C   UNL     1     -23.867 -15.743  -4.479  1.00  0.00     0.000 C 
BRANCH 139 140
HETATM  140  C   UNL     1     -25.329 -16.056  -4.809  1.00  0.00    -0.000 C 
BRANCH 140 141
HETATM  141  C   UNL     1     -25.797 -15.300  -6.048  1.00  0.00    -0.005 C 
HETATM  142  C   UNL     1     -27.250 -15.618  -6.360  1.00  0.00     0.005 C 
ENDBRANCH 140 141
ENDBRANCH 139 140
ENDBRANCH 138 139
ENDBRANCH 137 138
ENDBRANCH 136 137
BRANCH 136 143
HETATM  143  O   UNL     1     -23.880 -14.684  -0.059  1.00  0.00    -0.396 OA
HETATM  144  H   UNL     1     -22.922 -14.843   0.014  1.00  0.00     0.210 HD
ENDBRANCH 136 143
ENDBRANCH 135 136
ENDBRANCH 134 135
ENDBRANCH 133 134
ENDBRANCH 132 133
ENDBRANCH 131 132
ENDBRANCH 130 131
ENDBRANCH 129 130
ENDBRANCH 128 129
ENDBRANCH 127 128
ENDBRANCH 126 127
ENDBRANCH 124 126
ENDBRANCH 123 124
ENDBRANCH 122 123
ENDBRANCH  75 122
ENDBRANCH  74  75
ENDBRANCH  73  74
ENDBRANCH   1  73
TORSDOF 125
BEGIN_RES ARG D 557
REMARK  4 active torsions:
REMARK  status: ('A' for Active; 'I' for Inactive)
REMARK    1  A    between atoms: CA   and  CB  
REMARK    2  A    between atoms: CB   and  CG  
REMARK    3  A    between atoms: CG   and  CD  
REMARK    4  A    between atoms: CD   and  NE  
REMARK       I    between atoms: NE   and  CZ  
REMARK       I    between atoms: CZ   and  NH1 
REMARK       I    between atoms: CZ   and  NH2 
ROOT
ATOM      1  CA  ARG D 557     -26.217   2.705 -17.014  1.00 35.49     0.159 C 
ENDROOT
BRANCH   1   2
ATOM      2  CB  ARG D 557     -26.789   1.319 -17.183  1.00 35.49     0.034 C 
BRANCH   2   3
ATOM      3  CG  ARG D 557     -25.826   0.220 -17.324  1.00 35.49     0.027 C 
BRANCH   3   4
ATOM      4  CD  ARG D 557     -24.485   0.574 -16.807  1.00 35.49     0.116 C 
BRANCH   4   5
ATOM      5  NE  ARG D 557     -24.268   0.076 -15.474  1.00 35.49    -0.212 N 
ATOM      6  CZ  ARG D 557     -23.366  -0.814 -15.124  1.00 35.49     0.666 C 
ATOM      7  NH1 ARG D 557     -22.545  -1.372 -15.995  1.00 35.49    -0.235 N 
ATOM      8  NH2 ARG D 557     -23.296  -1.134 -13.865  1.00 35.49    -0.235 N 
ATOM      9  HH  ARG D 557     -22.572  -1.174 -16.828  1.00 35.49     0.174 HD
ATOM     10  HH  ARG D 557     -21.975  -1.944 -15.708  1.00 35.49     0.174 HD
ATOM     11  HH  ARG D 557     -23.834  -0.753 -13.324  1.00 35.49     0.174 HD
ATOM     12  HH  ARG D 557     -22.724  -1.702 -13.601  1.00 35.49     0.174 HD
ATOM     13  HE  ARG D 557     -24.802   0.327 -14.862  1.00 35.49     0.178 HD
ENDBRANCH   4   5
ENDBRANCH   3   4
ENDBRANCH   2   3
ENDBRANCH   1   2
END_RES ARG D 557
BEGIN_RES GLU D 570
REMARK  3 active torsions:
REMARK  status: ('A' for Active; 'I' for Inactive)
REMARK    5  A    between atoms: CA   and  CB  
REMARK    6  A    between atoms: CB   and  CG  
REMARK    7  A    between atoms: CG   and  CD  
ROOT
ATOM     14  CA  GLU D 570     -18.033  -6.348 -13.375  1.00 32.92     0.160 C 
ENDROOT
BRANCH  14  15
ATOM     15  CB  GLU D 570     -19.500  -6.345 -13.794  1.00 32.92     0.043 C 
BRANCH  15  16
ATOM     16  CG  GLU D 570     -19.867  -5.555 -14.998  1.00 32.92     0.100 C 
BRANCH  16  17
ATOM     17  CD  GLU D 570     -20.415  -6.407 -16.118  1.00 32.92     0.185 C 
ATOM     18  OE1 GLU D 570     -20.602  -5.890 -17.236  1.00 32.92    -0.647 OA
ATOM     19  OE2 GLU D 570     -20.677  -7.601 -15.870  1.00 32.92    -0.647 OA
ENDBRANCH  16  17
ENDBRANCH  15  16
ENDBRANCH  14  15
END_RES GLU D 570
ENDMDL
MODEL 7
REMARK VINA RESULT:      -3.0      1.863      3.359
REMARK WARNING: 32 MAX_TORS EXCEEDED!!!
REMARK  125 active torsions:
REMARK  status: ('A' for Active; 'I' for Inactive)
REMARK    1  A    between atoms: C_2  and  C_3 
REMARK    2  A    between atoms: C_3  and  C_4 
REMARK    3  A    between atoms: C_4  and  C_5 
REMARK    4  A    between atoms: C_5  and  C_6 
REMARK    5  A    between atoms: C_6  and  C_7 
REMARK    6  A    between atoms: C_7  and  C_8 
REMARK    7  A    between atoms: C_7  and  O_138 
REMARK    8  A    between atoms: C_8  and  C_9 
REMARK    9  A    between atoms: C_9  and  C_10 
REMARK   10  A    between atoms: C_10  and  C_11 
REMARK   11  A    between atoms: C_11  and  C_12 
REMARK   12  A    between atoms: C_12  and  C_13 
REMARK   13  A    between atoms: C_13  and  C_14 
REMARK   14  A    between atoms: C_14  and  C_15 
REMARK   15  A    between atoms: C_15  and  C_16 
REMARK   16  A    between atoms: C_16  and  C_17 
REMARK   17  A    between atoms: C_17  and  C_18 
REMARK   18  A    between atoms: C_18  and  O_20 
REMARK   19  A    between atoms: O_20  and  C_21 
REMARK   20  A    between atoms: C_21  and  C_22 
REMARK   21  A    between atoms: C_22  and  C_23 
REMARK   22  A    between atoms: C_22  and  C_93 
REMARK   23  A    between atoms: C_22  and  C_116 
REMARK   24  A    between atoms: C_23  and  O_24 
REMARK   25  A    between atoms: O_24  and  C_25 
REMARK   26  A    between atoms: C_25  and  C_26 
REMARK   27  A    between atoms: C_26  and  C_27 
REMARK   28  A    between atoms: C_26  and  C_49 
REMARK   29  A    between atoms: C_26  and  C_71 
REMARK   30  A    between atoms: C_27  and  O_28 
REMARK   31  A    between atoms: O_28  and  C_29 
REMARK   32  A    between atoms: C_29  and  C_31 
REMARK   33  A    between atoms: C_31  and  C_32 
REMARK   34  A    between atoms: C_32  and  C_33 
REMARK   35  A    between atoms: C_33  and  C_34 
REMARK   36  A    between atoms: C_34  and  C_35 
REMARK   37  A    between atoms: C_35  and  C_36 
REMARK   38  A    between atoms: C_36  and  C_37 
REMARK   39  A    between atoms: C_37  and  C_38 
REMARK   40  A    between atoms: C_38  and  C_39 
REMARK   41  A    between atoms: C_39  and  C_40 
REMARK   42  A    between atoms: C_40  and  C_41 
REMARK   43  A    between atoms: C_41  and  C_42 
REMARK   44  A    between atoms: C_41  and  O_48 
REMARK   45  A    between atoms: C_42  and  C_43 
REMARK   46  A    between atoms: C_43  and  C_44 
REMARK   47  A    between atoms: C_44  and  C_45 
REMARK   48  A    between atoms: C_45  and  C_46 
REMARK   49  A    between atoms: C_49  and  O_50 
REMARK   50  A    between atoms: O_50  and  C_51 
REMARK   51  A    between atoms: C_51  and  C_53 
REMARK   52  A    between atoms: C_53  and  C_54 
REMARK   53  A    between atoms: C_54  and  C_55 
REMARK   54  A    between atoms: C_55  and  C_56 
REMARK   55  A    between atoms: C_56  and  C_57 
REMARK   56  A    between atoms: C_57  and  C_58 
REMARK   57  A    between atoms: C_58  and  C_59 
REMARK   58  A    between atoms: C_59  and  C_60 
REMARK   59  A    between atoms: C_60  and  C_61 
REMARK   60  A    between atoms: C_61  and  C_62 
REMARK   61  A    between atoms: C_62  and  C_63 
REMARK   62  A    between atoms: C_63  and  C_64 
REMARK   63  A    between atoms: C_63  and  O_70 
REMARK   64  A    between atoms: C_64  and  C_65 
REMARK   65  A    between atoms: C_65  and  C_66 
REMARK   66  A    between atoms: C_66  and  C_67 
REMARK   67  A    between atoms: C_67  and  C_68 
REMARK   68  A    between atoms: C_71  and  O_72 
REMARK   69  A    between atoms: O_72  and  C_73 
REMARK   70  A    between atoms: C_73  and  C_75 
REMARK   71  A    between atoms: C_75  and  C_76 
REMARK   72  A    between atoms: C_76  and  C_77 
REMARK   73  A    between atoms: C_77  and  C_78 
REMARK   74  A    between atoms: C_78  and  C_79 
REMARK   75  A    between atoms: C_79  and  C_80 
REMARK   76  A    between atoms: C_80  and  C_81 
REMARK   77  A    between atoms: C_81  and  C_82 
REMARK   78  A    between atoms: C_82  and  C_83 
REMARK   79  A    between atoms: C_83  and  C_84 
REMARK   80  A    between atoms: C_84  and  C_85 
REMARK   81  A    between atoms: C_85  and  C_86 
REMARK   82  A    between atoms: C_85  and  O_92 
REMARK   83  A    between atoms: C_86  and  C_87 
REMARK   84  A    between atoms: C_87  and  C_88 
REMARK   85  A    between atoms: C_88  and  C_89 
REMARK   86  A    between atoms: C_89  and  C_90 
REMARK   87  A    between atoms: C_93  and  O_94 
REMARK   88  A    between atoms: O_94  and  C_95 
REMARK   89  A    between atoms: C_95  and  O_96 
REMARK   90  A    between atoms: C_95  and  C_98 
REMARK   91  A    between atoms: C_98  and  C_99 
REMARK   92  A    between atoms: C_99  and  C_100 
REMARK   93  A    between atoms: C_100  and  C_101 
REMARK   94  A    between atoms: C_101  and  C_102 
REMARK   95  A    between atoms: C_102  and  C_103 
REMARK   96  A    between atoms: C_103  and  C_104 
REMARK   97  A    between atoms: C_104  and  C_105 
REMARK   98  A    between atoms: C_105  and  C_106 
REMARK   99  A    between atoms: C_106  and  C_107 
REMARK  100  A    between atoms: C_107  and  C_108 
REMARK  101  A    between atoms: C_108  and  C_109 
REMARK  102  A    between atoms: C_108  and  O_115 
REMARK  103  A    between atoms: C_109  and  C_110 
REMARK  104  A    between atoms: C_110  and  C_111 
REMARK  105  A    between atoms: C_111  and  C_112 
REMARK  106  A    between atoms: C_112  and  C_113 
REMARK  107  A    between atoms: C_116  and  O_117 
REMARK  108  A    between atoms: O_117  and  C_118 
REMARK  109  A    between atoms: C_118  and  C_120 
REMARK  110  A    between atoms: C_120  and  C_121 
REMARK  111  A    between atoms: C_121  and  C_122 
REMARK  112  A    between atoms: C_122  and  C_123 
REMARK  113  A    between atoms: C_123  and  C_124 
REMARK  114  A    between atoms: C_124  and  C_125 
REMARK  115  A    between atoms: C_125  and  C_126 
REMARK  116  A    between atoms: C_126  and  C_127 
REMARK  117  A    between atoms: C_127  and  C_128 
REMARK  118  A    between atoms: C_128  and  C_129 
REMARK  119  A    between atoms: C_129  and  C_130 
REMARK  120  A    between atoms: C_130  and  C_131 
REMARK  121  A    between atoms: C_130  and  O_137 
REMARK  122  A    between atoms: C_131  and  C_132 
REMARK  123  A    between atoms: C_132  and  C_133 
REMARK  124  A    between atoms: C_133  and  C_134 
REMARK  125  A    between atoms: C_134  and  C_135 
ROOT
HETATM    1  C   UNL     1     -23.702  -5.149 -10.867  1.00  0.00     0.183 C 
ENDROOT
BRANCH   1   2
HETATM    2  C   UNL     1     -23.242  -4.243 -12.201  1.00  0.00     0.047 C 
BRANCH   2   3
HETATM    3  C   UNL     1     -24.486  -3.311 -12.477  1.00  0.00     0.194 C 
BRANCH   3   4
HETATM    4  O   UNL     1     -24.593  -3.062 -13.937  1.00  0.00    -0.320 OA
BRANCH   4   5
HETATM    5  C   UNL     1     -25.787  -2.980 -14.603  1.00  0.00     0.258 C 
HETATM    6  O   UNL     1     -26.392  -1.936 -14.796  1.00  0.00    -0.265 OA
BRANCH   5   7
HETATM    7  C   UNL     1     -26.295  -4.363 -15.054  1.00  0.00     0.111 C 
BRANCH   7   8
HETATM    8  C   UNL     1     -27.787  -4.490 -15.468  1.00  0.00     0.010 C 
BRANCH   8   9
HETATM    9  C   UNL     1     -28.599  -5.631 -14.693  1.00  0.00     0.000 C 
BRANCH   9  10
HETATM   10  C   UNL     1     -30.061  -5.307 -14.117  1.00  0.00     0.000 C 
BRANCH  10  11
HETATM   11  C   UNL     1     -30.781  -5.295 -12.591  1.00  0.00     0.000 C 
BRANCH  11  12
HETATM   12  C   UNL     1     -32.049  -4.437 -12.103  1.00  0.00     0.000 C 
BRANCH  12  13
HETATM   13  C   UNL     1     -33.102  -5.304 -11.435  1.00  0.00     0.000 C 
BRANCH  13  14
HETATM   14  C   UNL     1     -33.983  -4.498 -10.473  1.00  0.00     0.000 C 
BRANCH  14  15
HETATM   15  C   UNL     1     -34.985  -3.637 -11.229  1.00  0.00     0.002 C 
BRANCH  15  16
HETATM   16  C   UNL     1     -34.671  -2.168 -10.989  1.00  0.00     0.032 C 
BRANCH  16  17
HETATM   17  C   UNL     1     -35.897  -1.327 -10.710  1.00  0.00     0.118 C 
BRANCH  17  18
HETATM   18  C   UNL     1     -36.051  -0.234 -11.763  1.00  0.00     0.032 C 
BRANCH  18  19
HETATM   19  C   UNL     1     -34.939  -0.300 -12.802  1.00  0.00     0.002 C 
BRANCH  19  20
HETATM   20  C   UNL     1     -34.794   1.010 -13.546  1.00  0.00     0.000 C 
BRANCH  20  21
HETATM   21  C   UNL     1     -35.081   0.770 -15.021  1.00  0.00    -0.000 C 
BRANCH  21  22
HETATM   22  C   UNL     1     -35.641  -0.627 -15.227  1.00  0.00    -0.005 C 
HETATM   23  C   UNL     1     -36.407  -0.705 -16.531  1.00  0.00     0.005 C 
ENDBRANCH  21  22
ENDBRANCH  20  21
ENDBRANCH  19  20
ENDBRANCH  18  19
ENDBRANCH  17  18
BRANCH  17  24
HETATM   24  O   UNL     1     -35.757  -0.707  -9.432  1.00  0.00    -0.396 OA
HETATM   25  H   UNL     1     -36.089  -1.336  -8.767  1.00  0.00     0.210 HD
ENDBRANCH  17  24
ENDBRANCH  16  17
ENDBRANCH  15  16
ENDBRANCH  14  15
ENDBRANCH  13  14
ENDBRANCH  12  13
ENDBRANCH  11  12
ENDBRANCH  10  11
ENDBRANCH   9  10
ENDBRANCH   8   9
ENDBRANCH   7   8
ENDBRANCH   5   7
ENDBRANCH   4   5
ENDBRANCH   3   4
ENDBRANCH   2   3
BRANCH   2  26
HETATM   26  C   UNL     1     -22.927  -4.783 -13.636  1.00  0.00     0.187 C 
BRANCH  26  27
HETATM   27  O   UNL     1     -23.801  -6.133 -14.226  1.00  0.00    -0.360 OA
BRANCH  27  28
HETATM   28  C   UNL     1     -24.401  -6.905 -15.288  1.00  0.00     0.256 C 
BRANCH  28  29
HETATM   29  O   UNL     1     -25.586  -7.392 -15.025  1.00  0.00    -0.371 OA
ATOM     30  HO  UNL     1     -26.303  -7.000 -15.510  1.00  0.00     0.212 HD
ENDBRANCH  28  29
BRANCH  28  31
HETATM   31  C   UNL     1     -23.783  -7.395 -16.675  1.00  0.00     0.060 C 
BRANCH  31  32
HETATM   32  C   UNL     1     -24.164  -7.015 -18.138  1.00  0.00     0.005 C 
BRANCH  32  33
HETATM   33  C   UNL     1     -23.006  -7.367 -19.136  1.00  0.00     0.000 C 
BRANCH  33  34
HETATM   34  C   UNL     1     -23.577  -7.935 -20.417  1.00  0.00     0.000 C 
BRANCH  34  35
HETATM   35  C   UNL     1     -24.758  -7.148 -20.957  1.00  0.00     0.000 C 
BRANCH  35  36
HETATM   36  C   UNL     1     -25.833  -8.176 -21.254  1.00  0.00     0.000 C 
BRANCH  36  37
HETATM   37  C   UNL     1     -27.145  -7.806 -20.617  1.00  0.00     0.000 C 
BRANCH  37  38
HETATM   38  C   UNL     1     -27.047  -6.380 -20.101  1.00  0.00     0.000 C 
BRANCH  38  39
HETATM   39  C   UNL     1     -27.549  -6.363 -18.678  1.00  0.00     0.002 C 
BRANCH  39  40
HETATM   40  C   UNL     1     -29.058  -6.212 -18.617  1.00  0.00     0.032 C 
BRANCH  40  41
HETATM   41  C   UNL     1     -29.704  -7.389 -17.888  1.00  0.00     0.118 C 
BRANCH  41  42
HETATM   42  C   UNL     1     -31.119  -7.062 -17.410  1.00  0.00     0.032 C 
BRANCH  42  43
HETATM   43  C   UNL     1     -31.254  -5.614 -16.949  1.00  0.00     0.002 C 
BRANCH  43  44
HETATM   44  C   UNL     1     -32.451  -4.912 -17.587  1.00  0.00     0.000 C 
BRANCH  44  45
HETATM   45  C   UNL     1     -33.142  -3.940 -16.630  1.00  0.00    -0.000 C 
BRANCH  45  46
HETATM   46  C   UNL     1     -33.886  -4.684 -15.530  1.00  0.00    -0.005 C 
HETATM   47  C   UNL     1     -34.492  -3.705 -14.541  1.00  0.00     0.005 C 
ENDBRANCH  45  46
ENDBRANCH  44  45
ENDBRANCH  43  44
ENDBRANCH  42  43
ENDBRANCH  41  42
BRANCH  41  48
HETATM   48  O   UNL     1     -29.752  -8.495 -18.789  1.00  0.00    -0.396 OA
HETATM   49  H   UNL     1     -29.247  -8.242 -19.583  1.00  0.00     0.210 HD
ENDBRANCH  41  48
ENDBRANCH  40  41
ENDBRANCH  39  40
ENDBRANCH  38  39
ENDBRANCH  37  38
ENDBRANCH  36  37
ENDBRANCH  35  36
ENDBRANCH  34  35
ENDBRANCH  33  34
ENDBRANCH  32  33
ENDBRANCH  31  32
ENDBRANCH  28  31
ENDBRANCH  27  28
ENDBRANCH  26  27
ENDBRANCH   2  26
BRANCH   2  50
HETATM   50  C   UNL     1     -21.879  -3.612 -11.937  1.00  0.00     0.194 C 
BRANCH  50  51
HETATM   51  O   UNL     1     -21.944  -2.231 -11.705  1.00  0.00    -0.320 OA
BRANCH  51  52
HETATM   52  C   UNL     1     -20.750  -1.707 -11.327  1.00  0.00     0.258 C 
HETATM   53  O   UNL     1     -19.774  -2.307 -10.891  1.00  0.00    -0.265 OA
BRANCH  52  54
HETATM   54  C   UNL     1     -20.794  -0.249 -11.608  1.00  0.00     0.111 C 
BRANCH  54  55
HETATM   55  C   UNL     1     -19.585   0.423 -10.986  1.00  0.00     0.010 C 
BRANCH  55  56
HETATM   56  C   UNL     1     -19.634   1.892 -11.352  1.00  0.00     0.000 C 
BRANCH  56  57
HETATM   57  C   UNL     1     -21.010   2.467 -11.101  1.00  0.00     0.000 C 
BRANCH  57  58
HETATM   58  C   UNL     1     -20.876   3.788 -10.366  1.00  0.00     0.000 C 
BRANCH  58  59
HETATM   59  C   UNL     1     -21.806   3.803  -9.168  1.00  0.00     0.000 C 
BRANCH  59  60
HETATM   60  C   UNL     1     -23.198   4.225  -9.597  1.00  0.00     0.000 C 
BRANCH  60  61
HETATM   61  C   UNL     1     -24.068   4.512  -8.381  1.00  0.00     0.000 C 
BRANCH  61  62
HETATM   62  C   UNL     1     -25.316   5.251  -8.833  1.00  0.00     0.002 C 
BRANCH  62  63
HETATM   63  C   UNL     1     -25.137   5.906 -10.195  1.00  0.00     0.032 C 
BRANCH  63  64
HETATM   64  C   UNL     1     -26.053   7.121 -10.374  1.00  0.00     0.118 C 
BRANCH  64  65
HETATM   65  C   UNL     1     -25.313   8.353 -10.910  1.00  0.00     0.032 C 
BRANCH  65  66
HETATM   66  C   UNL     1     -23.973   7.989 -11.553  1.00  0.00     0.002 C 
BRANCH  66  67
HETATM   67  C   UNL     1     -22.861   8.995 -11.246  1.00  0.00     0.000 C 
BRANCH  67  68
HETATM   68  C   UNL     1     -22.829  10.169 -12.226  1.00  0.00    -0.000 C 
BRANCH  68  69
HETATM   69  C   UNL     1     -24.213  10.461 -12.799  1.00  0.00    -0.005 C 
HETATM   70  C   UNL     1     -24.664  11.865 -12.431  1.00  0.00     0.005 C 
ENDBRANCH  68  69
ENDBRANCH  67  68
ENDBRANCH  66  67
ENDBRANCH  65  66
ENDBRANCH  64  65
BRANCH  64  71
HETATM   71  O   UNL     1     -27.093   6.761 -11.285  1.00  0.00    -0.396 OA
HETATM   72  H   UNL     1     -27.887   7.266 -11.037  1.00  0.00     0.210 HD
ENDBRANCH  64  71
ENDBRANCH  63  64
ENDBRANCH  62  63
ENDBRANCH  61  62
ENDBRANCH  60  61
ENDBRANCH  59  60
ENDBRANCH  58  59
ENDBRANCH  57  58
ENDBRANCH  56  57
ENDBRANCH  55  56
ENDBRANCH  54  55
ENDBRANCH  52  54
ENDBRANCH  51  52
ENDBRANCH  50  51
ENDBRANCH   2  50
ENDBRANCH   1   2
BRANCH   1  73
HETATM   73  O   UNL     1     -23.290  -4.708  -9.525  1.00  0.00    -0.389 OA
BRANCH  73  74
HETATM   74  C   UNL     1     -21.874  -4.817  -9.139  1.00  0.00     0.183 C 
BRANCH  74  75
HETATM   75  C   UNL     1     -21.628  -5.187  -7.562  1.00  0.00     0.047 C 
BRANCH  75  76
HETATM   76  C   UNL     1     -20.836  -6.458  -7.315  1.00  0.00     0.194 C 
BRANCH  76  77
HETATM   77  O   UNL     1     -21.542  -7.517  -6.657  1.00  0.00    -0.320 OA
BRANCH  77  78
HETATM   78  C   UNL     1     -20.870  -8.025  -5.600  1.00  0.00     0.258 C 
HETATM   79  O   UNL     1     -20.002  -7.360  -5.016  1.00  0.00    -0.265 OA
BRANCH  78  80
HETATM   80  C   UNL     1     -21.188  -9.501  -5.391  1.00  0.00     0.111 C 
BRANCH  80  81
HETATM   81  C   UNL     1     -20.653 -10.310  -4.148  1.00  0.00     0.010 C 
BRANCH  81  82
HETATM   82  C   UNL     1     -19.418 -10.254  -2.998  1.00  0.00     0.000 C 
BRANCH  82  83
HETATM   83  C   UNL     1     -17.759  -9.630  -2.759  1.00  0.00     0.000 C 
BRANCH  83  84
HETATM   84  C   UNL     1     -16.279 -10.264  -2.214  1.00  0.00     0.000 C 
BRANCH  84  85
HETATM   85  C   UNL     1     -15.608 -11.404  -2.971  1.00  0.00     0.000 C 
BRANCH  85  86
HETATM   86  C   UNL     1     -15.869 -12.629  -2.200  1.00  0.00     0.000 C 
BRANCH  86  87
HETATM   87  C   UNL     1     -16.848 -13.429  -2.962  1.00  0.00     0.000 C 
BRANCH  87  88
HETATM   88  C   UNL     1     -18.026 -13.468  -2.061  1.00  0.00     0.002 C 
BRANCH  88  89
HETATM   89  C   UNL     1     -18.223 -14.896  -1.793  1.00  0.00     0.032 C 
BRANCH  89  90
HETATM   90  C   UNL     1     -17.778 -15.282  -0.364  1.00  0.00     0.118 C 
BRANCH  90  91
HETATM   91  C   UNL     1     -16.094 -15.937  -0.094  1.00  0.00     0.032 C 
BRANCH  91  92
HETATM   92  C   UNL     1     -14.682 -15.456   0.821  1.00  0.00     0.002 C 
BRANCH  92  93
HETATM   93  C   UNL     1     -14.255 -13.993   0.921  1.00  0.00     0.000 C 
BRANCH  93  94
HETATM   94  C   UNL     1     -12.781 -13.991   0.839  1.00  0.00    -0.000 C 
BRANCH  94  95
HETATM   95  C   UNL     1     -12.316 -15.380   0.602  1.00  0.00    -0.005 C 
HETATM   96  C   UNL     1     -10.961 -15.408   1.219  1.00  0.00     0.005 C 
ENDBRANCH  94  95
ENDBRANCH  93  94
ENDBRANCH  92  93
ENDBRANCH  91  92
ENDBRANCH  90  91
BRANCH  90  97
HETATM   97  O   UNL     1     -18.376 -14.076   0.215  1.00  0.00    -0.396 OA
HETATM   98  H   UNL     1     -17.787 -13.319   0.318  1.00  0.00     0.210 HD
ENDBRANCH  90  97
ENDBRANCH  89  90
ENDBRANCH  88  89
ENDBRANCH  87  88
ENDBRANCH  86  87
ENDBRANCH  85  86
ENDBRANCH  84  85
ENDBRANCH  83  84
ENDBRANCH  82  83
ENDBRANCH  81  82
ENDBRANCH  80  81
ENDBRANCH  78  80
ENDBRANCH  77  78
ENDBRANCH  76  77
ENDBRANCH  75  76
BRANCH  75  99
HETATM   99  C   UNL     1     -20.784  -4.131  -6.804  1.00  0.00     0.194 C 
BRANCH  99 100
HETATM  100  O   UNL     1     -19.509  -4.658  -6.385  1.00  0.00    -0.320 OA
BRANCH 100 101
HETATM  101  C   UNL     1     -18.497  -4.568  -7.278  1.00  0.00     0.258 C 
HETATM  102  O   UNL     1     -18.448  -3.771  -8.204  1.00  0.00    -0.265 OA
BRANCH 101 103
HETATM  103  C   UNL     1     -17.445  -5.599  -6.973  1.00  0.00     0.111 C 
BRANCH 103 104
HETATM  104  C   UNL     1     -17.997  -7.017  -7.051  1.00  0.00     0.010 C 
BRANCH 104 105
HETATM  105  C   UNL     1     -17.023  -8.098  -6.564  1.00  0.00     0.000 C 
BRANCH 105 106
HETATM  106  C   UNL     1     -17.661  -9.475  -6.388  1.00  0.00     0.000 C 
BRANCH 106 107
HETATM  107  C   UNL     1     -16.622 -10.526  -6.031  1.00  0.00     0.000 C 
BRANCH 107 108
HETATM  108  C   UNL     1     -16.979 -11.867  -6.649  1.00  0.00     0.000 C 
BRANCH 108 109
HETATM  109  C   UNL     1     -18.477 -12.081  -6.545  1.00  0.00     0.000 C 
BRANCH 109 110
HETATM  110  C   UNL     1     -19.058 -12.477  -7.893  1.00  0.00     0.000 C 
BRANCH 110 111
HETATM  111  C   UNL     1     -18.872 -13.973  -8.080  1.00  0.00     0.002 C 
BRANCH 111 112
HETATM  112  C   UNL     1     -18.251 -14.305  -9.428  1.00  0.00     0.032 C 
BRANCH 112 113
HETATM  113  C   UNL     1     -18.218 -15.814  -9.685  1.00  0.00     0.118 C 
BRANCH 113 114
HETATM  114  C   UNL     1     -18.157 -16.160 -11.177  1.00  0.00     0.032 C 
BRANCH 114 115
HETATM  115  C   UNL     1     -16.729 -16.133 -11.725  1.00  0.00     0.002 C 
BRANCH 115 116
HETATM  116  C   UNL     1     -16.669 -15.872 -13.232  1.00  0.00     0.000 C 
BRANCH 116 117
HETATM  117  C   UNL     1     -18.018 -16.050 -13.930  1.00  0.00    -0.000 C 
BRANCH 117 118
HETATM  118  C   UNL     1     -17.995 -15.485 -15.346  1.00  0.00    -0.005 C 
HETATM  119  C   UNL     1     -16.572 -15.192 -15.791  1.00  0.00     0.005 C 
ENDBRANCH 117 118
ENDBRANCH 116 117
ENDBRANCH 115 116
ENDBRANCH 114 115
ENDBRANCH 113 114
BRANCH 113 120
HETATM  120  O   UNL     1     -17.069 -16.344  -9.026  1.00  0.00    -0.396 OA
HETATM  121  H   UNL     1     -16.379 -15.657  -9.034  1.00  0.00     0.210 HD
ENDBRANCH 113 120
ENDBRANCH 112 113
ENDBRANCH 111 112
ENDBRANCH 110 111
ENDBRANCH 109 110
ENDBRANCH 108 109
ENDBRANCH 107 108
ENDBRANCH 106 107
ENDBRANCH 105 106
ENDBRANCH 104 105
ENDBRANCH 103 104
ENDBRANCH 101 103
ENDBRANCH 100 101
ENDBRANCH  99 100
ENDBRANCH  75  99
BRANCH  75 122
HETATM  122  C   UNL     1     -23.008  -5.455  -6.907  1.00  0.00     0.194 C 
BRANCH 122 123
HETATM  123  O   UNL     1     -22.858  -5.388  -5.519  1.00  0.00    -0.320 OA
BRANCH 123 124
HETATM  124  C   UNL     1     -23.856  -6.002  -4.855  1.00  0.00     0.258 C 
HETATM  125  O   UNL     1     -25.068  -5.970  -5.063  1.00  0.00    -0.265 OA
BRANCH 124 126
HETATM  126  C   UNL     1     -23.173  -7.004  -3.948  1.00  0.00     0.111 C 
BRANCH 126 127
HETATM  127  C   UNL     1     -22.375  -6.150  -3.003  1.00  0.00     0.010 C 
BRANCH 127 128
HETATM  128  C   UNL     1     -21.733  -7.070  -2.024  1.00  0.00     0.000 C 
BRANCH 128 129
HETATM  129  C   UNL     1     -22.327  -6.734  -0.691  1.00  0.00     0.000 C 
BRANCH 129 130
HETATM  130  C   UNL     1     -22.747  -8.011  -0.025  1.00  0.00     0.000 C 
BRANCH 130 131
HETATM  131  C   UNL     1     -21.514  -8.853   0.184  1.00  0.00     0.000 C 
BRANCH 131 132
HETATM  132  C   UNL     1     -21.885 -10.299  -0.019  1.00  0.00     0.000 C 
BRANCH 132 133
HETATM  133  C   UNL     1     -23.053 -10.399  -0.979  1.00  0.00     0.000 C 
BRANCH 133 134
HETATM  134  C   UNL     1     -23.929 -11.551  -0.530  1.00  0.00     0.002 C 
BRANCH 134 135
HETATM  135  C   UNL     1     -23.188 -12.495   0.398  1.00  0.00     0.032 C 
BRANCH 135 136
HETATM  136  C   UNL     1     -22.770 -13.781  -0.319  1.00  0.00     0.118 C 
BRANCH 136 137
HETATM  137  C   UNL     1     -22.993 -13.713  -1.834  1.00  0.00     0.032 C 
BRANCH 137 138
HETATM  138  C   UNL     1     -21.695 -13.471  -2.604  1.00  0.00     0.002 C 
BRANCH 138 139
HETATM  139  C   UNL     1     -21.464 -14.488  -3.726  1.00  0.00     0.000 C 
BRANCH 139 140
HETATM  140  C   UNL     1     -21.342 -13.844  -5.109  1.00  0.00    -0.000 C 
BRANCH 140 141
HETATM  141  C   UNL     1     -22.143 -14.612  -6.156  1.00  0.00    -0.005 C 
HETATM  142  C   UNL     1     -23.631 -14.338  -6.007  1.00  0.00     0.005 C 
ENDBRANCH 140 141
ENDBRANCH 139 140
ENDBRANCH 138 139
ENDBRANCH 137 138
ENDBRANCH 136 137
BRANCH 136 143
HETATM  143  O   UNL     1     -21.387 -14.002  -0.048  1.00  0.00    -0.396 OA
HETATM  144  H   UNL     1     -20.952 -13.133   0.004  1.00  0.00     0.210 HD
ENDBRANCH 136 143
ENDBRANCH 135 136
ENDBRANCH 134 135
ENDBRANCH 133 134
ENDBRANCH 132 133
ENDBRANCH 131 132
ENDBRANCH 130 131
ENDBRANCH 129 130
ENDBRANCH 128 129
ENDBRANCH 127 128
ENDBRANCH 126 127
ENDBRANCH 124 126
ENDBRANCH 123 124
ENDBRANCH 122 123
ENDBRANCH  75 122
ENDBRANCH  74  75
ENDBRANCH  73  74
ENDBRANCH   1  73
TORSDOF 125
BEGIN_RES ARG D 557
REMARK  4 active torsions:
REMARK  status: ('A' for Active; 'I' for Inactive)
REMARK    1  A    between atoms: CA   and  CB  
REMARK    2  A    between atoms: CB   and  CG  
REMARK    3  A    between atoms: CG   and  CD  
REMARK    4  A    between atoms: CD   and  NE  
REMARK       I    between atoms: NE   and  CZ  
REMARK       I    between atoms: CZ   and  NH1 
REMARK       I    between atoms: CZ   and  NH2 
ROOT
ATOM      1  CA  ARG D 557     -26.217   2.705 -17.014  1.00 35.49     0.159 C 
ENDROOT
BRANCH   1   2
ATOM      2  CB  ARG D 557     -26.789   1.319 -17.183  1.00 35.49     0.034 C 
BRANCH   2   3
ATOM      3  CG  ARG D 557     -28.019   1.017 -16.440  1.00 35.49     0.027 C 
BRANCH   3   4
ATOM      4  CD  ARG D 557     -29.212   0.978 -17.317  1.00 35.49     0.116 C 
BRANCH   4   5
ATOM      5  NE  ARG D 557     -29.831  -0.321 -17.333  1.00 35.49    -0.212 N 
ATOM      6  CZ  ARG D 557     -29.201  -1.472 -17.261  1.00 35.49     0.666 C 
ATOM      7  NH1 ARG D 557     -27.887  -1.558 -17.177  1.00 35.49    -0.235 N 
ATOM      8  NH2 ARG D 557     -29.926  -2.554 -17.269  1.00 35.49    -0.235 N 
ATOM      9  HH  ARG D 557     -27.391  -0.859 -17.169  1.00 35.49     0.174 HD
ATOM     10  HH  ARG D 557     -27.532  -2.336 -17.130  1.00 35.49     0.174 HD
ATOM     11  HH  ARG D 557     -30.773  -2.468 -17.316  1.00 35.49     0.174 HD
ATOM     12  HH  ARG D 557     -29.555  -3.315 -17.220  1.00 35.49     0.174 HD
ATOM     13  HE  ARG D 557     -30.671  -0.362 -17.458  1.00 35.49     0.178 HD
ENDBRANCH   4   5
ENDBRANCH   3   4
ENDBRANCH   2   3
ENDBRANCH   1   2
END_RES ARG D 557
BEGIN_RES GLU D 570
REMARK  3 active torsions:
REMARK  status: ('A' for Active; 'I' for Inactive)
REMARK    5  A    between atoms: CA   and  CB  
REMARK    6  A    between atoms: CB   and  CG  
REMARK    7  A    between atoms: CG   and  CD  
ROOT
ATOM     14  CA  GLU D 570     -18.033  -6.348 -13.375  1.00 32.92     0.160 C 
ENDROOT
BRANCH  14  15
ATOM     15  CB  GLU D 570     -19.500  -6.345 -13.794  1.00 32.92     0.043 C 
BRANCH  15  16
ATOM     16  CG  GLU D 570     -19.874  -5.520 -14.971  1.00 32.92     0.100 C 
BRANCH  16  17
ATOM     17  CD  GLU D 570     -20.387  -6.343 -16.130  1.00 32.92     0.185 C 
ATOM     18  OE1 GLU D 570     -20.646  -5.776 -17.208  1.00 32.92    -0.647 OA
ATOM     19  OE2 GLU D 570     -20.547  -7.567 -15.951  1.00 32.92    -0.647 OA
ENDBRANCH  16  17
ENDBRANCH  15  16
ENDBRANCH  14  15
END_RES GLU D 570
ENDMDL
MODEL 8
REMARK VINA RESULT:      -3.0      2.337      4.020
REMARK WARNING: 32 MAX_TORS EXCEEDED!!!
REMARK  125 active torsions:
REMARK  status: ('A' for Active; 'I' for Inactive)
REMARK    1  A    between atoms: C_2  and  C_3 
REMARK    2  A    between atoms: C_3  and  C_4 
REMARK    3  A    between atoms: C_4  and  C_5 
REMARK    4  A    between atoms: C_5  and  C_6 
REMARK    5  A    between atoms: C_6  and  C_7 
REMARK    6  A    between atoms: C_7  and  C_8 
REMARK    7  A    between atoms: C_7  and  O_138 
REMARK    8  A    between atoms: C_8  and  C_9 
REMARK    9  A    between atoms: C_9  and  C_10 
REMARK   10  A    between atoms: C_10  and  C_11 
REMARK   11  A    between atoms: C_11  and  C_12 
REMARK   12  A    between atoms: C_12  and  C_13 
REMARK   13  A    between atoms: C_13  and  C_14 
REMARK   14  A    between atoms: C_14  and  C_15 
REMARK   15  A    between atoms: C_15  and  C_16 
REMARK   16  A    between atoms: C_16  and  C_17 
REMARK   17  A    between atoms: C_17  and  C_18 
REMARK   18  A    between atoms: C_18  and  O_20 
REMARK   19  A    between atoms: O_20  and  C_21 
REMARK   20  A    between atoms: C_21  and  C_22 
REMARK   21  A    between atoms: C_22  and  C_23 
REMARK   22  A    between atoms: C_22  and  C_93 
REMARK   23  A    between atoms: C_22  and  C_116 
REMARK   24  A    between atoms: C_23  and  O_24 
REMARK   25  A    between atoms: O_24  and  C_25 
REMARK   26  A    between atoms: C_25  and  C_26 
REMARK   27  A    between atoms: C_26  and  C_27 
REMARK   28  A    between atoms: C_26  and  C_49 
REMARK   29  A    between atoms: C_26  and  C_71 
REMARK   30  A    between atoms: C_27  and  O_28 
REMARK   31  A    between atoms: O_28  and  C_29 
REMARK   32  A    between atoms: C_29  and  C_31 
REMARK   33  A    between atoms: C_31  and  C_32 
REMARK   34  A    between atoms: C_32  and  C_33 
REMARK   35  A    between atoms: C_33  and  C_34 
REMARK   36  A    between atoms: C_34  and  C_35 
REMARK   37  A    between atoms: C_35  and  C_36 
REMARK   38  A    between atoms: C_36  and  C_37 
REMARK   39  A    between atoms: C_37  and  C_38 
REMARK   40  A    between atoms: C_38  and  C_39 
REMARK   41  A    between atoms: C_39  and  C_40 
REMARK   42  A    between atoms: C_40  and  C_41 
REMARK   43  A    between atoms: C_41  and  C_42 
REMARK   44  A    between atoms: C_41  and  O_48 
REMARK   45  A    between atoms: C_42  and  C_43 
REMARK   46  A    between atoms: C_43  and  C_44 
REMARK   47  A    between atoms: C_44  and  C_45 
REMARK   48  A    between atoms: C_45  and  C_46 
REMARK   49  A    between atoms: C_49  and  O_50 
REMARK   50  A    between atoms: O_50  and  C_51 
REMARK   51  A    between atoms: C_51  and  C_53 
REMARK   52  A    between atoms: C_53  and  C_54 
REMARK   53  A    between atoms: C_54  and  C_55 
REMARK   54  A    between atoms: C_55  and  C_56 
REMARK   55  A    between atoms: C_56  and  C_57 
REMARK   56  A    between atoms: C_57  and  C_58 
REMARK   57  A    between atoms: C_58  and  C_59 
REMARK   58  A    between atoms: C_59  and  C_60 
REMARK   59  A    between atoms: C_60  and  C_61 
REMARK   60  A    between atoms: C_61  and  C_62 
REMARK   61  A    between atoms: C_62  and  C_63 
REMARK   62  A    between atoms: C_63  and  C_64 
REMARK   63  A    between atoms: C_63  and  O_70 
REMARK   64  A    between atoms: C_64  and  C_65 
REMARK   65  A    between atoms: C_65  and  C_66 
REMARK   66  A    between atoms: C_66  and  C_67 
REMARK   67  A    between atoms: C_67  and  C_68 
REMARK   68  A    between atoms: C_71  and  O_72 
REMARK   69  A    between atoms: O_72  and  C_73 
REMARK   70  A    between atoms: C_73  and  C_75 
REMARK   71  A    between atoms: C_75  and  C_76 
REMARK   72  A    between atoms: C_76  and  C_77 
REMARK   73  A    between atoms: C_77  and  C_78 
REMARK   74  A    between atoms: C_78  and  C_79 
REMARK   75  A    between atoms: C_79  and  C_80 
REMARK   76  A    between atoms: C_80  and  C_81 
REMARK   77  A    between atoms: C_81  and  C_82 
REMARK   78  A    between atoms: C_82  and  C_83 
REMARK   79  A    between atoms: C_83  and  C_84 
REMARK   80  A    between atoms: C_84  and  C_85 
REMARK   81  A    between atoms: C_85  and  C_86 
REMARK   82  A    between atoms: C_85  and  O_92 
REMARK   83  A    between atoms: C_86  and  C_87 
REMARK   84  A    between atoms: C_87  and  C_88 
REMARK   85  A    between atoms: C_88  and  C_89 
REMARK   86  A    between atoms: C_89  and  C_90 
REMARK   87  A    between atoms: C_93  and  O_94 
REMARK   88  A    between atoms: O_94  and  C_95 
REMARK   89  A    between atoms: C_95  and  O_96 
REMARK   90  A    between atoms: C_95  and  C_98 
REMARK   91  A    between atoms: C_98  and  C_99 
REMARK   92  A    between atoms: C_99  and  C_100 
REMARK   93  A    between atoms: C_100  and  C_101 
REMARK   94  A    between atoms: C_101  and  C_102 
REMARK   95  A    between atoms: C_102  and  C_103 
REMARK   96  A    between atoms: C_103  and  C_104 
REMARK   97  A    between atoms: C_104  and  C_105 
REMARK   98  A    between atoms: C_105  and  C_106 
REMARK   99  A    between atoms: C_106  and  C_107 
REMARK  100  A    between atoms: C_107  and  C_108 
REMARK  101  A    between atoms: C_108  and  C_109 
REMARK  102  A    between atoms: C_108  and  O_115 
REMARK  103  A    between atoms: C_109  and  C_110 
REMARK  104  A    between atoms: C_110  and  C_111 
REMARK  105  A    between atoms: C_111  and  C_112 
REMARK  106  A    between atoms: C_112  and  C_113 
REMARK  107  A    between atoms: C_116  and  O_117 
REMARK  108  A    between atoms: O_117  and  C_118 
REMARK  109  A    between atoms: C_118  and  C_120 
REMARK  110  A    between atoms: C_120  and  C_121 
REMARK  111  A    between atoms: C_121  and  C_122 
REMARK  112  A    between atoms: C_122  and  C_123 
REMARK  113  A    between atoms: C_123  and  C_124 
REMARK  114  A    between atoms: C_124  and  C_125 
REMARK  115  A    between atoms: C_125  and  C_126 
REMARK  116  A    between atoms: C_126  and  C_127 
REMARK  117  A    between atoms: C_127  and  C_128 
REMARK  118  A    between atoms: C_128  and  C_129 
REMARK  119  A    between atoms: C_129  and  C_130 
REMARK  120  A    between atoms: C_130  and  C_131 
REMARK  121  A    between atoms: C_130  and  O_137 
REMARK  122  A    between atoms: C_131  and  C_132 
REMARK  123  A    between atoms: C_132  and  C_133 
REMARK  124  A    between atoms: C_133  and  C_134 
REMARK  125  A    between atoms: C_134  and  C_135 
ROOT
HETATM    1  C   UNL     1     -23.638  -5.031 -10.888  1.00  0.00     0.183 C 
ENDROOT
BRANCH   1   2
HETATM    2  C   UNL     1     -23.225  -4.123 -12.236  1.00  0.00     0.047 C 
BRANCH   2   3
HETATM    3  C   UNL     1     -24.503  -3.235 -12.503  1.00  0.00     0.194 C 
BRANCH   3   4
HETATM    4  O   UNL     1     -24.587  -2.929 -13.954  1.00  0.00    -0.320 OA
BRANCH   4   5
HETATM    5  C   UNL     1     -25.764  -2.920 -14.655  1.00  0.00     0.258 C 
HETATM    6  O   UNL     1     -26.367  -1.904 -14.966  1.00  0.00    -0.265 OA
BRANCH   5   7
HETATM    7  C   UNL     1     -26.255  -4.343 -14.982  1.00  0.00     0.111 C 
BRANCH   7   8
HETATM    8  C   UNL     1     -27.734  -4.518 -15.426  1.00  0.00     0.010 C 
BRANCH   8   9
HETATM    9  C   UNL     1     -28.546  -5.632 -14.612  1.00  0.00     0.000 C 
BRANCH   9  10
HETATM   10  C   UNL     1     -30.013  -5.292 -14.058  1.00  0.00     0.000 C 
BRANCH  10  11
HETATM   11  C   UNL     1     -30.769  -5.322 -12.549  1.00  0.00     0.000 C 
BRANCH  11  12
HETATM   12  C   UNL     1     -32.056  -4.488 -12.073  1.00  0.00     0.000 C 
BRANCH  12  13
HETATM   13  C   UNL     1     -33.107  -5.376 -11.432  1.00  0.00     0.000 C 
BRANCH  13  14
HETATM   14  C   UNL     1     -33.968  -4.610 -10.420  1.00  0.00     0.000 C 
BRANCH  14  15
HETATM   15  C   UNL     1     -34.994  -3.729 -11.122  1.00  0.00     0.002 C 
BRANCH  15  16
HETATM   16  C   UNL     1     -34.675  -2.267 -10.847  1.00  0.00     0.032 C 
BRANCH  16  17
HETATM   17  C   UNL     1     -35.901  -1.427 -10.565  1.00  0.00     0.118 C 
BRANCH  17  18
HETATM   18  C   UNL     1     -36.126  -0.413 -11.683  1.00  0.00     0.032 C 
BRANCH  18  19
HETATM   19  C   UNL     1     -34.968  -0.407 -12.672  1.00  0.00     0.002 C 
BRANCH  19  20
HETATM   20  C   UNL     1     -34.890   0.902 -13.429  1.00  0.00     0.000 C 
BRANCH  20  21
HETATM   21  C   UNL     1     -34.827   0.602 -14.919  1.00  0.00    -0.000 C 
BRANCH  21  22
HETATM   22  C   UNL     1     -35.896  -0.409 -15.299  1.00  0.00    -0.005 C 
HETATM   23  C   UNL     1     -37.222   0.283 -15.533  1.00  0.00     0.005 C 
ENDBRANCH  21  22
ENDBRANCH  20  21
ENDBRANCH  19  20
ENDBRANCH  18  19
ENDBRANCH  17  18
BRANCH  17  24
HETATM   24  O   UNL     1     -35.708  -0.716  -9.342  1.00  0.00    -0.396 OA
HETATM   25  H   UNL     1     -35.211   0.094  -9.554  1.00  0.00     0.210 HD
ENDBRANCH  17  24
ENDBRANCH  16  17
ENDBRANCH  15  16
ENDBRANCH  14  15
ENDBRANCH  13  14
ENDBRANCH  12  13
ENDBRANCH  11  12
ENDBRANCH  10  11
ENDBRANCH   9  10
ENDBRANCH   8   9
ENDBRANCH   7   8
ENDBRANCH   5   7
ENDBRANCH   4   5
ENDBRANCH   3   4
ENDBRANCH   2   3
BRANCH   2  26
HETATM   26  C   UNL     1     -22.912  -4.666 -13.670  1.00  0.00     0.187 C 
BRANCH  26  27
HETATM   27  O   UNL     1     -23.758  -6.041 -14.242  1.00  0.00    -0.360 OA
BRANCH  27  28
HETATM   28  C   UNL     1     -24.338  -6.842 -15.294  1.00  0.00     0.256 C 
BRANCH  28  29
HETATM   29  O   UNL     1     -25.499  -7.376 -15.015  1.00  0.00    -0.371 OA
ATOM     30  HO  UNL     1     -25.804  -7.241 -14.125  1.00  0.00     0.212 HD
ENDBRANCH  28  29
BRANCH  28  31
HETATM   31  C   UNL     1     -23.716  -7.312 -16.686  1.00  0.00     0.060 C 
BRANCH  31  32
HETATM   32  C   UNL     1     -24.169  -7.008 -18.147  1.00  0.00     0.005 C 
BRANCH  32  33
HETATM   33  C   UNL     1     -22.995  -7.227 -19.163  1.00  0.00     0.000 C 
BRANCH  33  34
HETATM   34  C   UNL     1     -23.510  -7.899 -20.417  1.00  0.00     0.000 C 
BRANCH  34  35
HETATM   35  C   UNL     1     -24.682  -7.175 -21.057  1.00  0.00     0.000 C 
BRANCH  35  36
HETATM   36  C   UNL     1     -25.726  -8.243 -21.324  1.00  0.00     0.000 C 
BRANCH  36  37
HETATM   37  C   UNL     1     -27.057  -7.878 -20.726  1.00  0.00     0.000 C 
BRANCH  37  38
HETATM   38  C   UNL     1     -26.973  -6.460 -20.187  1.00  0.00     0.000 C 
BRANCH  38  39
HETATM   39  C   UNL     1     -27.641  -6.434 -18.835  1.00  0.00     0.002 C 
BRANCH  39  40
HETATM   40  C   UNL     1     -29.152  -6.350 -18.955  1.00  0.00     0.032 C 
BRANCH  40  41
HETATM   41  C   UNL     1     -29.834  -7.490 -18.202  1.00  0.00     0.118 C 
BRANCH  41  42
HETATM   42  C   UNL     1     -31.170  -7.059 -17.597  1.00  0.00     0.032 C 
BRANCH  42  43
HETATM   43  C   UNL     1     -31.073  -5.722 -16.870  1.00  0.00     0.002 C 
BRANCH  43  44
HETATM   44  C   UNL     1     -32.224  -4.783 -17.226  1.00  0.00     0.000 C 
BRANCH  44  45
HETATM   45  C   UNL     1     -33.482  -5.053 -16.399  1.00  0.00    -0.000 C 
BRANCH  45  46
HETATM   46  C   UNL     1     -34.170  -3.754 -16.003  1.00  0.00    -0.005 C 
HETATM   47  C   UNL     1     -34.343  -3.682 -14.496  1.00  0.00     0.005 C 
ENDBRANCH  45  46
ENDBRANCH  44  45
ENDBRANCH  43  44
ENDBRANCH  42  43
ENDBRANCH  41  42
BRANCH  41  48
HETATM   48  O   UNL     1     -30.053  -8.559 -19.122  1.00  0.00    -0.396 OA
HETATM   49  H   UNL     1     -30.198  -8.160 -19.998  1.00  0.00     0.210 HD
ENDBRANCH  41  48
ENDBRANCH  40  41
ENDBRANCH  39  40
ENDBRANCH  38  39
ENDBRANCH  37  38
ENDBRANCH  36  37
ENDBRANCH  35  36
ENDBRANCH  34  35
ENDBRANCH  33  34
ENDBRANCH  32  33
ENDBRANCH  31  32
ENDBRANCH  28  31
ENDBRANCH  27  28
ENDBRANCH  26  27
ENDBRANCH   2  26
BRANCH   2  50
HETATM   50  C   UNL     1     -21.880  -3.446 -11.996  1.00  0.00     0.194 C 
BRANCH  50  51
HETATM   51  O   UNL     1     -21.989  -2.067 -11.763  1.00  0.00    -0.320 OA
BRANCH  51  52
HETATM   52  C   UNL     1     -20.811  -1.506 -11.387  1.00  0.00     0.258 C 
HETATM   53  O   UNL     1     -19.803  -2.078 -10.987  1.00  0.00    -0.265 OA
BRANCH  52  54
HETATM   54  C   UNL     1     -20.921  -0.043 -11.618  1.00  0.00     0.111 C 
BRANCH  54  55
HETATM   55  C   UNL     1     -19.654   0.641 -11.143  1.00  0.00     0.010 C 
BRANCH  55  56
HETATM   56  C   UNL     1     -19.838   2.134 -11.325  1.00  0.00     0.000 C 
BRANCH  56  57
HETATM   57  C   UNL     1     -21.233   2.560 -10.925  1.00  0.00     0.000 C 
BRANCH  57  58
HETATM   58  C   UNL     1     -21.166   3.908 -10.230  1.00  0.00     0.000 C 
BRANCH  58  59
HETATM   59  C   UNL     1     -21.919   3.842  -8.914  1.00  0.00     0.000 C 
BRANCH  59  60
HETATM   60  C   UNL     1     -23.365   4.247  -9.123  1.00  0.00     0.000 C 
BRANCH  60  61
HETATM   61  C   UNL     1     -24.033   4.549  -7.789  1.00  0.00     0.000 C 
BRANCH  61  62
HETATM   62  C   UNL     1     -25.379   5.204  -8.050  1.00  0.00     0.002 C 
BRANCH  62  63
HETATM   63  C   UNL     1     -25.488   6.577  -7.404  1.00  0.00     0.032 C 
BRANCH  63  64
HETATM   64  C   UNL     1     -26.036   6.498  -5.975  1.00  0.00     0.118 C 
BRANCH  64  65
HETATM   65  C   UNL     1     -24.955   6.718  -4.908  1.00  0.00     0.032 C 
BRANCH  65  66
HETATM   66  C   UNL     1     -25.113   5.768  -3.719  1.00  0.00     0.002 C 
BRANCH  66  67
HETATM   67  C   UNL     1     -24.902   6.451  -2.366  1.00  0.00     0.000 C 
BRANCH  67  68
HETATM   68  C   UNL     1     -23.436   6.778  -2.082  1.00  0.00    -0.000 C 
BRANCH  68  69
HETATM   69  C   UNL     1     -23.291   7.729  -0.897  1.00  0.00    -0.005 C 
HETATM   70  C   UNL     1     -24.642   7.997  -0.253  1.00  0.00     0.005 C 
ENDBRANCH  68  69
ENDBRANCH  67  68
ENDBRANCH  66  67
ENDBRANCH  65  66
ENDBRANCH  64  65
BRANCH  64  71
HETATM   71  O   UNL     1     -27.049   7.495  -5.834  1.00  0.00    -0.396 OA
HETATM   72  H   UNL     1     -27.703   7.160  -5.196  1.00  0.00     0.210 HD
ENDBRANCH  64  71
ENDBRANCH  63  64
ENDBRANCH  62  63
ENDBRANCH  61  62
ENDBRANCH  60  61
ENDBRANCH  59  60
ENDBRANCH  58  59
ENDBRANCH  57  58
ENDBRANCH  56  57
ENDBRANCH  55  56
ENDBRANCH  54  55
ENDBRANCH  52  54
ENDBRANCH  51  52
ENDBRANCH  50  51
ENDBRANCH   2  50
ENDBRANCH   1   2
BRANCH   1  73
HETATM   73  O   UNL     1     -23.203  -4.578  -9.558  1.00  0.00    -0.389 OA
BRANCH  73  74
HETATM   74  C   UNL     1     -21.802  -4.781  -9.154  1.00  0.00     0.183 C 
BRANCH  74  75
HETATM   75  C   UNL     1     -21.597  -5.118  -7.564  1.00  0.00     0.047 C 
BRANCH  75  76
HETATM   76  C   UNL     1     -20.808  -6.381  -7.270  1.00  0.00     0.194 C 
BRANCH  76  77
HETATM   77  O   UNL     1     -21.564  -7.484  -6.755  1.00  0.00    -0.320 OA
BRANCH  77  78
HETATM   78  C   UNL     1     -20.953  -8.109  -5.724  1.00  0.00     0.258 C 
HETATM   79  O   UNL     1     -20.098  -7.527  -5.041  1.00  0.00    -0.265 OA
BRANCH  78  80
HETATM   80  C   UNL     1     -21.315  -9.589  -5.672  1.00  0.00     0.111 C 
BRANCH  80  81
HETATM   81  C   UNL     1     -21.038 -10.480  -4.400  1.00  0.00     0.010 C 
BRANCH  81  82
HETATM   82  C   UNL     1     -19.961 -10.593  -3.105  1.00  0.00     0.000 C 
BRANCH  82  83
HETATM   83  C   UNL     1     -18.306 -10.120  -2.620  1.00  0.00     0.000 C 
BRANCH  83  84
HETATM   84  C   UNL     1     -16.989 -10.881  -1.862  1.00  0.00     0.000 C 
BRANCH  84  85
HETATM   85  C   UNL     1     -15.613 -10.865  -2.516  1.00  0.00     0.000 C 
BRANCH  85  86
HETATM   86  C   UNL     1     -15.212 -12.270  -2.685  1.00  0.00     0.000 C 
BRANCH  86  87
HETATM   87  C   UNL     1     -14.350 -12.341  -3.882  1.00  0.00     0.000 C 
BRANCH  87  88
HETATM   88  C   UNL     1     -14.706 -13.653  -4.476  1.00  0.00     0.002 C 
BRANCH  88  89
HETATM   89  C   UNL     1     -13.419 -14.342  -4.616  1.00  0.00     0.032 C 
BRANCH  89  90
HETATM   90  C   UNL     1     -13.144 -15.299  -3.434  1.00  0.00     0.118 C 
BRANCH  90  91
HETATM   91  C   UNL     1     -12.276 -14.672  -1.954  1.00  0.00     0.032 C 
BRANCH  91  92
HETATM   92  C   UNL     1     -12.590 -14.612  -0.233  1.00  0.00     0.002 C 
BRANCH  92  93
HETATM   93  C   UNL     1     -13.966 -14.948   0.340  1.00  0.00     0.000 C 
BRANCH  93  94
HETATM   94  C   UNL     1     -14.275 -13.880   1.311  1.00  0.00    -0.000 C 
BRANCH  94  95
HETATM   95  C   UNL     1     -15.742 -13.657   1.322  1.00  0.00    -0.005 C 
HETATM   96  C   UNL     1     -15.874 -12.179   1.193  1.00  0.00     0.005 C 
ENDBRANCH  94  95
ENDBRANCH  93  94
ENDBRANCH  92  93
ENDBRANCH  91  92
ENDBRANCH  90  91
BRANCH  90  97
HETATM   97  O   UNL     1     -14.490 -15.877  -3.508  1.00  0.00    -0.396 OA
HETATM   98  H   UNL     1     -14.865 -16.182  -2.674  1.00  0.00     0.210 HD
ENDBRANCH  90  97
ENDBRANCH  89  90
ENDBRANCH  88  89
ENDBRANCH  87  88
ENDBRANCH  86  87
ENDBRANCH  85  86
ENDBRANCH  84  85
ENDBRANCH  83  84
ENDBRANCH  82  83
ENDBRANCH  81  82
ENDBRANCH  80  81
ENDBRANCH  78  80
ENDBRANCH  77  78
ENDBRANCH  76  77
ENDBRANCH  75  76
BRANCH  75  99
HETATM   99  C   UNL     1     -20.776  -4.044  -6.806  1.00  0.00     0.194 C 
BRANCH  99 100
HETATM  100  O   UNL     1     -19.493  -4.545  -6.381  1.00  0.00    -0.320 OA
BRANCH 100 101
HETATM  101  C   UNL     1     -18.495  -4.500  -7.293  1.00  0.00     0.258 C 
HETATM  102  O   UNL     1     -18.458  -3.744  -8.254  1.00  0.00    -0.265 OA
BRANCH 101 103
HETATM  103  C   UNL     1     -17.444  -5.524  -6.962  1.00  0.00     0.111 C 
BRANCH 103 104
HETATM  104  C   UNL     1     -17.970  -6.947  -7.103  1.00  0.00     0.010 C 
BRANCH 104 105
HETATM  105  C   UNL     1     -17.046  -8.019  -6.512  1.00  0.00     0.000 C 
BRANCH 105 106
HETATM  106  C   UNL     1     -17.695  -9.397  -6.385  1.00  0.00     0.000 C 
BRANCH 106 107
HETATM  107  C   UNL     1     -16.682 -10.451  -5.966  1.00  0.00     0.000 C 
BRANCH 107 108
HETATM  108  C   UNL     1     -17.060 -11.812  -6.524  1.00  0.00     0.000 C 
BRANCH 108 109
HETATM  109  C   UNL     1     -18.532 -11.811  -6.888  1.00  0.00     0.000 C 
BRANCH 109 110
HETATM  110  C   UNL     1     -18.730 -12.268  -8.325  1.00  0.00     0.000 C 
BRANCH 110 111
HETATM  111  C   UNL     1     -19.383 -13.639  -8.312  1.00  0.00     0.002 C 
BRANCH 111 112
HETATM  112  C   UNL     1     -18.562 -14.668  -9.071  1.00  0.00     0.032 C 
BRANCH 112 113
HETATM  113  C   UNL     1     -18.229 -15.886  -8.205  1.00  0.00     0.118 C 
BRANCH 113 114
HETATM  114  C   UNL     1     -17.609 -15.504  -6.857  1.00  0.00     0.032 C 
BRANCH 114 115
HETATM  115  C   UNL     1     -18.433 -16.010  -5.671  1.00  0.00     0.002 C 
BRANCH 115 116
HETATM  116  C   UNL     1     -17.900 -15.526  -4.319  1.00  0.00     0.000 C 
BRANCH 116 117
HETATM  117  C   UNL     1     -18.353 -14.109  -3.964  1.00  0.00    -0.000 C 
BRANCH 117 118
HETATM  118  C   UNL     1     -18.609 -13.962  -2.468  1.00  0.00    -0.005 C 
HETATM  119  C   UNL     1     -17.661 -14.839  -1.666  1.00  0.00     0.005 C 
ENDBRANCH 117 118
ENDBRANCH 116 117
ENDBRANCH 115 116
ENDBRANCH 114 115
ENDBRANCH 113 114
BRANCH 113 120
HETATM  120  O   UNL     1     -19.439 -16.608  -7.985  1.00  0.00    -0.396 OA
HETATM  121  H   UNL     1     -20.066 -16.359  -8.687  1.00  0.00     0.210 HD
ENDBRANCH 113 120
ENDBRANCH 112 113
ENDBRANCH 111 112
ENDBRANCH 110 111
ENDBRANCH 109 110
ENDBRANCH 108 109
ENDBRANCH 107 108
ENDBRANCH 106 107
ENDBRANCH 105 106
ENDBRANCH 104 105
ENDBRANCH 103 104
ENDBRANCH 101 103
ENDBRANCH 100 101
ENDBRANCH  99 100
ENDBRANCH  75  99
BRANCH  75 122
HETATM  122  C   UNL     1     -22.993  -5.377  -6.940  1.00  0.00     0.194 C 
BRANCH 122 123
HETATM  123  O   UNL     1     -22.869  -5.335  -5.549  1.00  0.00    -0.320 OA
BRANCH 123 124
HETATM  124  C   UNL     1     -23.865  -5.985  -4.916  1.00  0.00     0.258 C 
HETATM  125  O   UNL     1     -25.074  -5.969  -5.140  1.00  0.00    -0.265 OA
BRANCH 124 126
HETATM  126  C   UNL     1     -23.176  -6.999  -4.026  1.00  0.00     0.111 C 
BRANCH 126 127
HETATM  127  C   UNL     1     -22.348  -6.158  -3.096  1.00  0.00     0.010 C 
BRANCH 127 128
HETATM  128  C   UNL     1     -21.753  -7.081  -2.090  1.00  0.00     0.000 C 
BRANCH 128 129
HETATM  129  C   UNL     1     -22.325  -6.674  -0.767  1.00  0.00     0.000 C 
BRANCH 129 130
HETATM  130  C   UNL     1     -22.715  -7.913  -0.018  1.00  0.00     0.000 C 
BRANCH 130 131
HETATM  131  C   UNL     1     -21.474  -8.746   0.180  1.00  0.00     0.000 C 
BRANCH 131 132
HETATM  132  C   UNL     1     -21.853 -10.199   0.067  1.00  0.00     0.000 C 
BRANCH 132 133
HETATM  133  C   UNL     1     -23.069 -10.345  -0.827  1.00  0.00     0.000 C 
BRANCH 133 134
HETATM  134  C   UNL     1     -23.919 -11.472  -0.278  1.00  0.00     0.002 C 
BRANCH 134 135
HETATM  135  C   UNL     1     -23.099 -12.452   0.541  1.00  0.00     0.032 C 
BRANCH 135 136
HETATM  136  C   UNL     1     -22.822 -13.742  -0.233  1.00  0.00     0.118 C 
BRANCH 136 137
HETATM  137  C   UNL     1     -23.399 -13.716  -1.653  1.00  0.00     0.032 C 
BRANCH 137 138
HETATM  138  C   UNL     1     -22.320 -13.515  -2.718  1.00  0.00     0.002 C 
BRANCH 138 139
HETATM  139  C   UNL     1     -22.390 -14.548  -3.846  1.00  0.00     0.000 C 
BRANCH 139 140
HETATM  140  C   UNL     1     -21.756 -14.060  -5.151  1.00  0.00    -0.000 C 
BRANCH 140 141
HETATM  141  C   UNL     1     -22.166 -14.933  -6.333  1.00  0.00    -0.005 C 
HETATM  142  C   UNL     1     -23.675 -15.113  -6.374  1.00  0.00     0.005 C 
ENDBRANCH 140 141
ENDBRANCH 139 140
ENDBRANCH 138 139
ENDBRANCH 137 138
ENDBRANCH 136 137
BRANCH 136 143
HETATM  143  O   UNL     1     -21.408 -13.921  -0.295  1.00  0.00    -0.396 OA
HETATM  144  H   UNL     1     -21.179 -14.159  -1.211  1.00  0.00     0.210 HD
ENDBRANCH 136 143
ENDBRANCH 135 136
ENDBRANCH 134 135
ENDBRANCH 133 134
ENDBRANCH 132 133
ENDBRANCH 131 132
ENDBRANCH 130 131
ENDBRANCH 129 130
ENDBRANCH 128 129
ENDBRANCH 127 128
ENDBRANCH 126 127
ENDBRANCH 124 126
ENDBRANCH 123 124
ENDBRANCH 122 123
ENDBRANCH  75 122
ENDBRANCH  74  75
ENDBRANCH  73  74
ENDBRANCH   1  73
TORSDOF 125
BEGIN_RES ARG D 557
REMARK  4 active torsions:
REMARK  status: ('A' for Active; 'I' for Inactive)
REMARK    1  A    between atoms: CA   and  CB  
REMARK    2  A    between atoms: CB   and  CG  
REMARK    3  A    between atoms: CG   and  CD  
REMARK    4  A    between atoms: CD   and  NE  
REMARK       I    between atoms: NE   and  CZ  
REMARK       I    between atoms: CZ   and  NH1 
REMARK       I    between atoms: CZ   and  NH2 
ROOT
ATOM      1  CA  ARG D 557     -26.217   2.705 -17.014  1.00 35.49     0.159 C 
ENDROOT
BRANCH   1   2
ATOM      2  CB  ARG D 557     -26.789   1.319 -17.183  1.00 35.49     0.034 C 
BRANCH   2   3
ATOM      3  CG  ARG D 557     -28.242   1.222 -17.367  1.00 35.49     0.027 C 
BRANCH   3   4
ATOM      4  CD  ARG D 557     -28.850   0.172 -16.518  1.00 35.49     0.116 C 
BRANCH   4   5
ATOM      5  NE  ARG D 557     -28.418  -1.148 -16.895  1.00 35.49    -0.212 N 
ATOM      6  CZ  ARG D 557     -29.197  -2.122 -17.310  1.00 35.49     0.666 C 
ATOM      7  NH1 ARG D 557     -30.506  -1.988 -17.413  1.00 35.49    -0.235 N 
ATOM      8  NH2 ARG D 557     -28.630  -3.249 -17.631  1.00 35.49    -0.235 N 
ATOM      9  HH  ARG D 557     -30.900  -1.254 -17.210  1.00 35.49     0.174 HD
ATOM     10  HH  ARG D 557     -30.963  -2.657 -17.692  1.00 35.49     0.174 HD
ATOM     11  HH  ARG D 557     -27.782  -3.304 -17.561  1.00 35.49     0.174 HD
ATOM     12  HH  ARG D 557     -29.099  -3.899 -17.906  1.00 35.49     0.174 HD
ATOM     13  HE  ARG D 557     -27.597  -1.345 -16.790  1.00 35.49     0.178 HD
ENDBRANCH   4   5
ENDBRANCH   3   4
ENDBRANCH   2   3
ENDBRANCH   1   2
END_RES ARG D 557
BEGIN_RES GLU D 570
REMARK  3 active torsions:
REMARK  status: ('A' for Active; 'I' for Inactive)
REMARK    5  A    between atoms: CA   and  CB  
REMARK    6  A    between atoms: CB   and  CG  
REMARK    7  A    between atoms: CG   and  CD  
ROOT
ATOM     14  CA  GLU D 570     -18.033  -6.348 -13.375  1.00 32.92     0.160 C 
ENDROOT
BRANCH  14  15
ATOM     15  CB  GLU D 570     -19.500  -6.345 -13.794  1.00 32.92     0.043 C 
BRANCH  15  16
ATOM     16  CG  GLU D 570     -19.878  -5.501 -14.957  1.00 32.92     0.100 C 
BRANCH  16  17
ATOM     17  CD  GLU D 570     -20.361  -6.308 -16.139  1.00 32.92     0.185 C 
ATOM     18  OE1 GLU D 570     -20.540  -5.735 -17.231  1.00 32.92    -0.647 OA
ATOM     19  OE2 GLU D 570     -20.579  -7.523 -15.967  1.00 32.92    -0.647 OA
ENDBRANCH  16  17
ENDBRANCH  15  16
ENDBRANCH  14  15
END_RES GLU D 570
ENDMDL
MODEL 9
REMARK VINA RESULT:      -2.9      1.490      2.386
REMARK WARNING: 32 MAX_TORS EXCEEDED!!!
REMARK  125 active torsions:
REMARK  status: ('A' for Active; 'I' for Inactive)
REMARK    1  A    between atoms: C_2  and  C_3 
REMARK    2  A    between atoms: C_3  and  C_4 
REMARK    3  A    between atoms: C_4  and  C_5 
REMARK    4  A    between atoms: C_5  and  C_6 
REMARK    5  A    between atoms: C_6  and  C_7 
REMARK    6  A    between atoms: C_7  and  C_8 
REMARK    7  A    between atoms: C_7  and  O_138 
REMARK    8  A    between atoms: C_8  and  C_9 
REMARK    9  A    between atoms: C_9  and  C_10 
REMARK   10  A    between atoms: C_10  and  C_11 
REMARK   11  A    between atoms: C_11  and  C_12 
REMARK   12  A    between atoms: C_12  and  C_13 
REMARK   13  A    between atoms: C_13  and  C_14 
REMARK   14  A    between atoms: C_14  and  C_15 
REMARK   15  A    between atoms: C_15  and  C_16 
REMARK   16  A    between atoms: C_16  and  C_17 
REMARK   17  A    between atoms: C_17  and  C_18 
REMARK   18  A    between atoms: C_18  and  O_20 
REMARK   19  A    between atoms: O_20  and  C_21 
REMARK   20  A    between atoms: C_21  and  C_22 
REMARK   21  A    between atoms: C_22  and  C_23 
REMARK   22  A    between atoms: C_22  and  C_93 
REMARK   23  A    between atoms: C_22  and  C_116 
REMARK   24  A    between atoms: C_23  and  O_24 
REMARK   25  A    between atoms: O_24  and  C_25 
REMARK   26  A    between atoms: C_25  and  C_26 
REMARK   27  A    between atoms: C_26  and  C_27 
REMARK   28  A    between atoms: C_26  and  C_49 
REMARK   29  A    between atoms: C_26  and  C_71 
REMARK   30  A    between atoms: C_27  and  O_28 
REMARK   31  A    between atoms: O_28  and  C_29 
REMARK   32  A    between atoms: C_29  and  C_31 
REMARK   33  A    between atoms: C_31  and  C_32 
REMARK   34  A    between atoms: C_32  and  C_33 
REMARK   35  A    between atoms: C_33  and  C_34 
REMARK   36  A    between atoms: C_34  and  C_35 
REMARK   37  A    between atoms: C_35  and  C_36 
REMARK   38  A    between atoms: C_36  and  C_37 
REMARK   39  A    between atoms: C_37  and  C_38 
REMARK   40  A    between atoms: C_38  and  C_39 
REMARK   41  A    between atoms: C_39  and  C_40 
REMARK   42  A    between atoms: C_40  and  C_41 
REMARK   43  A    between atoms: C_41  and  C_42 
REMARK   44  A    between atoms: C_41  and  O_48 
REMARK   45  A    between atoms: C_42  and  C_43 
REMARK   46  A    between atoms: C_43  and  C_44 
REMARK   47  A    between atoms: C_44  and  C_45 
REMARK   48  A    between atoms: C_45  and  C_46 
REMARK   49  A    between atoms: C_49  and  O_50 
REMARK   50  A    between atoms: O_50  and  C_51 
REMARK   51  A    between atoms: C_51  and  C_53 
REMARK   52  A    between atoms: C_53  and  C_54 
REMARK   53  A    between atoms: C_54  and  C_55 
REMARK   54  A    between atoms: C_55  and  C_56 
REMARK   55  A    between atoms: C_56  and  C_57 
REMARK   56  A    between atoms: C_57  and  C_58 
REMARK   57  A    between atoms: C_58  and  C_59 
REMARK   58  A    between atoms: C_59  and  C_60 
REMARK   59  A    between atoms: C_60  and  C_61 
REMARK   60  A    between atoms: C_61  and  C_62 
REMARK   61  A    between atoms: C_62  and  C_63 
REMARK   62  A    between atoms: C_63  and  C_64 
REMARK   63  A    between atoms: C_63  and  O_70 
REMARK   64  A    between atoms: C_64  and  C_65 
REMARK   65  A    between atoms: C_65  and  C_66 
REMARK   66  A    between atoms: C_66  and  C_67 
REMARK   67  A    between atoms: C_67  and  C_68 
REMARK   68  A    between atoms: C_71  and  O_72 
REMARK   69  A    between atoms: O_72  and  C_73 
REMARK   70  A    between atoms: C_73  and  C_75 
REMARK   71  A    between atoms: C_75  and  C_76 
REMARK   72  A    between atoms: C_76  and  C_77 
REMARK   73  A    between atoms: C_77  and  C_78 
REMARK   74  A    between atoms: C_78  and  C_79 
REMARK   75  A    between atoms: C_79  and  C_80 
REMARK   76  A    between atoms: C_80  and  C_81 
REMARK   77  A    between atoms: C_81  and  C_82 
REMARK   78  A    between atoms: C_82  and  C_83 
REMARK   79  A    between atoms: C_83  and  C_84 
REMARK   80  A    between atoms: C_84  and  C_85 
REMARK   81  A    between atoms: C_85  and  C_86 
REMARK   82  A    between atoms: C_85  and  O_92 
REMARK   83  A    between atoms: C_86  and  C_87 
REMARK   84  A    between atoms: C_87  and  C_88 
REMARK   85  A    between atoms: C_88  and  C_89 
REMARK   86  A    between atoms: C_89  and  C_90 
REMARK   87  A    between atoms: C_93  and  O_94 
REMARK   88  A    between atoms: O_94  and  C_95 
REMARK   89  A    between atoms: C_95  and  O_96 
REMARK   90  A    between atoms: C_95  and  C_98 
REMARK   91  A    between atoms: C_98  and  C_99 
REMARK   92  A    between atoms: C_99  and  C_100 
REMARK   93  A    between atoms: C_100  and  C_101 
REMARK   94  A    between atoms: C_101  and  C_102 
REMARK   95  A    between atoms: C_102  and  C_103 
REMARK   96  A    between atoms: C_103  and  C_104 
REMARK   97  A    between atoms: C_104  and  C_105 
REMARK   98  A    between atoms: C_105  and  C_106 
REMARK   99  A    between atoms: C_106  and  C_107 
REMARK  100  A    between atoms: C_107  and  C_108 
REMARK  101  A    between atoms: C_108  and  C_109 
REMARK  102  A    between atoms: C_108  and  O_115 
REMARK  103  A    between atoms: C_109  and  C_110 
REMARK  104  A    between atoms: C_110  and  C_111 
REMARK  105  A    between atoms: C_111  and  C_112 
REMARK  106  A    between atoms: C_112  and  C_113 
REMARK  107  A    between atoms: C_116  and  O_117 
REMARK  108  A    between atoms: O_117  and  C_118 
REMARK  109  A    between atoms: C_118  and  C_120 
REMARK  110  A    between atoms: C_120  and  C_121 
REMARK  111  A    between atoms: C_121  and  C_122 
REMARK  112  A    between atoms: C_122  and  C_123 
REMARK  113  A    between atoms: C_123  and  C_124 
REMARK  114  A    between atoms: C_124  and  C_125 
REMARK  115  A    between atoms: C_125  and  C_126 
REMARK  116  A    between atoms: C_126  and  C_127 
REMARK  117  A    between atoms: C_127  and  C_128 
REMARK  118  A    between atoms: C_128  and  C_129 
REMARK  119  A    between atoms: C_129  and  C_130 
REMARK  120  A    between atoms: C_130  and  C_131 
REMARK  121  A    between atoms: C_130  and  O_137 
REMARK  122  A    between atoms: C_131  and  C_132 
REMARK  123  A    between atoms: C_132  and  C_133 
REMARK  124  A    between atoms: C_133  and  C_134 
REMARK  125  A    between atoms: C_134  and  C_135 
ROOT
HETATM    1  C   UNL     1     -23.516  -5.132 -10.767  1.00  0.00     0.183 C 
ENDROOT
BRANCH   1   2
HETATM    2  C   UNL     1     -23.068  -4.354 -12.184  1.00  0.00     0.047 C 
BRANCH   2   3
HETATM    3  C   UNL     1     -24.337  -3.497 -12.566  1.00  0.00     0.194 C 
BRANCH   3   4
HETATM    4  O   UNL     1     -24.542  -3.559 -14.035  1.00  0.00    -0.320 OA
BRANCH   4   5
HETATM    5  C   UNL     1     -25.732  -3.262 -14.645  1.00  0.00     0.258 C 
HETATM    6  O   UNL     1     -26.286  -2.176 -14.568  1.00  0.00    -0.265 OA
BRANCH   5   7
HETATM    7  C   UNL     1     -26.306  -4.467 -15.413  1.00  0.00     0.111 C 
BRANCH   7   8
HETATM    8  C   UNL     1     -27.852  -4.589 -15.525  1.00  0.00     0.010 C 
BRANCH   8   9
HETATM    9  C   UNL     1     -28.494  -5.758 -14.641  1.00  0.00     0.000 C 
BRANCH   9  10
HETATM   10  C   UNL     1     -30.002  -5.611 -14.113  1.00  0.00     0.000 C 
BRANCH  10  11
HETATM   11  C   UNL     1     -30.734  -5.312 -12.622  1.00  0.00     0.000 C 
BRANCH  11  12
HETATM   12  C   UNL     1     -32.039  -4.424 -12.323  1.00  0.00     0.000 C 
BRANCH  12  13
HETATM   13  C   UNL     1     -33.048  -5.165 -11.465  1.00  0.00     0.000 C 
BRANCH  13  14
HETATM   14  C   UNL     1     -33.914  -4.205 -10.638  1.00  0.00     0.000 C 
BRANCH  14  15
HETATM   15  C   UNL     1     -34.050  -2.853 -11.325  1.00  0.00     0.002 C 
BRANCH  15  16
HETATM   16  C   UNL     1     -34.759  -1.882 -10.392  1.00  0.00     0.032 C 
BRANCH  16  17
HETATM   17  C   UNL     1     -35.910  -1.151 -11.045  1.00  0.00     0.118 C 
BRANCH  17  18
HETATM   18  C   UNL     1     -35.759  -1.158 -12.564  1.00  0.00     0.032 C 
BRANCH  18  19
HETATM   19  C   UNL     1     -35.399   0.223 -13.095  1.00  0.00     0.002 C 
BRANCH  19  20
HETATM   20  C   UNL     1     -35.926   0.434 -14.499  1.00  0.00     0.000 C 
BRANCH  20  21
HETATM   21  C   UNL     1     -35.422  -0.695 -15.385  1.00  0.00    -0.000 C 
BRANCH  21  22
HETATM   22  C   UNL     1     -36.349  -0.884 -16.574  1.00  0.00    -0.005 C 
HETATM   23  C   UNL     1     -37.779  -0.574 -16.187  1.00  0.00     0.005 C 
ENDBRANCH  21  22
ENDBRANCH  20  21
ENDBRANCH  19  20
ENDBRANCH  18  19
ENDBRANCH  17  18
BRANCH  17  24
HETATM   24  O   UNL     1     -35.916   0.205 -10.599  1.00  0.00    -0.396 OA
HETATM   25  H   UNL     1     -35.941   0.189  -9.626  1.00  0.00     0.210 HD
ENDBRANCH  17  24
ENDBRANCH  16  17
ENDBRANCH  15  16
ENDBRANCH  14  15
ENDBRANCH  13  14
ENDBRANCH  12  13
ENDBRANCH  11  12
ENDBRANCH  10  11
ENDBRANCH   9  10
ENDBRANCH   8   9
ENDBRANCH   7   8
ENDBRANCH   5   7
ENDBRANCH   4   5
ENDBRANCH   3   4
ENDBRANCH   2   3
BRANCH   2  26
HETATM   26  C   UNL     1     -22.718  -5.029 -13.552  1.00  0.00     0.187 C 
BRANCH  26  27
HETATM   27  O   UNL     1     -23.768  -6.229 -14.179  1.00  0.00    -0.360 OA
BRANCH  27  28
HETATM   28  C   UNL     1     -24.406  -6.929 -15.268  1.00  0.00     0.256 C 
BRANCH  28  29
HETATM   29  O   UNL     1     -25.587  -7.423 -14.999  1.00  0.00    -0.371 OA
ATOM     30  HO  UNL     1     -25.975  -7.126 -14.184  1.00  0.00     0.212 HD
ENDBRANCH  28  29
BRANCH  28  31
HETATM   31  C   UNL     1     -23.835  -7.336 -16.701  1.00  0.00     0.060 C 
BRANCH  31  32
HETATM   32  C   UNL     1     -24.087  -6.703 -18.103  1.00  0.00     0.005 C 
BRANCH  32  33
HETATM   33  C   UNL     1     -23.754  -7.718 -19.253  1.00  0.00     0.000 C 
BRANCH  33  34
HETATM   34  C   UNL     1     -24.747  -7.569 -20.383  1.00  0.00     0.000 C 
BRANCH  34  35
HETATM   35  C   UNL     1     -25.336  -6.173 -20.495  1.00  0.00     0.000 C 
BRANCH  35  36
HETATM   36  C   UNL     1     -26.834  -6.370 -20.624  1.00  0.00     0.000 C 
BRANCH  36  37
HETATM   37  C   UNL     1     -27.518  -6.315 -19.285  1.00  0.00     0.000 C 
BRANCH  37  38
HETATM   38  C   UNL     1     -28.540  -7.437 -19.217  1.00  0.00     0.000 C 
BRANCH  38  39
HETATM   39  C   UNL     1     -29.409  -7.205 -18.006  1.00  0.00     0.002 C 
BRANCH  39  40
HETATM   40  C   UNL     1     -30.876  -7.450 -18.310  1.00  0.00     0.032 C 
BRANCH  40  41
HETATM   41  C   UNL     1     -31.773  -6.884 -17.211  1.00  0.00     0.118 C 
BRANCH  41  42
HETATM   42  C   UNL     1     -31.253  -5.548 -16.679  1.00  0.00     0.032 C 
BRANCH  42  43
HETATM   43  C   UNL     1     -32.180  -4.387 -17.023  1.00  0.00     0.002 C 
BRANCH  43  44
HETATM   44  C   UNL     1     -31.431  -3.212 -17.647  1.00  0.00     0.000 C 
BRANCH  44  45
HETATM   45  C   UNL     1     -30.047  -3.604 -18.165  1.00  0.00    -0.000 C 
BRANCH  45  46
HETATM   46  C   UNL     1     -28.945  -2.958 -17.336  1.00  0.00    -0.005 C 
HETATM   47  C   UNL     1     -29.195  -1.467 -17.189  1.00  0.00     0.005 C 
ENDBRANCH  45  46
ENDBRANCH  44  45
ENDBRANCH  43  44
ENDBRANCH  42  43
ENDBRANCH  41  42
BRANCH  41  48
HETATM   48  O   UNL     1     -33.079  -6.700 -17.758  1.00  0.00    -0.396 OA
HETATM   49  H   UNL     1     -33.217  -7.404 -18.416  1.00  0.00     0.210 HD
ENDBRANCH  41  48
ENDBRANCH  40  41
ENDBRANCH  39  40
ENDBRANCH  38  39
ENDBRANCH  37  38
ENDBRANCH  36  37
ENDBRANCH  35  36
ENDBRANCH  34  35
ENDBRANCH  33  34
ENDBRANCH  32  33
ENDBRANCH  31  32
ENDBRANCH  28  31
ENDBRANCH  27  28
ENDBRANCH  26  27
ENDBRANCH   2  26
BRANCH   2  50
HETATM   50  C   UNL     1     -21.729  -3.655 -11.974  1.00  0.00     0.194 C 
BRANCH  50  51
HETATM   51  O   UNL     1     -21.858  -2.293 -11.668  1.00  0.00    -0.320 OA
BRANCH  51  52
HETATM   52  C   UNL     1     -20.676  -1.720 -11.322  1.00  0.00     0.258 C 
HETATM   53  O   UNL     1     -19.657  -2.282 -10.936  1.00  0.00    -0.265 OA
BRANCH  52  54
HETATM   54  C   UNL     1     -20.800  -0.260 -11.567  1.00  0.00     0.111 C 
BRANCH  54  55
HETATM   55  C   UNL     1     -19.591   0.453 -10.993  1.00  0.00     0.010 C 
BRANCH  55  56
HETATM   56  C   UNL     1     -19.691   1.914 -11.379  1.00  0.00     0.000 C 
BRANCH  56  57
HETATM   57  C   UNL     1     -21.049   2.477 -11.024  1.00  0.00     0.000 C 
BRANCH  57  58
HETATM   58  C   UNL     1     -20.871   3.777 -10.260  1.00  0.00     0.000 C 
BRANCH  58  59
HETATM   59  C   UNL     1     -21.765   3.776  -9.035  1.00  0.00     0.000 C 
BRANCH  59  60
HETATM   60  C   UNL     1     -23.184   4.142  -9.427  1.00  0.00     0.000 C 
BRANCH  60  61
HETATM   61  C   UNL     1     -24.005   4.490  -8.194  1.00  0.00     0.000 C 
BRANCH  61  62
HETATM   62  C   UNL     1     -25.228   5.283  -8.626  1.00  0.00     0.002 C 
BRANCH  62  63
HETATM   63  C   UNL     1     -25.316   5.428 -10.138  1.00  0.00     0.032 C 
BRANCH  63  64
HETATM   64  C   UNL     1     -25.712   6.848 -10.557  1.00  0.00     0.118 C 
BRANCH  64  65
HETATM   65  C   UNL     1     -24.722   7.476 -11.547  1.00  0.00     0.032 C 
BRANCH  65  66
HETATM   66  C   UNL     1     -24.306   8.889 -11.132  1.00  0.00     0.002 C 
BRANCH  66  67
HETATM   67  C   UNL     1     -25.158   9.984 -11.779  1.00  0.00     0.000 C 
BRANCH  67  68
HETATM   68  C   UNL     1     -26.437  10.287 -10.997  1.00  0.00    -0.000 C 
BRANCH  68  69
HETATM   69  C   UNL     1     -26.138  11.013  -9.688  1.00  0.00    -0.005 C 
HETATM   70  C   UNL     1     -25.956  10.020  -8.551  1.00  0.00     0.005 C 
ENDBRANCH  68  69
ENDBRANCH  67  68
ENDBRANCH  66  67
ENDBRANCH  65  66
ENDBRANCH  64  65
BRANCH  64  71
HETATM   71  O   UNL     1     -27.006   6.787 -11.158  1.00  0.00    -0.396 OA
HETATM   72  H   UNL     1     -27.069   5.941 -11.634  1.00  0.00     0.210 HD
ENDBRANCH  64  71
ENDBRANCH  63  64
ENDBRANCH  62  63
ENDBRANCH  61  62
ENDBRANCH  60  61
ENDBRANCH  59  60
ENDBRANCH  58  59
ENDBRANCH  57  58
ENDBRANCH  56  57
ENDBRANCH  55  56
ENDBRANCH  54  55
ENDBRANCH  52  54
ENDBRANCH  51  52
ENDBRANCH  50  51
ENDBRANCH   2  50
ENDBRANCH   1   2
BRANCH   1  73
HETATM   73  O   UNL     1     -22.893  -4.725  -9.498  1.00  0.00    -0.389 OA
BRANCH  73  74
HETATM   74  C   UNL     1     -21.755  -5.500  -8.978  1.00  0.00     0.183 C 
BRANCH  74  75
HETATM   75  C   UNL     1     -21.534  -5.377  -7.359  1.00  0.00     0.047 C 
BRANCH  75  76
HETATM   76  C   UNL     1     -20.709  -6.487  -6.736  1.00  0.00     0.194 C 
BRANCH  76  77
HETATM   77  O   UNL     1     -21.397  -7.722  -6.501  1.00  0.00    -0.320 OA
BRANCH  77  78
HETATM   78  C   UNL     1     -20.858  -8.447  -5.495  1.00  0.00     0.258 C 
HETATM   79  O   UNL     1     -20.020  -7.950  -4.729  1.00  0.00    -0.265 OA
BRANCH  78  80
HETATM   80  C   UNL     1     -21.267  -9.912  -5.579  1.00  0.00     0.111 C 
BRANCH  80  81
HETATM   81  C   UNL     1     -20.299 -11.082  -5.154  1.00  0.00     0.010 C 
BRANCH  81  82
HETATM   82  C   UNL     1     -19.514 -11.685  -3.786  1.00  0.00     0.000 C 
BRANCH  82  83
HETATM   83  C   UNL     1     -19.091 -11.236  -2.108  1.00  0.00     0.000 C 
BRANCH  83  84
HETATM   84  C   UNL     1     -17.761 -11.472  -1.076  1.00  0.00     0.000 C 
BRANCH  84  85
HETATM   85  C   UNL     1     -17.743 -12.647  -0.106  1.00  0.00     0.000 C 
BRANCH  85  86
HETATM   86  C   UNL     1     -16.484 -12.548   0.649  1.00  0.00     0.000 C 
BRANCH  86  87
HETATM   87  C   UNL     1     -16.009 -13.923   0.896  1.00  0.00     0.000 C 
BRANCH  87  88
HETATM   88  C   UNL     1     -15.787 -13.945   2.362  1.00  0.00     0.002 C 
BRANCH  88  89
HETATM   89  C   UNL     1     -16.089 -15.327   2.748  1.00  0.00     0.032 C 
BRANCH  89  90
HETATM   90  C   UNL     1     -15.000 -15.921   3.671  1.00  0.00     0.118 C 
BRANCH  90  91
HETATM   91  C   UNL     1     -13.340 -16.267   2.992  1.00  0.00     0.032 C 
BRANCH  91  92
HETATM   92  C   UNL     1     -12.483 -15.920   1.505  1.00  0.00     0.002 C 
BRANCH  92  93
HETATM   93  C   UNL     1     -11.739 -14.601   1.301  1.00  0.00     0.000 C 
BRANCH  93  94
HETATM   94  C   UNL     1     -10.352 -14.842   1.743  1.00  0.00    -0.000 C 
BRANCH  94  95
HETATM   95  C   UNL     1      -9.442 -13.987   0.940  1.00  0.00    -0.005 C 
HETATM   96  C   UNL     1      -9.902 -12.603   1.243  1.00  0.00     0.005 C 
ENDBRANCH  94  95
ENDBRANCH  93  94
ENDBRANCH  92  93
ENDBRANCH  91  92
ENDBRANCH  90  91
BRANCH  90  97
HETATM   97  O   UNL     1     -15.350 -15.016   4.770  1.00  0.00    -0.396 OA
HETATM   98  H   UNL     1     -15.533 -14.102   4.523  1.00  0.00     0.210 HD
ENDBRANCH  90  97
ENDBRANCH  89  90
ENDBRANCH  88  89
ENDBRANCH  87  88
ENDBRANCH  86  87
ENDBRANCH  85  86
ENDBRANCH  84  85
ENDBRANCH  83  84
ENDBRANCH  82  83
ENDBRANCH  81  82
ENDBRANCH  80  81
ENDBRANCH  78  80
ENDBRANCH  77  78
ENDBRANCH  76  77
ENDBRANCH  75  76
BRANCH  75  99
HETATM   99  C   UNL     1     -20.741  -4.114  -6.938  1.00  0.00     0.194 C 
BRANCH  99 100
HETATM  100  O   UNL     1     -19.413  -4.438  -6.478  1.00  0.00    -0.320 OA
BRANCH 100 101
HETATM  101  C   UNL     1     -18.439  -4.464  -7.416  1.00  0.00     0.258 C 
HETATM  102  O   UNL     1     -18.427  -3.785  -8.433  1.00  0.00    -0.265 OA
BRANCH 101 103
HETATM  103  C   UNL     1     -17.379  -5.460  -7.032  1.00  0.00     0.111 C 
BRANCH 103 104
HETATM  104  C   UNL     1     -17.920  -6.884  -6.998  1.00  0.00     0.010 C 
BRANCH 104 105
HETATM  105  C   UNL     1     -16.882  -7.940  -6.597  1.00  0.00     0.000 C 
BRANCH 105 106
HETATM  106  C   UNL     1     -17.480  -9.313  -6.291  1.00  0.00     0.000 C 
BRANCH 106 107
HETATM  107  C   UNL     1     -16.591 -10.107  -5.347  1.00  0.00     0.000 C 
BRANCH 107 108
HETATM  108  C   UNL     1     -15.541 -10.884  -6.122  1.00  0.00     0.000 C 
BRANCH 108 109
HETATM  109  C   UNL     1     -14.712 -11.705  -5.153  1.00  0.00     0.000 C 
BRANCH 109 110
HETATM  110  C   UNL     1     -15.275 -11.605  -3.745  1.00  0.00     0.000 C 
BRANCH 110 111
HETATM  111  C   UNL     1     -15.027 -12.921  -3.029  1.00  0.00     0.002 C 
BRANCH 111 112
HETATM  112  C   UNL     1     -15.565 -14.106  -3.815  1.00  0.00     0.032 C 
BRANCH 112 113
HETATM  113  C   UNL     1     -17.059 -14.327  -3.567  1.00  0.00     0.118 C 
BRANCH 113 114
HETATM  114  C   UNL     1     -17.817 -14.737  -4.834  1.00  0.00     0.032 C 
BRANCH 114 115
HETATM  115  C   UNL     1     -17.097 -14.302  -6.112  1.00  0.00     0.002 C 
BRANCH 115 116
HETATM  116  C   UNL     1     -17.946 -13.387  -6.999  1.00  0.00     0.000 C 
BRANCH 116 117
HETATM  117  C   UNL     1     -18.920 -14.152  -7.898  1.00  0.00    -0.000 C 
BRANCH 117 118
HETATM  118  C   UNL     1     -20.298 -13.500  -7.912  1.00  0.00    -0.005 C 
HETATM  119  C   UNL     1     -21.240 -14.200  -6.947  1.00  0.00     0.005 C 
ENDBRANCH 117 118
ENDBRANCH 116 117
ENDBRANCH 115 116
ENDBRANCH 114 115
ENDBRANCH 113 114
BRANCH 113 120
HETATM  120  O   UNL     1     -17.192 -15.349  -2.582  1.00  0.00    -0.396 OA
HETATM  121  H   UNL     1     -16.297 -15.645  -2.339  1.00  0.00     0.210 HD
ENDBRANCH 113 120
ENDBRANCH 112 113
ENDBRANCH 111 112
ENDBRANCH 110 111
ENDBRANCH 109 110
ENDBRANCH 108 109
ENDBRANCH 107 108
ENDBRANCH 106 107
ENDBRANCH 105 106
ENDBRANCH 104 105
ENDBRANCH 103 104
ENDBRANCH 101 103
ENDBRANCH 100 101
ENDBRANCH  99 100
ENDBRANCH  75  99
BRANCH  75 122
HETATM  122  C   UNL     1     -22.920  -5.489  -6.672  1.00  0.00     0.194 C 
BRANCH 122 123
HETATM  123  O   UNL     1     -22.725  -5.512  -5.288  1.00  0.00    -0.320 OA
BRANCH 123 124
HETATM  124  C   UNL     1     -23.731  -6.118  -4.630  1.00  0.00     0.258 C 
HETATM  125  O   UNL     1     -24.928  -6.167  -4.906  1.00  0.00    -0.265 OA
BRANCH 124 126
HETATM  126  C   UNL     1     -23.057  -7.003  -3.601  1.00  0.00     0.111 C 
BRANCH 126 127
HETATM  127  C   UNL     1     -22.148  -6.064  -2.858  1.00  0.00     0.010 C 
BRANCH 127 128
HETATM  128  C   UNL     1     -21.390  -6.883  -1.873  1.00  0.00     0.000 C 
BRANCH 128 129
HETATM  129  C   UNL     1     -22.323  -7.117  -0.725  1.00  0.00     0.000 C 
BRANCH 129 130
HETATM  130  C   UNL     1     -22.015  -8.458  -0.130  1.00  0.00     0.000 C 
BRANCH 130 131
HETATM  131  C   UNL     1     -23.321  -9.113   0.242  1.00  0.00     0.000 C 
BRANCH 131 132
HETATM  132  C   UNL     1     -23.433 -10.413  -0.510  1.00  0.00     0.000 C 
BRANCH 132 133
HETATM  133  C   UNL     1     -22.529 -10.383  -1.726  1.00  0.00     0.000 C 
BRANCH 133 134
HETATM  134  C   UNL     1     -23.129 -11.295  -2.776  1.00  0.00     0.002 C 
BRANCH 134 135
HETATM  135  C   UNL     1     -23.231 -12.728  -2.288  1.00  0.00     0.032 C 
BRANCH 135 136
HETATM  136  C   UNL     1     -22.328 -13.665  -3.093  1.00  0.00     0.118 C 
BRANCH 136 137
HETATM  137  C   UNL     1     -21.491 -14.590  -2.203  1.00  0.00     0.032 C 
BRANCH 137 138
HETATM  138  C   UNL     1     -21.952 -14.572  -0.746  1.00  0.00     0.002 C 
BRANCH 138 139
HETATM  139  C   UNL     1     -21.210 -13.538   0.106  1.00  0.00     0.000 C 
BRANCH 139 140
HETATM  140  C   UNL     1     -21.785 -13.394   1.517  1.00  0.00    -0.000 C 
BRANCH 140 141
HETATM  141  C   UNL     1     -23.304 -13.535   1.519  1.00  0.00    -0.005 C 
HETATM  142  C   UNL     1     -23.771 -14.339   2.721  1.00  0.00     0.005 C 
ENDBRANCH 140 141
ENDBRANCH 139 140
ENDBRANCH 138 139
ENDBRANCH 137 138
ENDBRANCH 136 137
BRANCH 136 143
HETATM  143  O   UNL     1     -23.160 -14.448  -3.947  1.00  0.00    -0.396 OA
HETATM  144  H   UNL     1     -24.072 -14.122  -3.852  1.00  0.00     0.210 HD
ENDBRANCH 136 143
ENDBRANCH 135 136
ENDBRANCH 134 135
ENDBRANCH 133 134
ENDBRANCH 132 133
ENDBRANCH 131 132
ENDBRANCH 130 131
ENDBRANCH 129 130
ENDBRANCH 128 129
ENDBRANCH 127 128
ENDBRANCH 126 127
ENDBRANCH 124 126
ENDBRANCH 123 124
ENDBRANCH 122 123
ENDBRANCH  75 122
ENDBRANCH  74  75
ENDBRANCH  73  74
ENDBRANCH   1  73
TORSDOF 125
BEGIN_RES ARG D 557
REMARK  4 active torsions:
REMARK  status: ('A' for Active; 'I' for Inactive)
REMARK    1  A    between atoms: CA   and  CB  
REMARK    2  A    between atoms: CB   and  CG  
REMARK    3  A    between atoms: CG   and  CD  
REMARK    4  A    between atoms: CD   and  NE  
REMARK       I    between atoms: NE   and  CZ  
REMARK       I    between atoms: CZ   and  NH1 
REMARK       I    between atoms: CZ   and  NH2 
ROOT
ATOM      1  CA  ARG D 557     -26.217   2.705 -17.014  1.00 35.49     0.159 C 
ENDROOT
BRANCH   1   2
ATOM      2  CB  ARG D 557     -26.789   1.319 -17.183  1.00 35.49     0.034 C 
BRANCH   2   3
ATOM      3  CG  ARG D 557     -25.827   0.213 -17.270  1.00 35.49     0.027 C 
BRANCH   3   4
ATOM      4  CD  ARG D 557     -24.484   0.594 -16.778  1.00 35.49     0.116 C 
BRANCH   4   5
ATOM      5  NE  ARG D 557     -24.256   0.155 -15.426  1.00 35.49    -0.212 N 
ATOM      6  CZ  ARG D 557     -23.405  -0.774 -15.054  1.00 35.49     0.666 C 
ATOM      7  NH1 ARG D 557     -22.654  -1.435 -15.915  1.00 35.49    -0.235 N 
ATOM      8  NH2 ARG D 557     -23.314  -1.030 -13.781  1.00 35.49    -0.235 N 
ATOM      9  HH  ARG D 557     -22.696  -1.282 -16.757  1.00 35.49     0.174 HD
ATOM     10  HH  ARG D 557     -22.115  -2.029 -15.614  1.00 35.49     0.174 HD
ATOM     11  HH  ARG D 557     -23.806  -0.582 -13.247  1.00 35.49     0.174 HD
ATOM     12  HH  ARG D 557     -22.774  -1.620 -13.502  1.00 35.49     0.174 HD
ATOM     13  HE  ARG D 557     -24.750   0.477 -14.813  1.00 35.49     0.178 HD
ENDBRANCH   4   5
ENDBRANCH   3   4
ENDBRANCH   2   3
ENDBRANCH   1   2
END_RES ARG D 557
BEGIN_RES GLU D 570
REMARK  3 active torsions:
REMARK  status: ('A' for Active; 'I' for Inactive)
REMARK    5  A    between atoms: CA   and  CB  
REMARK    6  A    between atoms: CB   and  CG  
REMARK    7  A    between atoms: CG   and  CD  
ROOT
ATOM     14  CA  GLU D 570     -18.033  -6.348 -13.375  1.00 32.92     0.160 C 
ENDROOT
BRANCH  14  15
ATOM     15  CB  GLU D 570     -19.500  -6.345 -13.794  1.00 32.92     0.043 C 
BRANCH  15  16
ATOM     16  CG  GLU D 570     -19.858  -5.598 -15.027  1.00 32.92     0.100 C 
BRANCH  16  17
ATOM     17  CD  GLU D 570     -20.418  -6.487 -16.113  1.00 32.92     0.185 C 
ATOM     18  OE1 GLU D 570     -20.597  -7.696 -15.873  1.00 32.92    -0.647 OA
ATOM     19  OE2 GLU D 570     -20.663  -5.971 -17.222  1.00 32.92    -0.647 OA
ENDBRANCH  16  17
ENDBRANCH  15  16
ENDBRANCH  14  15
END_RES GLU D 570
ENDMDL
