MODEL 1
REMARK VINA RESULT:      -7.3      0.000      0.000
REMARK  18 active torsions:
REMARK  status: ('A' for Active; 'I' for Inactive)
REMARK    1  A    between atoms: C_2  and  C_4 
REMARK    2  A    between atoms: C_4  and  C_5 
REMARK    3  A    between atoms: C_5  and  C_6 
REMARK    4  A    between atoms: C_6  and  C_7 
REMARK    5  A    between atoms: C_7  and  C_8 
REMARK    6  A    between atoms: C_8  and  C_9 
REMARK    7  A    between atoms: C_9  and  C_10 
REMARK    8  A    between atoms: C_10  and  C_11 
REMARK    9  A    between atoms: C_11  and  C_12 
REMARK   10  A    between atoms: C_12  and  C_13 
REMARK   11  A    between atoms: C_13  and  C_14 
REMARK   12  A    between atoms: C_14  and  C_15 
REMARK   13  A    between atoms: C_15  and  C_16 
REMARK   14  A    between atoms: C_16  and  C_17 
REMARK   15  A    between atoms: C_17  and  C_18 
REMARK   16  A    between atoms: C_18  and  O_19 
REMARK   17  A    between atoms: O_19  and  C_20 
REMARK   18  A    between atoms: C_20  and  C_22 
ROOT
HETATM    1  C   UNL     1     -20.713  -7.218  -5.390  1.00  0.00     0.000 C 
ENDROOT
BRANCH   1   2
HETATM    2  C   UNL     1     -21.789  -6.793  -4.408  1.00  0.00     0.000 C 
BRANCH   2   3
HETATM    3  C   UNL     1     -21.218  -6.758  -3.003  1.00  0.00     0.000 C 
BRANCH   3   4
HETATM    4  C   UNL     1     -22.213  -6.112  -2.057  1.00  0.00     0.000 C 
BRANCH   4   5
HETATM    5  C   UNL     1     -22.375  -6.969  -0.816  1.00  0.00     0.000 C 
BRANCH   5   6
HETATM    6  C   UNL     1     -21.366  -8.100  -0.842  1.00  0.00     0.000 C 
BRANCH   6   7
HETATM    7  C   UNL     1     -21.781  -9.182   0.132  1.00  0.00     0.000 C 
BRANCH   7   8
HETATM    8  C   UNL     1     -23.271  -9.437   0.002  1.00  0.00     0.000 C 
BRANCH   8   9
HETATM    9  C   UNL     1     -23.504 -10.916  -0.217  1.00  0.00     0.000 C 
BRANCH   9  10
HETATM   10  C   UNL     1     -22.381 -11.737   0.401  1.00  0.00     0.004 C 
BRANCH  10  11
HETATM   11  C   UNL     1     -22.750 -13.223   0.474  1.00  0.00    -0.023 C 
HETATM   12  C   UNL     1     -21.504 -14.072   0.242  1.00  0.00     0.009 C 
HETATM   13  C   UNL     1     -23.372 -13.577   1.825  1.00  0.00     0.009 C 
ENDBRANCH  10  11
ENDBRANCH   9  10
ENDBRANCH   8   9
ENDBRANCH   7   8
ENDBRANCH   6   7
ENDBRANCH   5   6
ENDBRANCH   4   5
ENDBRANCH   3   4
ENDBRANCH   2   3
ENDBRANCH   1   2
BRANCH   1  14
HETATM   14  C   UNL     1     -20.685  -6.269  -6.570  1.00  0.00     0.000 C 
BRANCH  14  15
HETATM   15  C   UNL     1     -21.321  -4.936  -6.198  1.00  0.00     0.000 C 
BRANCH  15  16
HETATM   16  C   UNL     1     -21.058  -3.892  -7.275  1.00  0.00     0.002 C 
BRANCH  16  17
HETATM   17  C   UNL     1     -21.640  -4.327  -8.619  1.00  0.00     0.027 C 
BRANCH  17  18
HETATM   18  C   UNL     1     -23.152  -4.200  -8.627  1.00  0.00     0.178 C 
BRANCH  18  19
HETATM   19  O   UNL     1     -23.694  -4.688  -9.868  1.00  0.00    -0.321 OA
BRANCH  19  20
HETATM   20  C   UNL     1     -24.332  -3.744 -10.613  1.00  0.00     0.266 C 
HETATM   21  O   UNL     1     -25.307  -3.095 -10.206  1.00  0.00    -0.264 OA
BRANCH  20  22
HETATM   22  C   UNL     1     -23.708  -3.568 -11.997  1.00  0.00     0.037 C 
HETATM   23  C   UNL     1     -24.706  -2.907 -12.955  1.00  0.00     0.025 C 
HETATM   24  C   UNL     1     -22.440  -2.695 -11.907  1.00  0.00     0.025 C 
HETATM   25  C   UNL     1     -23.310  -4.938 -12.557  1.00  0.00     0.025 C 
ENDBRANCH  20  22
ENDBRANCH  19  20
ENDBRANCH  18  19
ENDBRANCH  17  18
ENDBRANCH  16  17
ENDBRANCH  15  16
ENDBRANCH  14  15
ENDBRANCH   1  14
TORSDOF 18
BEGIN_RES ARG D 557
REMARK  4 active torsions:
REMARK  status: ('A' for Active; 'I' for Inactive)
REMARK    1  A    between atoms: CA   and  CB  
REMARK    2  A    between atoms: CB   and  CG  
REMARK    3  A    between atoms: CG   and  CD  
REMARK    4  A    between atoms: CD   and  NE  
REMARK       I    between atoms: NE   and  CZ  
REMARK       I    between atoms: CZ   and  NH1 
REMARK       I    between atoms: CZ   and  NH2 
ROOT
ATOM      1  CA  ARG D 557     -26.217   2.705 -17.014  1.00 35.49     0.159 C 
ENDROOT
BRANCH   1   2
ATOM      2  CB  ARG D 557     -26.789   1.319 -17.183  1.00 35.49     0.034 C 
BRANCH   2   3
ATOM      3  CG  ARG D 557     -28.234   1.225 -17.422  1.00 35.49     0.027 C 
BRANCH   3   4
ATOM      4  CD  ARG D 557     -28.902   0.292 -16.486  1.00 35.49     0.116 C 
BRANCH   4   5
ATOM      5  NE  ARG D 557     -29.297  -0.933 -17.131  1.00 35.49    -0.212 N 
ATOM      6  CZ  ARG D 557     -28.675  -2.087 -17.034  1.00 35.49     0.666 C 
ATOM      7  NH1 ARG D 557     -27.576  -2.243 -16.320  1.00 35.49    -0.235 N 
ATOM      8  NH2 ARG D 557     -29.188  -3.099 -17.671  1.00 35.49    -0.235 N 
ATOM      9  HH  ARG D 557     -27.222  -1.590 -15.891  1.00 35.49     0.174 HD
ATOM     10  HH  ARG D 557     -27.215  -3.019 -16.292  1.00 35.49     0.174 HD
ATOM     11  HH  ARG D 557     -29.902  -2.971 -18.118  1.00 35.49     0.174 HD
ATOM     12  HH  ARG D 557     -28.817  -3.861 -17.630  1.00 35.49     0.174 HD
ATOM     13  HE  ARG D 557     -29.954  -0.906 -17.669  1.00 35.49     0.178 HD
ENDBRANCH   4   5
ENDBRANCH   3   4
ENDBRANCH   2   3
ENDBRANCH   1   2
END_RES ARG D 557
BEGIN_RES GLU D 570
REMARK  3 active torsions:
REMARK  status: ('A' for Active; 'I' for Inactive)
REMARK    5  A    between atoms: CA   and  CB  
REMARK    6  A    between atoms: CB   and  CG  
REMARK    7  A    between atoms: CG   and  CD  
ROOT
ATOM     14  CA  GLU D 570     -18.033  -6.348 -13.375  1.00 32.92     0.160 C 
ENDROOT
BRANCH  14  15
ATOM     15  CB  GLU D 570     -19.500  -6.345 -13.794  1.00 32.92     0.043 C 
BRANCH  15  16
ATOM     16  CG  GLU D 570     -19.797  -6.432 -15.247  1.00 32.92     0.100 C 
BRANCH  16  17
ATOM     17  CD  GLU D 570     -20.930  -7.380 -15.562  1.00 32.92     0.185 C 
ATOM     18  OE1 GLU D 570     -20.675  -8.586 -15.750  1.00 32.92    -0.647 OA
ATOM     19  OE2 GLU D 570     -22.082  -6.910 -15.637  1.00 32.92    -0.647 OA
ENDBRANCH  16  17
ENDBRANCH  15  16
ENDBRANCH  14  15
END_RES GLU D 570
ENDMDL
MODEL 2
REMARK VINA RESULT:      -7.3      3.150      6.340
REMARK  18 active torsions:
REMARK  status: ('A' for Active; 'I' for Inactive)
REMARK    1  A    between atoms: C_2  and  C_4 
REMARK    2  A    between atoms: C_4  and  C_5 
REMARK    3  A    between atoms: C_5  and  C_6 
REMARK    4  A    between atoms: C_6  and  C_7 
REMARK    5  A    between atoms: C_7  and  C_8 
REMARK    6  A    between atoms: C_8  and  C_9 
REMARK    7  A    between atoms: C_9  and  C_10 
REMARK    8  A    between atoms: C_10  and  C_11 
REMARK    9  A    between atoms: C_11  and  C_12 
REMARK   10  A    between atoms: C_12  and  C_13 
REMARK   11  A    between atoms: C_13  and  C_14 
REMARK   12  A    between atoms: C_14  and  C_15 
REMARK   13  A    between atoms: C_15  and  C_16 
REMARK   14  A    between atoms: C_16  and  C_17 
REMARK   15  A    between atoms: C_17  and  C_18 
REMARK   16  A    between atoms: C_18  and  O_19 
REMARK   17  A    between atoms: O_19  and  C_20 
REMARK   18  A    between atoms: C_20  and  C_22 
ROOT
HETATM    1  C   UNL     1     -22.142  -4.222 -11.297  1.00  0.00     0.000 C 
ENDROOT
BRANCH   1   2
HETATM    2  C   UNL     1     -20.697  -3.964 -10.912  1.00  0.00     0.000 C 
BRANCH   2   3
HETATM    3  C   UNL     1     -20.504  -4.231  -9.431  1.00  0.00     0.000 C 
BRANCH   3   4
HETATM    4  C   UNL     1     -21.781  -3.910  -8.678  1.00  0.00     0.000 C 
BRANCH   4   5
HETATM    5  C   UNL     1     -21.789  -4.634  -7.346  1.00  0.00     0.000 C 
BRANCH   5   6
HETATM    6  C   UNL     1     -20.475  -4.397  -6.627  1.00  0.00     0.000 C 
BRANCH   6   7
HETATM    7  C   UNL     1     -20.493  -5.088  -5.281  1.00  0.00     0.000 C 
BRANCH   7   8
HETATM    8  C   UNL     1     -20.806  -6.560  -5.470  1.00  0.00     0.000 C 
BRANCH   8   9
HETATM    9  C   UNL     1     -21.788  -6.999  -4.405  1.00  0.00     0.000 C 
BRANCH   9  10
HETATM   10  C   UNL     1     -21.113  -7.910  -3.390  1.00  0.00     0.004 C 
BRANCH  10  11
HETATM   11  C   UNL     1     -21.281  -7.378  -1.962  1.00  0.00    -0.023 C 
HETATM   12  C   UNL     1     -22.163  -6.133  -1.981  1.00  0.00     0.009 C 
HETATM   13  C   UNL     1     -21.898  -8.433  -1.043  1.00  0.00     0.009 C 
ENDBRANCH  10  11
ENDBRANCH   9  10
ENDBRANCH   8   9
ENDBRANCH   7   8
ENDBRANCH   6   7
ENDBRANCH   5   6
ENDBRANCH   4   5
ENDBRANCH   3   4
ENDBRANCH   2   3
ENDBRANCH   1   2
BRANCH   1  14
HETATM   14  C   UNL     1     -22.232  -4.574 -12.767  1.00  0.00     0.000 C 
BRANCH  14  15
HETATM   15  C   UNL     1     -23.407  -5.508 -13.022  1.00  0.00     0.000 C 
BRANCH  15  16
HETATM   16  C   UNL     1     -23.490  -5.883 -14.495  1.00  0.00     0.002 C 
BRANCH  16  17
HETATM   17  C   UNL     1     -24.896  -5.647 -15.046  1.00  0.00     0.027 C 
BRANCH  17  18
HETATM   18  C   UNL     1     -25.420  -6.882 -15.755  1.00  0.00     0.178 C 
BRANCH  18  19
HETATM   19  O   UNL     1     -26.818  -6.735 -16.060  1.00  0.00    -0.321 OA
BRANCH  19  20
HETATM   20  C   UNL     1     -27.077  -5.994 -17.173  1.00  0.00     0.266 C 
HETATM   21  O   UNL     1     -26.423  -6.085 -18.222  1.00  0.00    -0.264 OA
BRANCH  20  22
HETATM   22  C   UNL     1     -28.266  -5.051 -16.987  1.00  0.00     0.037 C 
HETATM   23  C   UNL     1     -27.788  -3.677 -16.502  1.00  0.00     0.025 C 
HETATM   24  C   UNL     1     -29.029  -4.880 -18.316  1.00  0.00     0.025 C 
HETATM   25  C   UNL     1     -29.229  -5.640 -15.951  1.00  0.00     0.025 C 
ENDBRANCH  20  22
ENDBRANCH  19  20
ENDBRANCH  18  19
ENDBRANCH  17  18
ENDBRANCH  16  17
ENDBRANCH  15  16
ENDBRANCH  14  15
ENDBRANCH   1  14
TORSDOF 18
BEGIN_RES ARG D 557
REMARK  4 active torsions:
REMARK  status: ('A' for Active; 'I' for Inactive)
REMARK    1  A    between atoms: CA   and  CB  
REMARK    2  A    between atoms: CB   and  CG  
REMARK    3  A    between atoms: CG   and  CD  
REMARK    4  A    between atoms: CD   and  NE  
REMARK       I    between atoms: NE   and  CZ  
REMARK       I    between atoms: CZ   and  NH1 
REMARK       I    between atoms: CZ   and  NH2 
ROOT
ATOM      1  CA  ARG D 557     -26.217   2.705 -17.014  1.00 35.49     0.159 C 
ENDROOT
BRANCH   1   2
ATOM      2  CB  ARG D 557     -26.789   1.319 -17.183  1.00 35.49     0.034 C 
BRANCH   2   3
ATOM      3  CG  ARG D 557     -25.831   0.206 -17.198  1.00 35.49     0.027 C 
BRANCH   3   4
ATOM      4  CD  ARG D 557     -24.761   0.370 -16.188  1.00 35.49     0.116 C 
BRANCH   4   5
ATOM      5  NE  ARG D 557     -24.968  -0.471 -15.038  1.00 35.49    -0.212 N 
ATOM      6  CZ  ARG D 557     -24.184  -1.453 -14.654  1.00 35.49     0.666 C 
ATOM      7  NH1 ARG D 557     -23.094  -1.792 -15.317  1.00 35.49    -0.235 N 
ATOM      8  NH2 ARG D 557     -24.515  -2.097 -13.572  1.00 35.49    -0.235 N 
ATOM      9  HH  ARG D 557     -22.856  -1.380 -16.030  1.00 35.49     0.174 HD
ATOM     10  HH  ARG D 557     -22.620  -2.440 -15.017  1.00 35.49     0.174 HD
ATOM     11  HH  ARG D 557     -25.221  -1.852 -13.160  1.00 35.49     0.174 HD
ATOM     12  HH  ARG D 557     -24.032  -2.735 -13.291  1.00 35.49     0.174 HD
ATOM     13  HE  ARG D 557     -25.686  -0.370 -14.594  1.00 35.49     0.178 HD
ENDBRANCH   4   5
ENDBRANCH   3   4
ENDBRANCH   2   3
ENDBRANCH   1   2
END_RES ARG D 557
BEGIN_RES GLU D 570
REMARK  3 active torsions:
REMARK  status: ('A' for Active; 'I' for Inactive)
REMARK    5  A    between atoms: CA   and  CB  
REMARK    6  A    between atoms: CB   and  CG  
REMARK    7  A    between atoms: CG   and  CD  
ROOT
ATOM     14  CA  GLU D 570     -18.033  -6.348 -13.375  1.00 32.92     0.160 C 
ENDROOT
BRANCH  14  15
ATOM     15  CB  GLU D 570     -19.500  -6.345 -13.794  1.00 32.92     0.043 C 
BRANCH  15  16
ATOM     16  CG  GLU D 570     -20.087  -7.635 -14.240  1.00 32.92     0.100 C 
BRANCH  16  17
ATOM     17  CD  GLU D 570     -20.516  -7.617 -15.689  1.00 32.92     0.185 C 
ATOM     18  OE1 GLU D 570     -20.560  -6.529 -16.294  1.00 32.92    -0.647 OA
ATOM     19  OE2 GLU D 570     -20.826  -8.702 -16.220  1.00 32.92    -0.647 OA
ENDBRANCH  16  17
ENDBRANCH  15  16
ENDBRANCH  14  15
END_RES GLU D 570
ENDMDL
MODEL 3
REMARK VINA RESULT:      -7.2      1.310      1.988
REMARK  18 active torsions:
REMARK  status: ('A' for Active; 'I' for Inactive)
REMARK    1  A    between atoms: C_2  and  C_4 
REMARK    2  A    between atoms: C_4  and  C_5 
REMARK    3  A    between atoms: C_5  and  C_6 
REMARK    4  A    between atoms: C_6  and  C_7 
REMARK    5  A    between atoms: C_7  and  C_8 
REMARK    6  A    between atoms: C_8  and  C_9 
REMARK    7  A    between atoms: C_9  and  C_10 
REMARK    8  A    between atoms: C_10  and  C_11 
REMARK    9  A    between atoms: C_11  and  C_12 
REMARK   10  A    between atoms: C_12  and  C_13 
REMARK   11  A    between atoms: C_13  and  C_14 
REMARK   12  A    between atoms: C_14  and  C_15 
REMARK   13  A    between atoms: C_15  and  C_16 
REMARK   14  A    between atoms: C_16  and  C_17 
REMARK   15  A    between atoms: C_17  and  C_18 
REMARK   16  A    between atoms: C_18  and  O_19 
REMARK   17  A    between atoms: O_19  and  C_20 
REMARK   18  A    between atoms: C_20  and  C_22 
ROOT
HETATM    1  C   UNL     1     -21.253  -7.220  -5.045  1.00  0.00     0.000 C 
ENDROOT
BRANCH   1   2
HETATM    2  C   UNL     1     -21.424  -6.251  -3.889  1.00  0.00     0.000 C 
BRANCH   2   3
HETATM    3  C   UNL     1     -21.304  -6.995  -2.573  1.00  0.00     0.000 C 
BRANCH   3   4
HETATM    4  C   UNL     1     -22.245  -6.388  -1.549  1.00  0.00     0.000 C 
BRANCH   4   5
HETATM    5  C   UNL     1     -22.395  -7.326  -0.367  1.00  0.00     0.000 C 
BRANCH   5   6
HETATM    6  C   UNL     1     -21.300  -8.374  -0.406  1.00  0.00     0.000 C 
BRANCH   6   7
HETATM    7  C   UNL     1     -21.208  -9.071   0.935  1.00  0.00     0.000 C 
BRANCH   7   8
HETATM    8  C   UNL     1     -20.654 -10.470   0.744  1.00  0.00     0.000 C 
BRANCH   8   9
HETATM    9  C   UNL     1     -21.799 -11.426   0.485  1.00  0.00     0.000 C 
BRANCH   9  10
HETATM   10  C   UNL     1     -21.674 -12.058  -0.893  1.00  0.00     0.004 C 
BRANCH  10  11
HETATM   11  C   UNL     1     -22.883 -11.723  -1.773  1.00  0.00    -0.023 C 
HETATM   12  C   UNL     1     -23.988 -11.115  -0.915  1.00  0.00     0.009 C 
HETATM   13  C   UNL     1     -22.505 -10.751  -2.893  1.00  0.00     0.009 C 
ENDBRANCH  10  11
ENDBRANCH   9  10
ENDBRANCH   8   9
ENDBRANCH   7   8
ENDBRANCH   6   7
ENDBRANCH   5   6
ENDBRANCH   4   5
ENDBRANCH   3   4
ENDBRANCH   2   3
ENDBRANCH   1   2
BRANCH   1  14
HETATM   14  C   UNL     1     -20.204  -6.701  -6.005  1.00  0.00     0.000 C 
BRANCH  14  15
HETATM   15  C   UNL     1     -20.054  -5.192  -5.868  1.00  0.00     0.000 C 
BRANCH  15  16
HETATM   16  C   UNL     1     -20.170  -4.511  -7.224  1.00  0.00     0.002 C 
BRANCH  16  17
HETATM   17  C   UNL     1     -21.332  -3.519  -7.246  1.00  0.00     0.027 C 
BRANCH  17  18
HETATM   18  C   UNL     1     -22.567  -4.138  -7.876  1.00  0.00     0.178 C 
BRANCH  18  19
HETATM   19  O   UNL     1     -22.874  -3.494  -9.126  1.00  0.00    -0.321 OA
BRANCH  19  20
HETATM   20  C   UNL     1     -23.007  -4.346 -10.180  1.00  0.00     0.266 C 
HETATM   21  O   UNL     1     -23.733  -5.351 -10.159  1.00  0.00    -0.264 OA
BRANCH  20  22
HETATM   22  C   UNL     1     -22.174  -3.920 -11.388  1.00  0.00     0.037 C 
HETATM   23  C   UNL     1     -20.686  -4.187 -11.133  1.00  0.00     0.025 C 
HETATM   24  C   UNL     1     -22.617  -4.693 -12.646  1.00  0.00     0.025 C 
HETATM   25  C   UNL     1     -22.375  -2.423 -11.646  1.00  0.00     0.025 C 
ENDBRANCH  20  22
ENDBRANCH  19  20
ENDBRANCH  18  19
ENDBRANCH  17  18
ENDBRANCH  16  17
ENDBRANCH  15  16
ENDBRANCH  14  15
ENDBRANCH   1  14
TORSDOF 18
BEGIN_RES ARG D 557
REMARK  4 active torsions:
REMARK  status: ('A' for Active; 'I' for Inactive)
REMARK    1  A    between atoms: CA   and  CB  
REMARK    2  A    between atoms: CB   and  CG  
REMARK    3  A    between atoms: CG   and  CD  
REMARK    4  A    between atoms: CD   and  NE  
REMARK       I    between atoms: NE   and  CZ  
REMARK       I    between atoms: CZ   and  NH1 
REMARK       I    between atoms: CZ   and  NH2 
ROOT
ATOM      1  CA  ARG D 557     -26.217   2.705 -17.014  1.00 35.49     0.159 C 
ENDROOT
BRANCH   1   2
ATOM      2  CB  ARG D 557     -26.789   1.319 -17.183  1.00 35.49     0.034 C 
BRANCH   2   3
ATOM      3  CG  ARG D 557     -28.233   1.226 -17.428  1.00 35.49     0.027 C 
BRANCH   3   4
ATOM      4  CD  ARG D 557     -28.909   0.313 -16.477  1.00 35.49     0.116 C 
BRANCH   4   5
ATOM      5  NE  ARG D 557     -29.342  -0.905 -17.110  1.00 35.49    -0.212 N 
ATOM      6  CZ  ARG D 557     -28.735  -2.068 -17.033  1.00 35.49     0.666 C 
ATOM      7  NH1 ARG D 557     -27.616  -2.241 -16.353  1.00 35.49    -0.235 N 
ATOM      8  NH2 ARG D 557     -29.281  -3.073 -17.654  1.00 35.49    -0.235 N 
ATOM      9  HH  ARG D 557     -27.240  -1.594 -15.935  1.00 35.49     0.174 HD
ATOM     10  HH  ARG D 557     -27.267  -3.023 -16.336  1.00 35.49     0.174 HD
ATOM     11  HH  ARG D 557     -30.008  -2.934 -18.079  1.00 35.49     0.174 HD
ATOM     12  HH  ARG D 557     -28.921  -3.840 -17.624  1.00 35.49     0.174 HD
ATOM     13  HE  ARG D 557     -30.015  -0.869 -17.628  1.00 35.49     0.178 HD
ENDBRANCH   4   5
ENDBRANCH   3   4
ENDBRANCH   2   3
ENDBRANCH   1   2
END_RES ARG D 557
BEGIN_RES GLU D 570
REMARK  3 active torsions:
REMARK  status: ('A' for Active; 'I' for Inactive)
REMARK    5  A    between atoms: CA   and  CB  
REMARK    6  A    between atoms: CB   and  CG  
REMARK    7  A    between atoms: CG   and  CD  
ROOT
ATOM     14  CA  GLU D 570     -18.033  -6.348 -13.375  1.00 32.92     0.160 C 
ENDROOT
BRANCH  14  15
ATOM     15  CB  GLU D 570     -19.500  -6.345 -13.794  1.00 32.92     0.043 C 
BRANCH  15  16
ATOM     16  CG  GLU D 570     -19.815  -5.917 -15.182  1.00 32.92     0.100 C 
BRANCH  16  17
ATOM     17  CD  GLU D 570     -21.274  -6.090 -15.535  1.00 32.92     0.185 C 
ATOM     18  OE1 GLU D 570     -21.910  -7.036 -15.033  1.00 32.92    -0.647 OA
ATOM     19  OE2 GLU D 570     -21.781  -5.280 -16.336  1.00 32.92    -0.647 OA
ENDBRANCH  16  17
ENDBRANCH  15  16
ENDBRANCH  14  15
END_RES GLU D 570
ENDMDL
MODEL 4
REMARK VINA RESULT:      -7.1      3.229      8.860
REMARK  18 active torsions:
REMARK  status: ('A' for Active; 'I' for Inactive)
REMARK    1  A    between atoms: C_2  and  C_4 
REMARK    2  A    between atoms: C_4  and  C_5 
REMARK    3  A    between atoms: C_5  and  C_6 
REMARK    4  A    between atoms: C_6  and  C_7 
REMARK    5  A    between atoms: C_7  and  C_8 
REMARK    6  A    between atoms: C_8  and  C_9 
REMARK    7  A    between atoms: C_9  and  C_10 
REMARK    8  A    between atoms: C_10  and  C_11 
REMARK    9  A    between atoms: C_11  and  C_12 
REMARK   10  A    between atoms: C_12  and  C_13 
REMARK   11  A    between atoms: C_13  and  C_14 
REMARK   12  A    between atoms: C_14  and  C_15 
REMARK   13  A    between atoms: C_15  and  C_16 
REMARK   14  A    between atoms: C_16  and  C_17 
REMARK   15  A    between atoms: C_17  and  C_18 
REMARK   16  A    between atoms: C_18  and  O_19 
REMARK   17  A    between atoms: O_19  and  C_20 
REMARK   18  A    between atoms: C_20  and  C_22 
ROOT
HETATM    1  C   UNL     1     -22.200  -6.187  -1.983  1.00  0.00     0.000 C 
ENDROOT
BRANCH   1   2
HETATM    2  C   UNL     1     -21.302  -5.950  -3.184  1.00  0.00     0.000 C 
BRANCH   2   3
HETATM    3  C   UNL     1     -21.915  -6.583  -4.418  1.00  0.00     0.000 C 
BRANCH   3   4
HETATM    4  C   UNL     1     -20.820  -7.002  -5.381  1.00  0.00     0.000 C 
BRANCH   4   5
HETATM    5  C   UNL     1     -20.977  -6.258  -6.694  1.00  0.00     0.000 C 
BRANCH   5   6
HETATM    6  C   UNL     1     -20.255  -4.928  -6.615  1.00  0.00     0.000 C 
BRANCH   6   7
HETATM    7  C   UNL     1     -21.190  -3.810  -7.026  1.00  0.00     0.000 C 
BRANCH   7   8
HETATM    8  C   UNL     1     -22.531  -4.393  -7.430  1.00  0.00     0.000 C 
BRANCH   8   9
HETATM    9  C   UNL     1     -23.005  -3.715  -8.697  1.00  0.00     0.000 C 
BRANCH   9  10
HETATM   10  C   UNL     1     -22.630  -4.537  -9.922  1.00  0.00     0.004 C 
BRANCH  10  11
HETATM   11  C   UNL     1     -21.636  -3.786 -10.815  1.00  0.00    -0.023 C 
HETATM   12  C   UNL     1     -20.262  -4.443 -10.715  1.00  0.00     0.009 C 
HETATM   13  C   UNL     1     -22.096  -3.773 -12.274  1.00  0.00     0.009 C 
ENDBRANCH  10  11
ENDBRANCH   9  10
ENDBRANCH   8   9
ENDBRANCH   7   8
ENDBRANCH   6   7
ENDBRANCH   5   6
ENDBRANCH   4   5
ENDBRANCH   3   4
ENDBRANCH   2   3
ENDBRANCH   1   2
BRANCH   1  14
HETATM   14  C   UNL     1     -21.607  -7.262  -1.096  1.00  0.00     0.000 C 
BRANCH  14  15
HETATM   15  C   UNL     1     -22.694  -7.921  -0.258  1.00  0.00     0.000 C 
BRANCH  15  16
HETATM   16  C   UNL     1     -22.236  -8.091   1.184  1.00  0.00     0.002 C 
BRANCH  16  17
HETATM   17  C   UNL     1     -20.974  -8.950   1.265  1.00  0.00     0.027 C 
BRANCH  17  18
HETATM   18  C   UNL     1     -21.196 -10.309   0.628  1.00  0.00     0.178 C 
BRANCH  18  19
HETATM   19  O   UNL     1     -20.300 -10.501  -0.480  1.00  0.00    -0.321 OA
BRANCH  19  20
HETATM   20  C   UNL     1     -20.816 -11.240  -1.501  1.00  0.00     0.266 C 
HETATM   21  O   UNL     1     -21.451 -12.291  -1.331  1.00  0.00    -0.264 OA
BRANCH  20  22
HETATM   22  C   UNL     1     -20.536 -10.624  -2.871  1.00  0.00     0.037 C 
HETATM   23  C   UNL     1     -21.835 -10.110  -3.503  1.00  0.00     0.025 C 
HETATM   24  C   UNL     1     -19.541  -9.454  -2.741  1.00  0.00     0.025 C 
HETATM   25  C   UNL     1     -19.918 -11.682  -3.791  1.00  0.00     0.025 C 
ENDBRANCH  20  22
ENDBRANCH  19  20
ENDBRANCH  18  19
ENDBRANCH  17  18
ENDBRANCH  16  17
ENDBRANCH  15  16
ENDBRANCH  14  15
ENDBRANCH   1  14
TORSDOF 18
BEGIN_RES ARG D 557
REMARK  4 active torsions:
REMARK  status: ('A' for Active; 'I' for Inactive)
REMARK    1  A    between atoms: CA   and  CB  
REMARK    2  A    between atoms: CB   and  CG  
REMARK    3  A    between atoms: CG   and  CD  
REMARK    4  A    between atoms: CD   and  NE  
REMARK       I    between atoms: NE   and  CZ  
REMARK       I    between atoms: CZ   and  NH1 
REMARK       I    between atoms: CZ   and  NH2 
ROOT
ATOM      1  CA  ARG D 557     -26.217   2.705 -17.014  1.00 35.49     0.159 C 
ENDROOT
BRANCH   1   2
ATOM      2  CB  ARG D 557     -26.789   1.319 -17.183  1.00 35.49     0.034 C 
BRANCH   2   3
ATOM      3  CG  ARG D 557     -28.232   1.226 -17.434  1.00 35.49     0.027 C 
BRANCH   3   4
ATOM      4  CD  ARG D 557     -28.909   0.298 -16.499  1.00 35.49     0.116 C 
BRANCH   4   5
ATOM      5  NE  ARG D 557     -29.308  -0.926 -17.143  1.00 35.49    -0.212 N 
ATOM      6  CZ  ARG D 557     -28.686  -2.080 -17.053  1.00 35.49     0.666 C 
ATOM      7  NH1 ARG D 557     -27.582  -2.237 -16.345  1.00 35.49    -0.235 N 
ATOM      8  NH2 ARG D 557     -29.202  -3.092 -17.688  1.00 35.49    -0.235 N 
ATOM      9  HH  ARG D 557     -27.226  -1.585 -15.917  1.00 35.49     0.174 HD
ATOM     10  HH  ARG D 557     -27.221  -3.014 -16.321  1.00 35.49     0.174 HD
ATOM     11  HH  ARG D 557     -29.919  -2.962 -18.131  1.00 35.49     0.174 HD
ATOM     12  HH  ARG D 557     -28.831  -3.853 -17.650  1.00 35.49     0.174 HD
ATOM     13  HE  ARG D 557     -29.968  -0.899 -17.678  1.00 35.49     0.178 HD
ENDBRANCH   4   5
ENDBRANCH   3   4
ENDBRANCH   2   3
ENDBRANCH   1   2
END_RES ARG D 557
BEGIN_RES GLU D 570
REMARK  3 active torsions:
REMARK  status: ('A' for Active; 'I' for Inactive)
REMARK    5  A    between atoms: CA   and  CB  
REMARK    6  A    between atoms: CB   and  CG  
REMARK    7  A    between atoms: CG   and  CD  
ROOT
ATOM     14  CA  GLU D 570     -18.033  -6.348 -13.375  1.00 32.92     0.160 C 
ENDROOT
BRANCH  14  15
ATOM     15  CB  GLU D 570     -19.500  -6.345 -13.794  1.00 32.92     0.043 C 
BRANCH  15  16
ATOM     16  CG  GLU D 570     -19.815  -5.917 -15.182  1.00 32.92     0.100 C 
BRANCH  16  17
ATOM     17  CD  GLU D 570     -21.286  -5.646 -15.396  1.00 32.92     0.185 C 
ATOM     18  OE1 GLU D 570     -22.123  -6.302 -14.746  1.00 32.92    -0.647 OA
ATOM     19  OE2 GLU D 570     -21.605  -4.781 -16.234  1.00 32.92    -0.647 OA
ENDBRANCH  16  17
ENDBRANCH  15  16
ENDBRANCH  14  15
END_RES GLU D 570
ENDMDL
MODEL 5
REMARK VINA RESULT:      -7.1      3.218      9.684
REMARK  18 active torsions:
REMARK  status: ('A' for Active; 'I' for Inactive)
REMARK    1  A    between atoms: C_2  and  C_4 
REMARK    2  A    between atoms: C_4  and  C_5 
REMARK    3  A    between atoms: C_5  and  C_6 
REMARK    4  A    between atoms: C_6  and  C_7 
REMARK    5  A    between atoms: C_7  and  C_8 
REMARK    6  A    between atoms: C_8  and  C_9 
REMARK    7  A    between atoms: C_9  and  C_10 
REMARK    8  A    between atoms: C_10  and  C_11 
REMARK    9  A    between atoms: C_11  and  C_12 
REMARK   10  A    between atoms: C_12  and  C_13 
REMARK   11  A    between atoms: C_13  and  C_14 
REMARK   12  A    between atoms: C_14  and  C_15 
REMARK   13  A    between atoms: C_15  and  C_16 
REMARK   14  A    between atoms: C_16  and  C_17 
REMARK   15  A    between atoms: C_17  and  C_18 
REMARK   16  A    between atoms: C_18  and  O_19 
REMARK   17  A    between atoms: O_19  and  C_20 
REMARK   18  A    between atoms: C_20  and  C_22 
ROOT
HETATM    1  C   UNL     1     -21.305  -6.963  -2.626  1.00  0.00     0.000 C 
ENDROOT
BRANCH   1   2
HETATM    2  C   UNL     1     -21.114  -6.035  -3.812  1.00  0.00     0.000 C 
BRANCH   2   3
HETATM    3  C   UNL     1     -21.327  -6.801  -5.104  1.00  0.00     0.000 C 
BRANCH   3   4
HETATM    4  C   UNL     1     -20.829  -5.979  -6.279  1.00  0.00     0.000 C 
BRANCH   4   5
HETATM    5  C   UNL     1     -21.900  -4.995  -6.710  1.00  0.00     0.000 C 
BRANCH   5   6
HETATM    6  C   UNL     1     -21.873  -4.840  -8.217  1.00  0.00     0.000 C 
BRANCH   6   7
HETATM    7  C   UNL     1     -20.442  -4.874  -8.712  1.00  0.00     0.000 C 
BRANCH   7   8
HETATM    8  C   UNL     1     -20.273  -3.881  -9.846  1.00  0.00     0.000 C 
BRANCH   8   9
HETATM    9  C   UNL     1     -21.087  -4.344 -11.036  1.00  0.00     0.000 C 
BRANCH   9  10
HETATM   10  C   UNL     1     -21.754  -3.164 -11.726  1.00  0.00     0.004 C 
BRANCH  10  11
HETATM   11  C   UNL     1     -23.220  -3.466 -12.056  1.00  0.00    -0.023 C 
HETATM   12  C   UNL     1     -23.337  -4.877 -12.625  1.00  0.00     0.009 C 
HETATM   13  C   UNL     1     -24.109  -3.333 -10.819  1.00  0.00     0.009 C 
ENDBRANCH  10  11
ENDBRANCH   9  10
ENDBRANCH   8   9
ENDBRANCH   7   8
ENDBRANCH   6   7
ENDBRANCH   5   6
ENDBRANCH   4   5
ENDBRANCH   3   4
ENDBRANCH   2   3
ENDBRANCH   1   2
BRANCH   1  14
HETATM   14  C   UNL     1     -22.320  -6.377  -1.668  1.00  0.00     0.000 C 
BRANCH  14  15
HETATM   15  C   UNL     1     -22.481  -7.273  -0.447  1.00  0.00     0.000 C 
BRANCH  15  16
HETATM   16  C   UNL     1     -21.279  -8.193  -0.289  1.00  0.00     0.002 C 
BRANCH  16  17
HETATM   17  C   UNL     1     -21.211  -8.773   1.123  1.00  0.00     0.027 C 
BRANCH  17  18
HETATM   18  C   UNL     1     -20.596 -10.161   1.114  1.00  0.00     0.178 C 
BRANCH  18  19
HETATM   19  O   UNL     1     -21.030 -10.899  -0.042  1.00  0.00    -0.321 OA
BRANCH  19  20
HETATM   20  C   UNL     1     -22.009 -11.812   0.207  1.00  0.00     0.266 C 
HETATM   21  O   UNL     1     -21.919 -12.690   1.077  1.00  0.00    -0.264 OA
BRANCH  20  22
HETATM   22  C   UNL     1     -23.229 -11.625  -0.693  1.00  0.00     0.037 C 
HETATM   23  C   UNL     1     -22.806 -11.069  -2.059  1.00  0.00     0.025 C 
HETATM   24  C   UNL     1     -23.957 -12.968  -0.899  1.00  0.00     0.025 C 
HETATM   25  C   UNL     1     -24.205 -10.644  -0.037  1.00  0.00     0.025 C 
ENDBRANCH  20  22
ENDBRANCH  19  20
ENDBRANCH  18  19
ENDBRANCH  17  18
ENDBRANCH  16  17
ENDBRANCH  15  16
ENDBRANCH  14  15
ENDBRANCH   1  14
TORSDOF 18
BEGIN_RES ARG D 557
REMARK  4 active torsions:
REMARK  status: ('A' for Active; 'I' for Inactive)
REMARK    1  A    between atoms: CA   and  CB  
REMARK    2  A    between atoms: CB   and  CG  
REMARK    3  A    between atoms: CG   and  CD  
REMARK    4  A    between atoms: CD   and  NE  
REMARK       I    between atoms: NE   and  CZ  
REMARK       I    between atoms: CZ   and  NH1 
REMARK       I    between atoms: CZ   and  NH2 
ROOT
ATOM      1  CA  ARG D 557     -26.217   2.705 -17.014  1.00 35.49     0.159 C 
ENDROOT
BRANCH   1   2
ATOM      2  CB  ARG D 557     -26.789   1.319 -17.183  1.00 35.49     0.034 C 
BRANCH   2   3
ATOM      3  CG  ARG D 557     -28.231   1.227 -17.444  1.00 35.49     0.027 C 
BRANCH   3   4
ATOM      4  CD  ARG D 557     -28.915   0.301 -16.513  1.00 35.49     0.116 C 
BRANCH   4   5
ATOM      5  NE  ARG D 557     -29.304  -0.926 -17.157  1.00 35.49    -0.212 N 
ATOM      6  CZ  ARG D 557     -28.691  -2.083 -17.040  1.00 35.49     0.666 C 
ATOM      7  NH1 ARG D 557     -27.607  -2.240 -16.305  1.00 35.49    -0.235 N 
ATOM      8  NH2 ARG D 557     -29.197  -3.097 -17.680  1.00 35.49    -0.235 N 
ATOM      9  HH  ARG D 557     -27.258  -1.586 -15.874  1.00 35.49     0.174 HD
ATOM     10  HH  ARG D 557     -27.251  -3.018 -16.264  1.00 35.49     0.174 HD
ATOM     11  HH  ARG D 557     -29.903  -2.968 -18.141  1.00 35.49     0.174 HD
ATOM     12  HH  ARG D 557     -28.832  -3.860 -17.626  1.00 35.49     0.174 HD
ATOM     13  HE  ARG D 557     -29.952  -0.900 -17.708  1.00 35.49     0.178 HD
ENDBRANCH   4   5
ENDBRANCH   3   4
ENDBRANCH   2   3
ENDBRANCH   1   2
END_RES ARG D 557
BEGIN_RES GLU D 570
REMARK  3 active torsions:
REMARK  status: ('A' for Active; 'I' for Inactive)
REMARK    5  A    between atoms: CA   and  CB  
REMARK    6  A    between atoms: CB   and  CG  
REMARK    7  A    between atoms: CG   and  CD  
ROOT
ATOM     14  CA  GLU D 570     -18.033  -6.348 -13.375  1.00 32.92     0.160 C 
ENDROOT
BRANCH  14  15
ATOM     15  CB  GLU D 570     -19.500  -6.345 -13.794  1.00 32.92     0.043 C 
BRANCH  15  16
ATOM     16  CG  GLU D 570     -20.105  -7.647 -14.176  1.00 32.92     0.100 C 
BRANCH  16  17
ATOM     17  CD  GLU D 570     -20.994  -7.549 -15.395  1.00 32.92     0.185 C 
ATOM     18  OE1 GLU D 570     -21.099  -8.535 -16.148  1.00 32.92    -0.647 OA
ATOM     19  OE2 GLU D 570     -21.578  -6.468 -15.606  1.00 32.92    -0.647 OA
ENDBRANCH  16  17
ENDBRANCH  15  16
ENDBRANCH  14  15
END_RES GLU D 570
ENDMDL
MODEL 6
REMARK VINA RESULT:      -7.0      1.606      3.195
REMARK  18 active torsions:
REMARK  status: ('A' for Active; 'I' for Inactive)
REMARK    1  A    between atoms: C_2  and  C_4 
REMARK    2  A    between atoms: C_4  and  C_5 
REMARK    3  A    between atoms: C_5  and  C_6 
REMARK    4  A    between atoms: C_6  and  C_7 
REMARK    5  A    between atoms: C_7  and  C_8 
REMARK    6  A    between atoms: C_8  and  C_9 
REMARK    7  A    between atoms: C_9  and  C_10 
REMARK    8  A    between atoms: C_10  and  C_11 
REMARK    9  A    between atoms: C_11  and  C_12 
REMARK   10  A    between atoms: C_12  and  C_13 
REMARK   11  A    between atoms: C_13  and  C_14 
REMARK   12  A    between atoms: C_14  and  C_15 
REMARK   13  A    between atoms: C_15  and  C_16 
REMARK   14  A    between atoms: C_16  and  C_17 
REMARK   15  A    between atoms: C_17  and  C_18 
REMARK   16  A    between atoms: C_18  and  O_19 
REMARK   17  A    between atoms: O_19  and  C_20 
REMARK   18  A    between atoms: C_20  and  C_22 
ROOT
HETATM    1  C   UNL     1     -21.470  -8.328  -4.653  1.00  0.00     0.000 C 
ENDROOT
BRANCH   1   2
HETATM    2  C   UNL     1     -20.435  -9.199  -3.965  1.00  0.00     0.000 C 
BRANCH   2   3
HETATM    3  C   UNL     1     -20.971 -10.609  -3.806  1.00  0.00     0.000 C 
BRANCH   3   4
HETATM    4  C   UNL     1     -22.438 -10.562  -3.421  1.00  0.00     0.000 C 
BRANCH   4   5
HETATM    5  C   UNL     1     -22.762 -11.714  -2.489  1.00  0.00     0.000 C 
BRANCH   5   6
HETATM    6  C   UNL     1     -23.606 -11.213  -1.334  1.00  0.00     0.000 C 
BRANCH   6   7
HETATM    7  C   UNL     1     -22.909 -11.506  -0.022  1.00  0.00     0.000 C 
BRANCH   7   8
HETATM    8  C   UNL     1     -21.451 -11.098  -0.120  1.00  0.00     0.000 C 
BRANCH   8   9
HETATM    9  C   UNL     1     -21.256  -9.779   0.596  1.00  0.00     0.000 C 
BRANCH   9  10
HETATM   10  C   UNL     1     -21.062  -8.647  -0.402  1.00  0.00     0.004 C 
BRANCH  10  11
HETATM   11  C   UNL     1     -22.389  -7.945  -0.716  1.00  0.00    -0.023 C 
HETATM   12  C   UNL     1     -23.217  -7.821   0.560  1.00  0.00     0.009 C 
HETATM   13  C   UNL     1     -22.157  -6.558  -1.318  1.00  0.00     0.009 C 
ENDBRANCH  10  11
ENDBRANCH   9  10
ENDBRANCH   8   9
ENDBRANCH   7   8
ENDBRANCH   6   7
ENDBRANCH   5   6
ENDBRANCH   4   5
ENDBRANCH   3   4
ENDBRANCH   2   3
ENDBRANCH   1   2
BRANCH   1  14
HETATM   14  C   UNL     1     -20.784  -7.232  -5.441  1.00  0.00     0.000 C 
BRANCH  14  15
HETATM   15  C   UNL     1     -21.166  -5.863  -4.894  1.00  0.00     0.000 C 
BRANCH  15  16
HETATM   16  C   UNL     1     -20.346  -4.767  -5.560  1.00  0.00     0.002 C 
BRANCH  16  17
HETATM   17  C   UNL     1     -20.439  -4.855  -7.083  1.00  0.00     0.027 C 
BRANCH  17  18
HETATM   18  C   UNL     1     -21.676  -4.142  -7.596  1.00  0.00     0.178 C 
BRANCH  18  19
HETATM   19  O   UNL     1     -22.177  -4.787  -8.781  1.00  0.00    -0.321 OA
BRANCH  19  20
HETATM   20  C   UNL     1     -22.972  -4.000  -9.558  1.00  0.00     0.266 C 
HETATM   21  O   UNL     1     -23.917  -3.333  -9.113  1.00  0.00    -0.264 OA
BRANCH  20  22
HETATM   22  C   UNL     1     -22.560  -4.022 -11.029  1.00  0.00     0.037 C 
HETATM   23  C   UNL     1     -21.069  -4.351 -11.163  1.00  0.00     0.025 C 
HETATM   24  C   UNL     1     -23.380  -5.076 -11.801  1.00  0.00     0.025 C 
HETATM   25  C   UNL     1     -22.827  -2.651 -11.657  1.00  0.00     0.025 C 
ENDBRANCH  20  22
ENDBRANCH  19  20
ENDBRANCH  18  19
ENDBRANCH  17  18
ENDBRANCH  16  17
ENDBRANCH  15  16
ENDBRANCH  14  15
ENDBRANCH   1  14
TORSDOF 18
BEGIN_RES ARG D 557
REMARK  4 active torsions:
REMARK  status: ('A' for Active; 'I' for Inactive)
REMARK    1  A    between atoms: CA   and  CB  
REMARK    2  A    between atoms: CB   and  CG  
REMARK    3  A    between atoms: CG   and  CD  
REMARK    4  A    between atoms: CD   and  NE  
REMARK       I    between atoms: NE   and  CZ  
REMARK       I    between atoms: CZ   and  NH1 
REMARK       I    between atoms: CZ   and  NH2 
ROOT
ATOM      1  CA  ARG D 557     -26.217   2.705 -17.014  1.00 35.49     0.159 C 
ENDROOT
BRANCH   1   2
ATOM      2  CB  ARG D 557     -26.789   1.319 -17.183  1.00 35.49     0.034 C 
BRANCH   2   3
ATOM      3  CG  ARG D 557     -28.225   1.160 -16.922  1.00 35.49     0.027 C 
BRANCH   3   4
ATOM      4  CD  ARG D 557     -28.604  -0.252 -16.691  1.00 35.49     0.116 C 
BRANCH   4   5
ATOM      5  NE  ARG D 557     -27.592  -0.974 -15.965  1.00 35.49    -0.212 N 
ATOM      6  CZ  ARG D 557     -27.377  -2.269 -16.028  1.00 35.49     0.666 C 
ATOM      7  NH1 ARG D 557     -28.104  -3.072 -16.782  1.00 35.49    -0.235 N 
ATOM      8  NH2 ARG D 557     -26.401  -2.751 -15.315  1.00 35.49    -0.235 N 
ATOM      9  HH  ARG D 557     -28.750  -2.776 -17.261  1.00 35.49     0.174 HD
ATOM     10  HH  ARG D 557     -27.916  -3.908 -16.786  1.00 35.49     0.174 HD
ATOM     11  HH  ARG D 557     -25.944  -2.207 -14.842  1.00 35.49     0.174 HD
ATOM     12  HH  ARG D 557     -26.230  -3.581 -15.332  1.00 35.49     0.174 HD
ATOM     13  HE  ARG D 557     -27.125  -0.545 -15.398  1.00 35.49     0.178 HD
ENDBRANCH   4   5
ENDBRANCH   3   4
ENDBRANCH   2   3
ENDBRANCH   1   2
END_RES ARG D 557
BEGIN_RES GLU D 570
REMARK  3 active torsions:
REMARK  status: ('A' for Active; 'I' for Inactive)
REMARK    5  A    between atoms: CA   and  CB  
REMARK    6  A    between atoms: CB   and  CG  
REMARK    7  A    between atoms: CG   and  CD  
ROOT
ATOM     14  CA  GLU D 570     -18.033  -6.348 -13.375  1.00 32.92     0.160 C 
ENDROOT
BRANCH  14  15
ATOM     15  CB  GLU D 570     -19.500  -6.345 -13.794  1.00 32.92     0.043 C 
BRANCH  15  16
ATOM     16  CG  GLU D 570     -19.796  -6.291 -15.249  1.00 32.92     0.100 C 
BRANCH  16  17
ATOM     17  CD  GLU D 570     -21.027  -5.474 -15.570  1.00 32.92     0.185 C 
ATOM     18  OE1 GLU D 570     -21.569  -4.815 -14.662  1.00 32.92    -0.647 OA
ATOM     19  OE2 GLU D 570     -21.462  -5.508 -16.738  1.00 32.92    -0.647 OA
ENDBRANCH  16  17
ENDBRANCH  15  16
ENDBRANCH  14  15
END_RES GLU D 570
ENDMDL
MODEL 7
REMARK VINA RESULT:      -6.9      3.417      7.333
REMARK  18 active torsions:
REMARK  status: ('A' for Active; 'I' for Inactive)
REMARK    1  A    between atoms: C_2  and  C_4 
REMARK    2  A    between atoms: C_4  and  C_5 
REMARK    3  A    between atoms: C_5  and  C_6 
REMARK    4  A    between atoms: C_6  and  C_7 
REMARK    5  A    between atoms: C_7  and  C_8 
REMARK    6  A    between atoms: C_8  and  C_9 
REMARK    7  A    between atoms: C_9  and  C_10 
REMARK    8  A    between atoms: C_10  and  C_11 
REMARK    9  A    between atoms: C_11  and  C_12 
REMARK   10  A    between atoms: C_12  and  C_13 
REMARK   11  A    between atoms: C_13  and  C_14 
REMARK   12  A    between atoms: C_14  and  C_15 
REMARK   13  A    between atoms: C_15  and  C_16 
REMARK   14  A    between atoms: C_16  and  C_17 
REMARK   15  A    between atoms: C_17  and  C_18 
REMARK   16  A    between atoms: C_18  and  O_19 
REMARK   17  A    between atoms: O_19  and  C_20 
REMARK   18  A    between atoms: C_20  and  C_22 
ROOT
HETATM    1  C   UNL     1     -22.505  -4.212 -14.140  1.00  0.00     0.000 C 
ENDROOT
BRANCH   1   2
HETATM    2  C   UNL     1     -22.423  -3.288 -12.938  1.00  0.00     0.000 C 
BRANCH   2   3
HETATM    3  C   UNL     1     -21.605  -3.942 -11.840  1.00  0.00     0.000 C 
BRANCH   3   4
HETATM    4  C   UNL     1     -22.084  -3.462 -10.484  1.00  0.00     0.000 C 
BRANCH   4   5
HETATM    5  C   UNL     1     -22.778  -4.594  -9.751  1.00  0.00     0.000 C 
BRANCH   5   6
HETATM    6  C   UNL     1     -22.502  -4.485  -8.265  1.00  0.00     0.000 C 
BRANCH   6   7
HETATM    7  C   UNL     1     -21.097  -4.965  -7.966  1.00  0.00     0.000 C 
BRANCH   7   8
HETATM    8  C   UNL     1     -20.596  -4.309  -6.693  1.00  0.00     0.000 C 
BRANCH   8   9
HETATM    9  C   UNL     1     -20.253  -5.384  -5.684  1.00  0.00     0.000 C 
BRANCH   9  10
HETATM   10  C   UNL     1     -21.512  -5.924  -5.021  1.00  0.00     0.004 C 
BRANCH  10  11
HETATM   11  C   UNL     1     -21.173  -6.805  -3.813  1.00  0.00    -0.023 C 
HETATM   12  C   UNL     1     -21.892  -6.275  -2.575  1.00  0.00     0.009 C 
HETATM   13  C   UNL     1     -21.569  -8.261  -4.056  1.00  0.00     0.009 C 
ENDBRANCH  10  11
ENDBRANCH   9  10
ENDBRANCH   8   9
ENDBRANCH   7   8
ENDBRANCH   6   7
ENDBRANCH   5   6
ENDBRANCH   4   5
ENDBRANCH   3   4
ENDBRANCH   2   3
ENDBRANCH   1   2
BRANCH   1  14
HETATM   14  C   UNL     1     -23.151  -5.522 -13.743  1.00  0.00     0.000 C 
BRANCH  14  15
HETATM   15  C   UNL     1     -24.378  -5.795 -14.603  1.00  0.00     0.000 C 
BRANCH  15  16
HETATM   16  C   UNL     1     -24.059  -6.806 -15.695  1.00  0.00     0.002 C 
BRANCH  16  17
HETATM   17  C   UNL     1     -25.285  -7.083 -16.565  1.00  0.00     0.027 C 
BRANCH  17  18
HETATM   18  C   UNL     1     -26.567  -6.744 -15.827  1.00  0.00     0.178 C 
BRANCH  18  19
HETATM   19  O   UNL     1     -27.456  -5.996 -16.676  1.00  0.00    -0.321 OA
BRANCH  19  20
HETATM   20  C   UNL     1     -28.748  -5.960 -16.245  1.00  0.00     0.266 C 
HETATM   21  O   UNL     1     -29.067  -5.852 -15.053  1.00  0.00    -0.264 OA
BRANCH  20  22
HETATM   22  C   UNL     1     -29.751  -6.055 -17.393  1.00  0.00     0.037 C 
HETATM   23  C   UNL     1     -31.037  -5.296 -17.045  1.00  0.00     0.025 C 
HETATM   24  C   UNL     1     -29.151  -5.462 -18.684  1.00  0.00     0.025 C 
HETATM   25  C   UNL     1     -30.095  -7.525 -17.653  1.00  0.00     0.025 C 
ENDBRANCH  20  22
ENDBRANCH  19  20
ENDBRANCH  18  19
ENDBRANCH  17  18
ENDBRANCH  16  17
ENDBRANCH  15  16
ENDBRANCH  14  15
ENDBRANCH   1  14
TORSDOF 18
BEGIN_RES ARG D 557
REMARK  4 active torsions:
REMARK  status: ('A' for Active; 'I' for Inactive)
REMARK    1  A    between atoms: CA   and  CB  
REMARK    2  A    between atoms: CB   and  CG  
REMARK    3  A    between atoms: CG   and  CD  
REMARK    4  A    between atoms: CD   and  NE  
REMARK       I    between atoms: NE   and  CZ  
REMARK       I    between atoms: CZ   and  NH1 
REMARK       I    between atoms: CZ   and  NH2 
ROOT
ATOM      1  CA  ARG D 557     -26.217   2.705 -17.014  1.00 35.49     0.159 C 
ENDROOT
BRANCH   1   2
ATOM      2  CB  ARG D 557     -26.789   1.319 -17.183  1.00 35.49     0.034 C 
BRANCH   2   3
ATOM      3  CG  ARG D 557     -28.222   1.158 -16.909  1.00 35.49     0.027 C 
BRANCH   3   4
ATOM      4  CD  ARG D 557     -28.570  -0.227 -16.518  1.00 35.49     0.116 C 
BRANCH   4   5
ATOM      5  NE  ARG D 557     -27.494  -0.879 -15.817  1.00 35.49    -0.212 N 
ATOM      6  CZ  ARG D 557     -27.200  -2.158 -15.881  1.00 35.49     0.666 C 
ATOM      7  NH1 ARG D 557     -27.896  -3.011 -16.611  1.00 35.49    -0.235 N 
ATOM      8  NH2 ARG D 557     -26.176  -2.573 -15.194  1.00 35.49    -0.235 N 
ATOM      9  HH  ARG D 557     -28.573  -2.759 -17.072  1.00 35.49     0.174 HD
ATOM     10  HH  ARG D 557     -27.656  -3.833 -16.616  1.00 35.49     0.174 HD
ATOM     11  HH  ARG D 557     -25.740  -1.999 -14.738  1.00 35.49     0.174 HD
ATOM     12  HH  ARG D 557     -25.953  -3.391 -15.213  1.00 35.49     0.174 HD
ATOM     13  HE  ARG D 557     -27.039  -0.418 -15.267  1.00 35.49     0.178 HD
ENDBRANCH   4   5
ENDBRANCH   3   4
ENDBRANCH   2   3
ENDBRANCH   1   2
END_RES ARG D 557
BEGIN_RES GLU D 570
REMARK  3 active torsions:
REMARK  status: ('A' for Active; 'I' for Inactive)
REMARK    5  A    between atoms: CA   and  CB  
REMARK    6  A    between atoms: CB   and  CG  
REMARK    7  A    between atoms: CG   and  CD  
ROOT
ATOM     14  CA  GLU D 570     -18.033  -6.348 -13.375  1.00 32.92     0.160 C 
ENDROOT
BRANCH  14  15
ATOM     15  CB  GLU D 570     -19.500  -6.345 -13.794  1.00 32.92     0.043 C 
BRANCH  15  16
ATOM     16  CG  GLU D 570     -20.093  -7.639 -14.220  1.00 32.92     0.100 C 
BRANCH  16  17
ATOM     17  CD  GLU D 570     -20.542  -7.634 -15.663  1.00 32.92     0.185 C 
ATOM     18  OE1 GLU D 570     -20.663  -6.545 -16.256  1.00 32.92    -0.647 OA
ATOM     19  OE2 GLU D 570     -20.793  -8.731 -16.201  1.00 32.92    -0.647 OA
ENDBRANCH  16  17
ENDBRANCH  15  16
ENDBRANCH  14  15
END_RES GLU D 570
ENDMDL
MODEL 8
REMARK VINA RESULT:      -6.9      1.498      2.124
REMARK  18 active torsions:
REMARK  status: ('A' for Active; 'I' for Inactive)
REMARK    1  A    between atoms: C_2  and  C_4 
REMARK    2  A    between atoms: C_4  and  C_5 
REMARK    3  A    between atoms: C_5  and  C_6 
REMARK    4  A    between atoms: C_6  and  C_7 
REMARK    5  A    between atoms: C_7  and  C_8 
REMARK    6  A    between atoms: C_8  and  C_9 
REMARK    7  A    between atoms: C_9  and  C_10 
REMARK    8  A    between atoms: C_10  and  C_11 
REMARK    9  A    between atoms: C_11  and  C_12 
REMARK   10  A    between atoms: C_12  and  C_13 
REMARK   11  A    between atoms: C_13  and  C_14 
REMARK   12  A    between atoms: C_14  and  C_15 
REMARK   13  A    between atoms: C_15  and  C_16 
REMARK   14  A    between atoms: C_16  and  C_17 
REMARK   15  A    between atoms: C_17  and  C_18 
REMARK   16  A    between atoms: C_18  and  O_19 
REMARK   17  A    between atoms: O_19  and  C_20 
REMARK   18  A    between atoms: C_20  and  C_22 
ROOT
HETATM    1  C   UNL     1     -21.473  -6.399  -4.574  1.00  0.00     0.000 C 
ENDROOT
BRANCH   1   2
HETATM    2  C   UNL     1     -21.172  -7.260  -3.360  1.00  0.00     0.000 C 
BRANCH   2   3
HETATM    3  C   UNL     1     -21.847  -6.674  -2.135  1.00  0.00     0.000 C 
BRANCH   3   4
HETATM    4  C   UNL     1     -21.660  -7.603  -0.950  1.00  0.00     0.000 C 
BRANCH   4   5
HETATM    5  C   UNL     1     -22.767  -7.376   0.061  1.00  0.00     0.000 C 
BRANCH   5   6
HETATM    6  C   UNL     1     -23.319  -8.712   0.521  1.00  0.00     0.000 C 
BRANCH   6   7
HETATM    7  C   UNL     1     -22.482  -9.837  -0.049  1.00  0.00     0.000 C 
BRANCH   7   8
HETATM    8  C   UNL     1     -23.346 -11.071  -0.229  1.00  0.00     0.000 C 
BRANCH   8   9
HETATM    9  C   UNL     1     -23.704 -11.217  -1.693  1.00  0.00     0.000 C 
BRANCH   9  10
HETATM   10  C   UNL     1     -22.588 -10.680  -2.577  1.00  0.00     0.004 C 
BRANCH  10  11
HETATM   11  C   UNL     1     -22.389 -11.557  -3.819  1.00  0.00    -0.023 C 
HETATM   12  C   UNL     1     -21.461 -10.848  -4.802  1.00  0.00     0.009 C 
HETATM   13  C   UNL     1     -21.804 -12.921  -3.450  1.00  0.00     0.009 C 
ENDBRANCH  10  11
ENDBRANCH   9  10
ENDBRANCH   8   9
ENDBRANCH   7   8
ENDBRANCH   6   7
ENDBRANCH   5   6
ENDBRANCH   4   5
ENDBRANCH   3   4
ENDBRANCH   2   3
ENDBRANCH   1   2
BRANCH   1  14
HETATM   14  C   UNL     1     -20.440  -6.648  -5.654  1.00  0.00     0.000 C 
BRANCH  14  15
HETATM   15  C   UNL     1     -20.288  -5.419  -6.540  1.00  0.00     0.000 C 
BRANCH  15  16
HETATM   16  C   UNL     1     -21.294  -5.447  -7.682  1.00  0.00     0.002 C 
BRANCH  16  17
HETATM   17  C   UNL     1     -21.819  -4.045  -7.990  1.00  0.00     0.027 C 
BRANCH  17  18
HETATM   18  C   UNL     1     -23.276  -4.088  -8.412  1.00  0.00     0.178 C 
BRANCH  18  19
HETATM   19  O   UNL     1     -23.399  -4.586  -9.756  1.00  0.00    -0.321 OA
BRANCH  19  20
HETATM   20  C   UNL     1     -24.143  -3.798 -10.582  1.00  0.00     0.266 C 
HETATM   21  O   UNL     1     -25.203  -3.256 -10.237  1.00  0.00    -0.264 OA
BRANCH  20  22
HETATM   22  C   UNL     1     -23.520  -3.651 -11.970  1.00  0.00     0.037 C 
HETATM   23  C   UNL     1     -24.418  -2.794 -12.871  1.00  0.00     0.025 C 
HETATM   24  C   UNL     1     -22.131  -2.992 -11.868  1.00  0.00     0.025 C 
HETATM   25  C   UNL     1     -23.352  -5.035 -12.605  1.00  0.00     0.025 C 
ENDBRANCH  20  22
ENDBRANCH  19  20
ENDBRANCH  18  19
ENDBRANCH  17  18
ENDBRANCH  16  17
ENDBRANCH  15  16
ENDBRANCH  14  15
ENDBRANCH   1  14
TORSDOF 18
BEGIN_RES ARG D 557
REMARK  4 active torsions:
REMARK  status: ('A' for Active; 'I' for Inactive)
REMARK    1  A    between atoms: CA   and  CB  
REMARK    2  A    between atoms: CB   and  CG  
REMARK    3  A    between atoms: CG   and  CD  
REMARK    4  A    between atoms: CD   and  NE  
REMARK       I    between atoms: NE   and  CZ  
REMARK       I    between atoms: CZ   and  NH1 
REMARK       I    between atoms: CZ   and  NH2 
ROOT
ATOM      1  CA  ARG D 557     -26.217   2.705 -17.014  1.00 35.49     0.159 C 
ENDROOT
BRANCH   1   2
ATOM      2  CB  ARG D 557     -26.789   1.319 -17.183  1.00 35.49     0.034 C 
BRANCH   2   3
ATOM      3  CG  ARG D 557     -28.188   1.128 -16.781  1.00 35.49     0.027 C 
BRANCH   3   4
ATOM      4  CD  ARG D 557     -28.717  -0.193 -17.191  1.00 35.49     0.116 C 
BRANCH   4   5
ATOM      5  NE  ARG D 557     -27.999  -1.279 -16.578  1.00 35.49    -0.212 N 
ATOM      6  CZ  ARG D 557     -28.227  -2.558 -16.774  1.00 35.49     0.666 C 
ATOM      7  NH1 ARG D 557     -29.184  -2.994 -17.572  1.00 35.49    -0.235 N 
ATOM      8  NH2 ARG D 557     -27.463  -3.407 -16.150  1.00 35.49    -0.235 N 
ATOM      9  HH  ARG D 557     -29.698  -2.453 -17.994  1.00 35.49     0.174 HD
ATOM     10  HH  ARG D 557     -29.285  -3.840 -17.663  1.00 35.49     0.174 HD
ATOM     11  HH  ARG D 557     -26.848  -3.097 -15.646  1.00 35.49     0.174 HD
ATOM     12  HH  ARG D 557     -27.577  -4.240 -16.254  1.00 35.49     0.174 HD
ATOM     13  HE  ARG D 557     -27.412  -1.089 -15.992  1.00 35.49     0.178 HD
ENDBRANCH   4   5
ENDBRANCH   3   4
ENDBRANCH   2   3
ENDBRANCH   1   2
END_RES ARG D 557
BEGIN_RES GLU D 570
REMARK  3 active torsions:
REMARK  status: ('A' for Active; 'I' for Inactive)
REMARK    5  A    between atoms: CA   and  CB  
REMARK    6  A    between atoms: CB   and  CG  
REMARK    7  A    between atoms: CG   and  CD  
ROOT
ATOM     14  CA  GLU D 570     -18.033  -6.348 -13.375  1.00 32.92     0.160 C 
ENDROOT
BRANCH  14  15
ATOM     15  CB  GLU D 570     -19.500  -6.345 -13.794  1.00 32.92     0.043 C 
BRANCH  15  16
ATOM     16  CG  GLU D 570     -19.816  -6.769 -15.182  1.00 32.92     0.100 C 
BRANCH  16  17
ATOM     17  CD  GLU D 570     -20.595  -5.729 -15.954  1.00 32.92     0.185 C 
ATOM     18  OE1 GLU D 570     -20.549  -5.739 -17.199  1.00 32.92    -0.647 OA
ATOM     19  OE2 GLU D 570     -21.244  -4.885 -15.305  1.00 32.92    -0.647 OA
ENDBRANCH  16  17
ENDBRANCH  15  16
ENDBRANCH  14  15
END_RES GLU D 570
ENDMDL
MODEL 9
REMARK VINA RESULT:      -6.8      3.644      9.351
REMARK  18 active torsions:
REMARK  status: ('A' for Active; 'I' for Inactive)
REMARK    1  A    between atoms: C_2  and  C_4 
REMARK    2  A    between atoms: C_4  and  C_5 
REMARK    3  A    between atoms: C_5  and  C_6 
REMARK    4  A    between atoms: C_6  and  C_7 
REMARK    5  A    between atoms: C_7  and  C_8 
REMARK    6  A    between atoms: C_8  and  C_9 
REMARK    7  A    between atoms: C_9  and  C_10 
REMARK    8  A    between atoms: C_10  and  C_11 
REMARK    9  A    between atoms: C_11  and  C_12 
REMARK   10  A    between atoms: C_12  and  C_13 
REMARK   11  A    between atoms: C_13  and  C_14 
REMARK   12  A    between atoms: C_14  and  C_15 
REMARK   13  A    between atoms: C_15  and  C_16 
REMARK   14  A    between atoms: C_16  and  C_17 
REMARK   15  A    between atoms: C_17  and  C_18 
REMARK   16  A    between atoms: C_18  and  O_19 
REMARK   17  A    between atoms: O_19  and  C_20 
REMARK   18  A    between atoms: C_20  and  C_22 
ROOT
HETATM    1  C   UNL     1     -22.290  -6.392  -1.707  1.00  0.00     0.000 C 
ENDROOT
BRANCH   1   2
HETATM    2  C   UNL     1     -21.353  -6.382  -2.902  1.00  0.00     0.000 C 
BRANCH   2   3
HETATM    3  C   UNL     1     -20.690  -7.738  -3.048  1.00  0.00     0.000 C 
BRANCH   3   4
HETATM    4  C   UNL     1     -20.553  -8.090  -4.518  1.00  0.00     0.000 C 
BRANCH   4   5
HETATM    5  C   UNL     1     -21.177  -7.000  -5.368  1.00  0.00     0.000 C 
BRANCH   5   6
HETATM    6  C   UNL     1     -20.186  -6.545  -6.422  1.00  0.00     0.000 C 
BRANCH   6   7
HETATM    7  C   UNL     1     -19.832  -5.090  -6.200  1.00  0.00     0.000 C 
BRANCH   7   8
HETATM    8  C   UNL     1     -21.101  -4.261  -6.148  1.00  0.00     0.000 C 
BRANCH   8   9
HETATM    9  C   UNL     1     -21.344  -3.641  -7.508  1.00  0.00     0.000 C 
BRANCH   9  10
HETATM   10  C   UNL     1     -22.617  -4.192  -8.133  1.00  0.00     0.004 C 
BRANCH  10  11
HETATM   11  C   UNL     1     -22.391  -4.599  -9.594  1.00  0.00    -0.023 C 
HETATM   12  C   UNL     1     -23.736  -4.841 -10.272  1.00  0.00     0.009 C 
HETATM   13  C   UNL     1     -21.613  -3.526 -10.358  1.00  0.00     0.009 C 
ENDBRANCH  10  11
ENDBRANCH   9  10
ENDBRANCH   8   9
ENDBRANCH   7   8
ENDBRANCH   6   7
ENDBRANCH   5   6
ENDBRANCH   4   5
ENDBRANCH   3   4
ENDBRANCH   2   3
ENDBRANCH   1   2
BRANCH   1  14
HETATM   14  C   UNL     1     -22.257  -7.749  -1.036  1.00  0.00     0.000 C 
BRANCH  14  15
HETATM   15  C   UNL     1     -22.396  -7.601   0.474  1.00  0.00     0.000 C 
BRANCH  15  16
HETATM   16  C   UNL     1     -21.503  -8.596   1.200  1.00  0.00     0.002 C 
BRANCH  16  17
HETATM   17  C   UNL     1     -20.678  -9.421   0.211  1.00  0.00     0.027 C 
BRANCH  17  18
HETATM   18  C   UNL     1     -20.411 -10.813   0.751  1.00  0.00     0.178 C 
BRANCH  18  19
HETATM   19  O   UNL     1     -20.936 -11.812  -0.142  1.00  0.00    -0.321 OA
BRANCH  19  20
HETATM   20  C   UNL     1     -22.116 -12.361   0.259  1.00  0.00     0.266 C 
HETATM   21  O   UNL     1     -22.241 -13.035   1.291  1.00  0.00    -0.264 OA
BRANCH  20  22
HETATM   22  C   UNL     1     -23.265 -12.044  -0.698  1.00  0.00     0.037 C 
HETATM   23  C   UNL     1     -24.163 -10.948  -0.112  1.00  0.00     0.025 C 
HETATM   24  C   UNL     1     -22.716 -11.571  -2.059  1.00  0.00     0.025 C 
HETATM   25  C   UNL     1     -24.102 -13.306  -0.929  1.00  0.00     0.025 C 
ENDBRANCH  20  22
ENDBRANCH  19  20
ENDBRANCH  18  19
ENDBRANCH  17  18
ENDBRANCH  16  17
ENDBRANCH  15  16
ENDBRANCH  14  15
ENDBRANCH   1  14
TORSDOF 18
BEGIN_RES ARG D 557
REMARK  4 active torsions:
REMARK  status: ('A' for Active; 'I' for Inactive)
REMARK    1  A    between atoms: CA   and  CB  
REMARK    2  A    between atoms: CB   and  CG  
REMARK    3  A    between atoms: CG   and  CD  
REMARK    4  A    between atoms: CD   and  NE  
REMARK       I    between atoms: NE   and  CZ  
REMARK       I    between atoms: CZ   and  NH1 
REMARK       I    between atoms: CZ   and  NH2 
ROOT
ATOM      1  CA  ARG D 557     -26.217   2.705 -17.014  1.00 35.49     0.159 C 
ENDROOT
BRANCH   1   2
ATOM      2  CB  ARG D 557     -26.789   1.319 -17.183  1.00 35.49     0.034 C 
BRANCH   2   3
ATOM      3  CG  ARG D 557     -25.952   0.200 -16.735  1.00 35.49     0.027 C 
BRANCH   3   4
ATOM      4  CD  ARG D 557     -26.751  -0.914 -16.176  1.00 35.49     0.116 C 
BRANCH   4   5
ATOM      5  NE  ARG D 557     -26.038  -1.635 -15.154  1.00 35.49    -0.212 N 
ATOM      6  CZ  ARG D 557     -24.842  -1.338 -14.698  1.00 35.49     0.666 C 
ATOM      7  NH1 ARG D 557     -24.140  -0.318 -15.158  1.00 35.49    -0.235 N 
ATOM      8  NH2 ARG D 557     -24.356  -2.089 -13.753  1.00 35.49    -0.235 N 
ATOM      9  HH  ARG D 557     -24.441   0.191 -15.778  1.00 35.49     0.174 HD
ATOM     10  HH  ARG D 557     -23.367  -0.171 -14.820  1.00 35.49     0.174 HD
ATOM     11  HH  ARG D 557     -24.834  -2.736 -13.470  1.00 35.49     0.174 HD
ATOM     12  HH  ARG D 557     -23.588  -1.926 -13.431  1.00 35.49     0.174 HD
ATOM     13  HE  ARG D 557     -26.386  -2.350 -14.853  1.00 35.49     0.178 HD
ENDBRANCH   4   5
ENDBRANCH   3   4
ENDBRANCH   2   3
ENDBRANCH   1   2
END_RES ARG D 557
BEGIN_RES GLU D 570
REMARK  3 active torsions:
REMARK  status: ('A' for Active; 'I' for Inactive)
REMARK    5  A    between atoms: CA   and  CB  
REMARK    6  A    between atoms: CB   and  CG  
REMARK    7  A    between atoms: CG   and  CD  
ROOT
ATOM     14  CA  GLU D 570     -18.033  -6.348 -13.375  1.00 32.92     0.160 C 
ENDROOT
BRANCH  14  15
ATOM     15  CB  GLU D 570     -19.500  -6.345 -13.794  1.00 32.92     0.043 C 
BRANCH  15  16
ATOM     16  CG  GLU D 570     -20.438  -5.511 -12.998  1.00 32.92     0.100 C 
BRANCH  16  17
ATOM     17  CD  GLU D 570     -21.752  -5.266 -13.703  1.00 32.92     0.185 C 
ATOM     18  OE1 GLU D 570     -22.287  -6.202 -14.328  1.00 32.92    -0.647 OA
ATOM     19  OE2 GLU D 570     -22.243  -4.122 -13.642  1.00 32.92    -0.647 OA
ENDBRANCH  16  17
ENDBRANCH  15  16
ENDBRANCH  14  15
END_RES GLU D 570
ENDMDL
