MODEL 1
REMARK VINA RESULT:     -10.2      0.000      0.000
REMARK  4 active torsions:
REMARK  status: ('A' for Active; 'I' for Inactive)
REMARK    1  A    between atoms: C_5  and  N_8 
REMARK    2  A    between atoms: N_8  and  C_9 
REMARK    3  A    between atoms: C_12  and  N_15 
REMARK    4  A    between atoms: N_15  and  C_16 
ROOT
HETATM    1  C   UNL     1     -21.020  -9.756  -4.713  1.00  0.00     0.048 C 
HETATM    2  C   UNL     1     -20.932  -8.968  -3.562  1.00  0.00     0.058 C 
HETATM    3  C   UNL     1     -21.149  -7.598  -3.628  1.00  0.00     0.053 C 
HETATM    4  C   UNL     1     -21.018  -6.931  -4.853  1.00  0.00     0.028 C 
HETATM    5  C   UNL     1     -21.091  -7.694  -6.018  1.00  0.00     0.027 C 
HETATM    6  C   UNL     1     -21.175  -9.092  -5.941  1.00  0.00     0.032 C 
HETATM    7  C   UNL     1     -21.789  -6.983  -2.437  1.00  0.00     0.196 C 
HETATM    8  O   UNL     1     -22.504  -5.992  -2.545  1.00  0.00    -0.287 OA
HETATM    9  C   UNL     1     -21.701  -7.682  -1.139  1.00  0.00     0.029 A 
HETATM   10  C   UNL     1     -22.378  -7.195  -0.019  1.00  0.00     0.016 A 
HETATM   11  C   UNL     1     -22.249  -7.849   1.209  1.00  0.00     0.001 A 
HETATM   12  C   UNL     1     -21.412  -8.961   1.330  1.00  0.00     0.001 A 
HETATM   13  C   UNL     1     -20.767  -9.470   0.207  1.00  0.00     0.016 A 
HETATM   14  C   UNL     1     -20.966  -8.860  -1.035  1.00  0.00     0.029 A 
HETATM   15  C   UNL     1     -20.531  -9.539  -2.263  1.00  0.00     0.196 C 
HETATM   16  O   UNL     1     -19.857 -10.562  -2.215  1.00  0.00    -0.286 OA
ENDROOT
BRANCH   1  17
HETATM   17  N   UNL     1     -21.214 -11.157  -4.593  1.00  0.00    -0.355 N 
HETATM   18  H   UNL     1     -21.101 -11.451  -3.613  1.00  0.00     0.166 HD
BRANCH  17  19
HETATM   19  C   UNL     1     -20.686 -12.146  -5.443  1.00  0.00     0.032 A 
HETATM   20  C   UNL     1     -21.369 -12.544  -6.597  1.00  0.00     0.030 A 
HETATM   21  C   UNL     1     -20.818 -13.502  -7.443  1.00  0.00     0.009 A 
HETATM   22  C   UNL     1     -19.565 -14.055  -7.167  1.00  0.00    -0.062 A 
HETATM   23  C   UNL     1     -18.996 -15.128  -8.045  1.00  0.00     0.048 C 
HETATM   24  C   UNL     1     -18.852 -13.607  -6.048  1.00  0.00     0.009 A 
HETATM   25  C   UNL     1     -19.404 -12.645  -5.201  1.00  0.00     0.030 A 
ENDBRANCH  17  19
ENDBRANCH   1  17
BRANCH   4  26
HETATM   26  N   UNL     1     -20.822  -5.524  -4.962  1.00  0.00    -0.259 NA
HETATM   27  H   UNL     1     -20.019  -5.253  -4.391  1.00  0.00     0.134 HD
BRANCH  26  28
HETATM   28  C   UNL     1     -20.771  -4.859  -6.223  1.00  0.00     0.012 C 
HETATM   29  C   UNL     1     -21.946  -4.466  -6.880  1.00  0.00     0.024 C 
HETATM   30  C   UNL     1     -21.906  -4.007  -8.200  1.00  0.00     0.008 C 
HETATM   31  C   UNL     1     -20.685  -3.896  -8.867  1.00  0.00    -0.062 C 
HETATM   32  C   UNL     1     -19.504  -4.150  -8.162  1.00  0.00     0.008 C 
HETATM   33  C   UNL     1     -20.636  -3.554 -10.326  1.00  0.00     0.048 C 
HETATM   34  C   UNL     1     -19.544  -4.613  -6.845  1.00  0.00     0.024 C 
ENDBRANCH  26  28
ENDBRANCH   4  26
TORSDOF 4
BEGIN_RES ARG D 557
REMARK  4 active torsions:
REMARK  status: ('A' for Active; 'I' for Inactive)
REMARK    1  A    between atoms: CA   and  CB  
REMARK    2  A    between atoms: CB   and  CG  
REMARK    3  A    between atoms: CG   and  CD  
REMARK    4  A    between atoms: CD   and  NE  
REMARK       I    between atoms: NE   and  CZ  
REMARK       I    between atoms: CZ   and  NH1 
REMARK       I    between atoms: CZ   and  NH2 
ROOT
ATOM      1  CA  ARG D 557     -26.217   2.705 -17.014  1.00 35.49     0.159 C 
ENDROOT
BRANCH   1   2
ATOM      2  CB  ARG D 557     -26.789   1.319 -17.183  1.00 35.49     0.034 C 
BRANCH   2   3
ATOM      3  CG  ARG D 557     -25.867   0.195 -16.981  1.00 35.49     0.027 C 
BRANCH   3   4
ATOM      4  CD  ARG D 557     -26.284  -0.684 -15.864  1.00 35.49     0.116 C 
BRANCH   4   5
ATOM      5  NE  ARG D 557     -25.214  -0.920 -14.931  1.00 35.49    -0.212 N 
ATOM      6  CZ  ARG D 557     -24.914  -2.076 -14.383  1.00 35.49     0.666 C 
ATOM      7  NH1 ARG D 557     -25.599  -3.177 -14.631  1.00 35.49    -0.235 N 
ATOM      8  NH2 ARG D 557     -23.895  -2.111 -13.574  1.00 35.49    -0.235 N 
ATOM      9  HH  ARG D 557     -26.272  -3.178 -15.162  1.00 35.49     0.174 HD
ATOM     10  HH  ARG D 557     -25.355  -3.903 -14.247  1.00 35.49     0.174 HD
ATOM     11  HH  ARG D 557     -23.467  -1.386 -13.439  1.00 35.49     0.174 HD
ATOM     12  HH  ARG D 557     -23.669  -2.840 -13.205  1.00 35.49     0.174 HD
ATOM     13  HE  ARG D 557     -24.766  -0.250 -14.659  1.00 35.49     0.178 HD
ENDBRANCH   4   5
ENDBRANCH   3   4
ENDBRANCH   2   3
ENDBRANCH   1   2
END_RES ARG D 557
BEGIN_RES GLU D 570
REMARK  3 active torsions:
REMARK  status: ('A' for Active; 'I' for Inactive)
REMARK    5  A    between atoms: CA   and  CB  
REMARK    6  A    between atoms: CB   and  CG  
REMARK    7  A    between atoms: CG   and  CD  
ROOT
ATOM     14  CA  GLU D 570     -18.033  -6.348 -13.375  1.00 32.92     0.160 C 
ENDROOT
BRANCH  14  15
ATOM     15  CB  GLU D 570     -19.500  -6.345 -13.794  1.00 32.92     0.043 C 
BRANCH  15  16
ATOM     16  CG  GLU D 570     -20.446  -5.549 -12.970  1.00 32.92     0.100 C 
BRANCH  16  17
ATOM     17  CD  GLU D 570     -21.688  -5.140 -13.727  1.00 32.92     0.185 C 
ATOM     18  OE1 GLU D 570     -22.754  -4.983 -13.101  1.00 32.92    -0.647 OA
ATOM     19  OE2 GLU D 570     -21.597  -4.992 -14.962  1.00 32.92    -0.647 OA
ENDBRANCH  16  17
ENDBRANCH  15  16
ENDBRANCH  14  15
END_RES GLU D 570
ENDMDL
MODEL 2
REMARK VINA RESULT:     -10.0      1.357      1.663
REMARK  4 active torsions:
REMARK  status: ('A' for Active; 'I' for Inactive)
REMARK    1  A    between atoms: C_5  and  N_8 
REMARK    2  A    between atoms: N_8  and  C_9 
REMARK    3  A    between atoms: C_12  and  N_15 
REMARK    4  A    between atoms: N_15  and  C_16 
ROOT
HETATM    1  C   UNL     1     -21.099  -9.781  -4.683  1.00  0.00     0.048 C 
HETATM    2  C   UNL     1     -20.993  -8.986  -3.538  1.00  0.00     0.058 C 
HETATM    3  C   UNL     1     -21.186  -7.614  -3.614  1.00  0.00     0.053 C 
HETATM    4  C   UNL     1     -21.047  -6.959  -4.845  1.00  0.00     0.028 C 
HETATM    5  C   UNL     1     -21.137  -7.728  -6.003  1.00  0.00     0.027 C 
HETATM    6  C   UNL     1     -21.246  -9.125  -5.915  1.00  0.00     0.032 C 
HETATM    7  C   UNL     1     -21.811  -6.977  -2.426  1.00  0.00     0.196 C 
HETATM    8  O   UNL     1     -22.508  -5.974  -2.540  1.00  0.00    -0.287 OA
HETATM    9  C   UNL     1     -21.731  -7.668  -1.123  1.00  0.00     0.029 A 
HETATM   10  C   UNL     1     -22.395  -7.160  -0.005  1.00  0.00     0.016 A 
HETATM   11  C   UNL     1     -22.274  -7.807   1.228  1.00  0.00     0.001 A 
HETATM   12  C   UNL     1     -21.457  -8.933   1.355  1.00  0.00     0.001 A 
HETATM   13  C   UNL     1     -20.825  -9.462   0.234  1.00  0.00     0.016 A 
HETATM   14  C   UNL     1     -21.017  -8.858  -1.012  1.00  0.00     0.029 A 
HETATM   15  C   UNL     1     -20.598  -9.554  -2.236  1.00  0.00     0.196 C 
HETATM   16  O   UNL     1     -19.943 -10.589  -2.183  1.00  0.00    -0.286 OA
ENDROOT
BRANCH   1  17
HETATM   17  N   UNL     1     -21.318 -11.178  -4.551  1.00  0.00    -0.355 N 
HETATM   18  H   UNL     1     -21.207 -11.466  -3.570  1.00  0.00     0.166 HD
BRANCH  17  19
HETATM   19  C   UNL     1     -20.812 -12.182  -5.395  1.00  0.00     0.032 A 
HETATM   20  C   UNL     1     -21.644 -12.851  -6.300  1.00  0.00     0.030 A 
HETATM   21  C   UNL     1     -21.120 -13.821  -7.149  1.00  0.00     0.009 A 
HETATM   22  C   UNL     1     -19.755 -14.118  -7.131  1.00  0.00    -0.062 A 
HETATM   23  C   UNL     1     -19.199 -15.202  -8.003  1.00  0.00     0.048 C 
HETATM   24  C   UNL     1     -18.911 -13.401  -6.273  1.00  0.00     0.009 A 
HETATM   25  C   UNL     1     -19.437 -12.426  -5.423  1.00  0.00     0.030 A 
ENDBRANCH  17  19
ENDBRANCH   1  17
BRANCH   4  26
HETATM   26  N   UNL     1     -20.825  -5.556  -4.965  1.00  0.00    -0.259 NA
HETATM   27  H   UNL     1     -19.979  -5.305  -4.452  1.00  0.00     0.134 HD
BRANCH  26  28
HETATM   28  C   UNL     1     -20.848  -4.888  -6.226  1.00  0.00     0.012 C 
HETATM   29  C   UNL     1     -22.058  -4.479  -6.805  1.00  0.00     0.024 C 
HETATM   30  C   UNL     1     -22.098  -4.018  -8.124  1.00  0.00     0.008 C 
HETATM   31  C   UNL     1     -20.921  -3.920  -8.868  1.00  0.00    -0.062 C 
HETATM   32  C   UNL     1     -19.700  -4.190  -8.241  1.00  0.00     0.008 C 
HETATM   33  C   UNL     1     -20.962  -3.575 -10.327  1.00  0.00     0.048 C 
HETATM   34  C   UNL     1     -19.661  -4.655  -6.925  1.00  0.00     0.024 C 
ENDBRANCH  26  28
ENDBRANCH   4  26
TORSDOF 4
BEGIN_RES ARG D 557
REMARK  4 active torsions:
REMARK  status: ('A' for Active; 'I' for Inactive)
REMARK    1  A    between atoms: CA   and  CB  
REMARK    2  A    between atoms: CB   and  CG  
REMARK    3  A    between atoms: CG   and  CD  
REMARK    4  A    between atoms: CD   and  NE  
REMARK       I    between atoms: NE   and  CZ  
REMARK       I    between atoms: CZ   and  NH1 
REMARK       I    between atoms: CZ   and  NH2 
ROOT
ATOM      1  CA  ARG D 557     -26.217   2.705 -17.014  1.00 35.49     0.159 C 
ENDROOT
BRANCH   1   2
ATOM      2  CB  ARG D 557     -26.789   1.319 -17.183  1.00 35.49     0.034 C 
BRANCH   2   3
ATOM      3  CG  ARG D 557     -28.236   1.225 -17.414  1.00 35.49     0.027 C 
BRANCH   3   4
ATOM      4  CD  ARG D 557     -28.893   0.268 -16.495  1.00 35.49     0.116 C 
BRANCH   4   5
ATOM      5  NE  ARG D 557     -29.232  -0.968 -17.151  1.00 35.49    -0.212 N 
ATOM      6  CZ  ARG D 557     -28.616  -2.117 -16.989  1.00 35.49     0.666 C 
ATOM      7  NH1 ARG D 557     -27.575  -2.258 -16.189  1.00 35.49    -0.235 N 
ATOM      8  NH2 ARG D 557     -29.073  -3.142 -17.649  1.00 35.49    -0.235 N 
ATOM      9  HH  ARG D 557     -27.259  -1.598 -15.743  1.00 35.49     0.174 HD
ATOM     10  HH  ARG D 557     -27.215  -3.032 -16.121  1.00 35.49     0.174 HD
ATOM     11  HH  ARG D 557     -29.751  -3.023 -18.152  1.00 35.49     0.174 HD
ATOM     12  HH  ARG D 557     -28.704  -3.901 -17.567  1.00 35.49     0.174 HD
ATOM     13  HE  ARG D 557     -29.845  -0.952 -17.739  1.00 35.49     0.178 HD
ENDBRANCH   4   5
ENDBRANCH   3   4
ENDBRANCH   2   3
ENDBRANCH   1   2
END_RES ARG D 557
BEGIN_RES GLU D 570
REMARK  3 active torsions:
REMARK  status: ('A' for Active; 'I' for Inactive)
REMARK    5  A    between atoms: CA   and  CB  
REMARK    6  A    between atoms: CB   and  CG  
REMARK    7  A    between atoms: CG   and  CD  
ROOT
ATOM     14  CA  GLU D 570     -18.033  -6.348 -13.375  1.00 32.92     0.160 C 
ENDROOT
BRANCH  14  15
ATOM     15  CB  GLU D 570     -19.500  -6.345 -13.794  1.00 32.92     0.043 C 
BRANCH  15  16
ATOM     16  CG  GLU D 570     -20.447  -5.554 -12.966  1.00 32.92     0.100 C 
BRANCH  16  17
ATOM     17  CD  GLU D 570     -21.756  -5.279 -13.668  1.00 32.92     0.185 C 
ATOM     18  OE1 GLU D 570     -22.227  -6.145 -14.431  1.00 32.92    -0.647 OA
ATOM     19  OE2 GLU D 570     -22.309  -4.180 -13.466  1.00 32.92    -0.647 OA
ENDBRANCH  16  17
ENDBRANCH  15  16
ENDBRANCH  14  15
END_RES GLU D 570
ENDMDL
MODEL 3
REMARK VINA RESULT:      -9.6      3.491      6.572
REMARK  4 active torsions:
REMARK  status: ('A' for Active; 'I' for Inactive)
REMARK    1  A    between atoms: C_5  and  N_8 
REMARK    2  A    between atoms: N_8  and  C_9 
REMARK    3  A    between atoms: C_12  and  N_15 
REMARK    4  A    between atoms: N_15  and  C_16 
ROOT
HETATM    1  C   UNL     1     -17.912 -10.871  -1.979  1.00  0.00     0.048 C 
HETATM    2  C   UNL     1     -19.182 -10.289  -1.915  1.00  0.00     0.058 C 
HETATM    3  C   UNL     1     -20.057 -10.621  -0.890  1.00  0.00     0.053 C 
HETATM    4  C   UNL     1     -19.883 -11.820  -0.187  1.00  0.00     0.028 C 
HETATM    5  C   UNL     1     -18.630 -12.428  -0.242  1.00  0.00     0.027 C 
HETATM    6  C   UNL     1     -17.627 -11.903  -1.072  1.00  0.00     0.032 C 
HETATM    7  C   UNL     1     -20.953  -9.532  -0.421  1.00  0.00     0.196 C 
HETATM    8  O   UNL     1     -21.342  -9.491   0.741  1.00  0.00    -0.287 OA
HETATM    9  C   UNL     1     -21.227  -8.397  -1.324  1.00  0.00     0.029 A 
HETATM   10  C   UNL     1     -21.975  -7.301  -0.886  1.00  0.00     0.016 A 
HETATM   11  C   UNL     1     -22.257  -6.255  -1.769  1.00  0.00     0.001 A 
HETATM   12  C   UNL     1     -21.832  -6.323  -3.098  1.00  0.00     0.001 A 
HETATM   13  C   UNL     1     -21.056  -7.395  -3.526  1.00  0.00     0.016 A 
HETATM   14  C   UNL     1     -20.707  -8.397  -2.615  1.00  0.00     0.029 A 
HETATM   15  C   UNL     1     -19.667  -9.374  -2.965  1.00  0.00     0.196 C 
HETATM   16  O   UNL     1     -19.204  -9.428  -4.099  1.00  0.00    -0.286 OA
ENDROOT
BRANCH   1  17
HETATM   17  N   UNL     1     -16.892 -10.248  -2.746  1.00  0.00    -0.355 N 
HETATM   18  H   UNL     1     -17.236  -9.367  -3.151  1.00  0.00     0.166 HD
BRANCH  17  19
HETATM   19  C   UNL     1     -16.036 -10.884  -3.662  1.00  0.00     0.032 A 
HETATM   20  C   UNL     1     -16.118 -10.614  -5.033  1.00  0.00     0.030 A 
HETATM   21  C   UNL     1     -15.242 -11.230  -5.922  1.00  0.00     0.009 A 
HETATM   22  C   UNL     1     -14.252 -12.098  -5.457  1.00  0.00    -0.062 A 
HETATM   23  C   UNL     1     -13.346 -12.806  -6.418  1.00  0.00     0.048 C 
HETATM   24  C   UNL     1     -14.126 -12.315  -4.079  1.00  0.00     0.009 A 
HETATM   25  C   UNL     1     -15.004 -11.697  -3.187  1.00  0.00     0.030 A 
ENDBRANCH  17  19
ENDBRANCH   1  17
BRANCH   4  26
HETATM   26  N   UNL     1     -20.915 -12.437   0.578  1.00  0.00    -0.259 NA
HETATM   27  H   UNL     1     -21.341 -11.740   1.190  1.00  0.00     0.134 HD
BRANCH  26  28
HETATM   28  C   UNL     1     -21.928 -13.242  -0.023  1.00  0.00     0.012 C 
HETATM   29  C   UNL     1     -23.082 -12.663  -0.571  1.00  0.00     0.024 C 
HETATM   30  C   UNL     1     -24.161 -13.457  -0.968  1.00  0.00     0.008 C 
HETATM   31  C   UNL     1     -24.085 -14.846  -0.860  1.00  0.00    -0.062 C 
HETATM   32  C   UNL     1     -22.881 -15.428  -0.450  1.00  0.00     0.008 C 
HETATM   33  C   UNL     1     -25.284 -15.704  -1.135  1.00  0.00     0.048 C 
HETATM   34  C   UNL     1     -21.804 -14.634  -0.049  1.00  0.00     0.024 C 
ENDBRANCH  26  28
ENDBRANCH   4  26
TORSDOF 4
BEGIN_RES ARG D 557
REMARK  4 active torsions:
REMARK  status: ('A' for Active; 'I' for Inactive)
REMARK    1  A    between atoms: CA   and  CB  
REMARK    2  A    between atoms: CB   and  CG  
REMARK    3  A    between atoms: CG   and  CD  
REMARK    4  A    between atoms: CD   and  NE  
REMARK       I    between atoms: NE   and  CZ  
REMARK       I    between atoms: CZ   and  NH1 
REMARK       I    between atoms: CZ   and  NH2 
ROOT
ATOM      1  CA  ARG D 557     -26.217   2.705 -17.014  1.00 35.49     0.159 C 
ENDROOT
BRANCH   1   2
ATOM      2  CB  ARG D 557     -26.789   1.319 -17.183  1.00 35.49     0.034 C 
BRANCH   2   3
ATOM      3  CG  ARG D 557     -25.835   0.203 -17.160  1.00 35.49     0.027 C 
BRANCH   3   4
ATOM      4  CD  ARG D 557     -24.759   0.401 -16.162  1.00 35.49     0.116 C 
BRANCH   4   5
ATOM      5  NE  ARG D 557     -24.920  -0.452 -15.014  1.00 35.49    -0.212 N 
ATOM      6  CZ  ARG D 557     -24.109  -1.424 -14.660  1.00 35.49     0.666 C 
ATOM      7  NH1 ARG D 557     -23.031  -1.736 -15.355  1.00 35.49    -0.235 N 
ATOM      8  NH2 ARG D 557     -24.399  -2.083 -13.576  1.00 35.49    -0.235 N 
ATOM      9  HH  ARG D 557     -22.820  -1.315 -16.070  1.00 35.49     0.174 HD
ATOM     10  HH  ARG D 557     -22.538  -2.378 -15.074  1.00 35.49     0.174 HD
ATOM     11  HH  ARG D 557     -25.098  -1.854 -13.143  1.00 35.49     0.174 HD
ATOM     12  HH  ARG D 557     -23.897  -2.714 -13.313  1.00 35.49     0.174 HD
ATOM     13  HE  ARG D 557     -25.628  -0.368 -14.550  1.00 35.49     0.178 HD
ENDBRANCH   4   5
ENDBRANCH   3   4
ENDBRANCH   2   3
ENDBRANCH   1   2
END_RES ARG D 557
BEGIN_RES GLU D 570
REMARK  3 active torsions:
REMARK  status: ('A' for Active; 'I' for Inactive)
REMARK    5  A    between atoms: CA   and  CB  
REMARK    6  A    between atoms: CB   and  CG  
REMARK    7  A    between atoms: CG   and  CD  
ROOT
ATOM     14  CA  GLU D 570     -18.033  -6.348 -13.375  1.00 32.92     0.160 C 
ENDROOT
BRANCH  14  15
ATOM     15  CB  GLU D 570     -19.500  -6.345 -13.794  1.00 32.92     0.043 C 
BRANCH  15  16
ATOM     16  CG  GLU D 570     -20.442  -5.532 -12.982  1.00 32.92     0.100 C 
BRANCH  16  17
ATOM     17  CD  GLU D 570     -21.642  -5.059 -13.770  1.00 32.92     0.185 C 
ATOM     18  OE1 GLU D 570     -21.906  -5.606 -14.857  1.00 32.92    -0.647 OA
ATOM     19  OE2 GLU D 570     -22.315  -4.119 -13.302  1.00 32.92    -0.647 OA
ENDBRANCH  16  17
ENDBRANCH  15  16
ENDBRANCH  14  15
END_RES GLU D 570
ENDMDL
MODEL 4
REMARK VINA RESULT:      -9.5      1.858      6.076
REMARK  4 active torsions:
REMARK  status: ('A' for Active; 'I' for Inactive)
REMARK    1  A    between atoms: C_5  and  N_8 
REMARK    2  A    between atoms: N_8  and  C_9 
REMARK    3  A    between atoms: C_12  and  N_15 
REMARK    4  A    between atoms: N_15  and  C_16 
ROOT
HETATM    1  C   UNL     1     -19.887  -7.117  -5.575  1.00  0.00     0.048 C 
HETATM    2  C   UNL     1     -20.334  -7.785  -4.431  1.00  0.00     0.058 C 
HETATM    3  C   UNL     1     -19.726  -8.964  -4.022  1.00  0.00     0.053 C 
HETATM    4  C   UNL     1     -18.992  -9.724  -4.942  1.00  0.00     0.028 C 
HETATM    5  C   UNL     1     -18.543  -9.087  -6.097  1.00  0.00     0.027 C 
HETATM    6  C   UNL     1     -18.924  -7.763  -6.366  1.00  0.00     0.032 C 
HETATM    7  C   UNL     1     -19.662  -9.188  -2.554  1.00  0.00     0.196 C 
HETATM    8  O   UNL     1     -18.745  -9.830  -2.053  1.00  0.00    -0.287 OA
HETATM    9  C   UNL     1     -20.620  -8.478  -1.683  1.00  0.00     0.029 A 
HETATM   10  C   UNL     1     -20.526  -8.575  -0.293  1.00  0.00     0.016 A 
HETATM   11  C   UNL     1     -21.466  -7.928   0.513  1.00  0.00     0.001 A 
HETATM   12  C   UNL     1     -22.522  -7.220  -0.066  1.00  0.00     0.001 A 
HETATM   13  C   UNL     1     -22.595  -7.091  -1.450  1.00  0.00     0.016 A 
HETATM   14  C   UNL     1     -21.604  -7.672  -2.247  1.00  0.00     0.029 A 
HETATM   15  C   UNL     1     -21.504  -7.313  -3.668  1.00  0.00     0.196 C 
HETATM   16  O   UNL     1     -22.366  -6.630  -4.211  1.00  0.00    -0.286 OA
ENDROOT
BRANCH   1  17
HETATM   17  N   UNL     1     -20.204  -5.745  -5.757  1.00  0.00    -0.355 N 
HETATM   18  H   UNL     1     -20.715  -5.385  -4.941  1.00  0.00     0.166 HD
BRANCH  17  19
HETATM   19  C   UNL     1     -20.717  -5.159  -6.928  1.00  0.00     0.032 A 
HETATM   20  C   UNL     1     -22.066  -4.798  -7.024  1.00  0.00     0.030 A 
HETATM   21  C   UNL     1     -22.549  -4.191  -8.179  1.00  0.00     0.009 A 
HETATM   22  C   UNL     1     -21.690  -3.905  -9.243  1.00  0.00    -0.062 A 
HETATM   23  C   UNL     1     -22.220  -3.305 -10.509  1.00  0.00     0.048 C 
HETATM   24  C   UNL     1     -20.328  -4.205  -9.121  1.00  0.00     0.009 A 
HETATM   25  C   UNL     1     -19.842  -4.813  -7.961  1.00  0.00     0.030 A 
ENDBRANCH  17  19
ENDBRANCH   1  17
BRANCH   4  26
HETATM   26  N   UNL     1     -18.681 -11.101  -4.749  1.00  0.00    -0.259 NA
HETATM   27  H   UNL     1     -19.400 -11.672  -5.196  1.00  0.00     0.134 HD
BRANCH  26  28
HETATM   28  C   UNL     1     -17.389 -11.635  -5.031  1.00  0.00     0.012 C 
HETATM   29  C   UNL     1     -16.269 -11.255  -4.277  1.00  0.00     0.024 C 
HETATM   30  C   UNL     1     -14.980 -11.613  -4.682  1.00  0.00     0.008 C 
HETATM   31  C   UNL     1     -14.796 -12.392  -5.824  1.00  0.00    -0.062 C 
HETATM   32  C   UNL     1     -15.920 -12.891  -6.492  1.00  0.00     0.008 C 
HETATM   33  C   UNL     1     -13.420 -12.656  -6.360  1.00  0.00     0.048 C 
HETATM   34  C   UNL     1     -17.208 -12.529  -6.090  1.00  0.00     0.024 C 
ENDBRANCH  26  28
ENDBRANCH   4  26
TORSDOF 4
BEGIN_RES ARG D 557
REMARK  4 active torsions:
REMARK  status: ('A' for Active; 'I' for Inactive)
REMARK    1  A    between atoms: CA   and  CB  
REMARK    2  A    between atoms: CB   and  CG  
REMARK    3  A    between atoms: CG   and  CD  
REMARK    4  A    between atoms: CD   and  NE  
REMARK       I    between atoms: NE   and  CZ  
REMARK       I    between atoms: CZ   and  NH1 
REMARK       I    between atoms: CZ   and  NH2 
ROOT
ATOM      1  CA  ARG D 557     -26.217   2.705 -17.014  1.00 35.49     0.159 C 
ENDROOT
BRANCH   1   2
ATOM      2  CB  ARG D 557     -26.789   1.319 -17.183  1.00 35.49     0.034 C 
BRANCH   2   3
ATOM      3  CG  ARG D 557     -25.867   0.195 -16.981  1.00 35.49     0.027 C 
BRANCH   3   4
ATOM      4  CD  ARG D 557     -26.303  -0.702 -15.886  1.00 35.49     0.116 C 
BRANCH   4   5
ATOM      5  NE  ARG D 557     -25.249  -0.953 -14.938  1.00 35.49    -0.212 N 
ATOM      6  CZ  ARG D 557     -24.981  -2.110 -14.376  1.00 35.49     0.666 C 
ATOM      7  NH1 ARG D 557     -25.686  -3.198 -14.621  1.00 35.49    -0.235 N 
ATOM      8  NH2 ARG D 557     -23.973  -2.158 -13.554  1.00 35.49    -0.235 N 
ATOM      9  HH  ARG D 557     -26.353  -3.190 -15.160  1.00 35.49     0.174 HD
ATOM     10  HH  ARG D 557     -25.463  -3.925 -14.227  1.00 35.49     0.174 HD
ATOM     11  HH  ARG D 557     -23.530  -1.441 -13.420  1.00 35.49     0.174 HD
ATOM     12  HH  ARG D 557     -23.767  -2.888 -13.175  1.00 35.49     0.174 HD
ATOM     13  HE  ARG D 557     -24.790  -0.290 -14.667  1.00 35.49     0.178 HD
ENDBRANCH   4   5
ENDBRANCH   3   4
ENDBRANCH   2   3
ENDBRANCH   1   2
END_RES ARG D 557
BEGIN_RES GLU D 570
REMARK  3 active torsions:
REMARK  status: ('A' for Active; 'I' for Inactive)
REMARK    5  A    between atoms: CA   and  CB  
REMARK    6  A    between atoms: CB   and  CG  
REMARK    7  A    between atoms: CG   and  CD  
ROOT
ATOM     14  CA  GLU D 570     -18.033  -6.348 -13.375  1.00 32.92     0.160 C 
ENDROOT
BRANCH  14  15
ATOM     15  CB  GLU D 570     -19.500  -6.345 -13.794  1.00 32.92     0.043 C 
BRANCH  15  16
ATOM     16  CG  GLU D 570     -20.431  -5.482 -13.022  1.00 32.92     0.100 C 
BRANCH  16  17
ATOM     17  CD  GLU D 570     -21.682  -5.129 -13.791  1.00 32.92     0.185 C 
ATOM     18  OE1 GLU D 570     -21.586  -4.820 -14.994  1.00 32.92    -0.647 OA
ATOM     19  OE2 GLU D 570     -22.769  -5.145 -13.179  1.00 32.92    -0.647 OA
ENDBRANCH  16  17
ENDBRANCH  15  16
ENDBRANCH  14  15
END_RES GLU D 570
ENDMDL
MODEL 5
REMARK VINA RESULT:      -9.5      2.253      2.760
REMARK  4 active torsions:
REMARK  status: ('A' for Active; 'I' for Inactive)
REMARK    1  A    between atoms: C_5  and  N_8 
REMARK    2  A    between atoms: N_8  and  C_9 
REMARK    3  A    between atoms: C_12  and  N_15 
REMARK    4  A    between atoms: N_15  and  C_16 
ROOT
HETATM    1  C   UNL     1     -19.416  -9.111  -4.657  1.00  0.00     0.048 C 
HETATM    2  C   UNL     1     -19.926  -8.349  -3.602  1.00  0.00     0.058 C 
HETATM    3  C   UNL     1     -20.589  -7.155  -3.853  1.00  0.00     0.053 C 
HETATM    4  C   UNL     1     -20.379  -6.484  -5.065  1.00  0.00     0.028 C 
HETATM    5  C   UNL     1     -19.861  -7.217  -6.131  1.00  0.00     0.027 C 
HETATM    6  C   UNL     1     -19.461  -8.549  -5.942  1.00  0.00     0.032 C 
HETATM    7  C   UNL     1     -21.700  -6.821  -2.925  1.00  0.00     0.196 C 
HETATM    8  O   UNL     1     -22.663  -6.162  -3.305  1.00  0.00    -0.287 OA
HETATM    9  C   UNL     1     -21.721  -7.441  -1.586  1.00  0.00     0.029 A 
HETATM   10  C   UNL     1     -22.802  -7.240  -0.723  1.00  0.00     0.016 A 
HETATM   11  C   UNL     1     -22.784  -7.803   0.555  1.00  0.00     0.001 A 
HETATM   12  C   UNL     1     -21.672  -8.529   0.989  1.00  0.00     0.001 A 
HETATM   13  C   UNL     1     -20.612  -8.763   0.118  1.00  0.00     0.016 A 
HETATM   14  C   UNL     1     -20.674  -8.266  -1.187  1.00  0.00     0.029 A 
HETATM   15  C   UNL     1     -19.713  -8.735  -2.195  1.00  0.00     0.196 C 
HETATM   16  O   UNL     1     -18.759  -9.438  -1.881  1.00  0.00    -0.286 OA
ENDROOT
BRANCH   1  17
HETATM   17  N   UNL     1     -19.125 -10.486  -4.454  1.00  0.00    -0.355 N 
HETATM   18  H   UNL     1     -19.679 -10.857  -3.671  1.00  0.00     0.166 HD
BRANCH  17  19
HETATM   19  C   UNL     1     -17.846 -11.072  -4.442  1.00  0.00     0.032 A 
HETATM   20  C   UNL     1     -16.709 -10.330  -4.780  1.00  0.00     0.030 A 
HETATM   21  C   UNL     1     -15.449 -10.918  -4.734  1.00  0.00     0.009 A 
HETATM   22  C   UNL     1     -15.299 -12.245  -4.321  1.00  0.00    -0.062 A 
HETATM   23  C   UNL     1     -13.950 -12.896  -4.326  1.00  0.00     0.048 C 
HETATM   24  C   UNL     1     -16.430 -12.966  -3.918  1.00  0.00     0.009 A 
HETATM   25  C   UNL     1     -17.694 -12.376  -3.963  1.00  0.00     0.030 A 
ENDBRANCH  17  19
ENDBRANCH   1  17
BRANCH   4  26
HETATM   26  N   UNL     1     -20.674  -5.103  -5.257  1.00  0.00    -0.259 NA
HETATM   27  H   UNL     1     -19.883  -4.544  -4.933  1.00  0.00     0.134 HD
BRANCH  26  28
HETATM   28  C   UNL     1     -21.155  -4.594  -6.500  1.00  0.00     0.012 C 
HETATM   29  C   UNL     1     -22.524  -4.596  -6.800  1.00  0.00     0.024 C 
HETATM   30  C   UNL     1     -22.973  -4.295  -8.089  1.00  0.00     0.008 C 
HETATM   31  C   UNL     1     -22.061  -3.947  -9.085  1.00  0.00    -0.062 C 
HETATM   32  C   UNL     1     -20.710  -3.805  -8.747  1.00  0.00     0.008 C 
HETATM   33  C   UNL     1     -22.506  -3.771 -10.507  1.00  0.00     0.048 C 
HETATM   34  C   UNL     1     -20.262  -4.111  -7.460  1.00  0.00     0.024 C 
ENDBRANCH  26  28
ENDBRANCH   4  26
TORSDOF 4
BEGIN_RES ARG D 557
REMARK  4 active torsions:
REMARK  status: ('A' for Active; 'I' for Inactive)
REMARK    1  A    between atoms: CA   and  CB  
REMARK    2  A    between atoms: CB   and  CG  
REMARK    3  A    between atoms: CG   and  CD  
REMARK    4  A    between atoms: CD   and  NE  
REMARK       I    between atoms: NE   and  CZ  
REMARK       I    between atoms: CZ   and  NH1 
REMARK       I    between atoms: CZ   and  NH2 
ROOT
ATOM      1  CA  ARG D 557     -26.217   2.705 -17.014  1.00 35.49     0.159 C 
ENDROOT
BRANCH   1   2
ATOM      2  CB  ARG D 557     -26.789   1.319 -17.183  1.00 35.49     0.034 C 
BRANCH   2   3
ATOM      3  CG  ARG D 557     -28.237   1.225 -17.408  1.00 35.49     0.027 C 
BRANCH   3   4
ATOM      4  CD  ARG D 557     -28.892   0.282 -16.473  1.00 35.49     0.116 C 
BRANCH   4   5
ATOM      5  NE  ARG D 557     -29.270  -0.948 -17.119  1.00 35.49    -0.212 N 
ATOM      6  CZ  ARG D 557     -28.634  -2.094 -17.020  1.00 35.49     0.666 C 
ATOM      7  NH1 ARG D 557     -27.535  -2.236 -16.302  1.00 35.49    -0.235 N 
ATOM      8  NH2 ARG D 557     -29.131  -3.113 -17.658  1.00 35.49    -0.235 N 
ATOM      9  HH  ARG D 557     -27.191  -1.579 -15.872  1.00 35.49     0.174 HD
ATOM     10  HH  ARG D 557     -27.165  -3.008 -16.273  1.00 35.49     0.174 HD
ATOM     11  HH  ARG D 557     -29.846  -2.994 -18.108  1.00 35.49     0.174 HD
ATOM     12  HH  ARG D 557     -28.751  -3.870 -17.615  1.00 35.49     0.174 HD
ATOM     13  HE  ARG D 557     -29.926  -0.930 -17.659  1.00 35.49     0.178 HD
ENDBRANCH   4   5
ENDBRANCH   3   4
ENDBRANCH   2   3
ENDBRANCH   1   2
END_RES ARG D 557
BEGIN_RES GLU D 570
REMARK  3 active torsions:
REMARK  status: ('A' for Active; 'I' for Inactive)
REMARK    5  A    between atoms: CA   and  CB  
REMARK    6  A    between atoms: CB   and  CG  
REMARK    7  A    between atoms: CG   and  CD  
ROOT
ATOM     14  CA  GLU D 570     -18.033  -6.348 -13.375  1.00 32.92     0.160 C 
ENDROOT
BRANCH  14  15
ATOM     15  CB  GLU D 570     -19.500  -6.345 -13.794  1.00 32.92     0.043 C 
BRANCH  15  16
ATOM     16  CG  GLU D 570     -20.420  -5.437 -13.061  1.00 32.92     0.100 C 
BRANCH  16  17
ATOM     17  CD  GLU D 570     -21.724  -5.207 -13.787  1.00 32.92     0.185 C 
ATOM     18  OE1 GLU D 570     -22.188  -4.052 -13.847  1.00 32.92    -0.647 OA
ATOM     19  OE2 GLU D 570     -22.297  -6.195 -14.288  1.00 32.92    -0.647 OA
ENDBRANCH  16  17
ENDBRANCH  15  16
ENDBRANCH  14  15
END_RES GLU D 570
ENDMDL
MODEL 6
REMARK VINA RESULT:      -9.5      3.442      6.429
REMARK  4 active torsions:
REMARK  status: ('A' for Active; 'I' for Inactive)
REMARK    1  A    between atoms: C_5  and  N_8 
REMARK    2  A    between atoms: N_8  and  C_9 
REMARK    3  A    between atoms: C_12  and  N_15 
REMARK    4  A    between atoms: N_15  and  C_16 
ROOT
HETATM    1  C   UNL     1     -20.374 -12.230  -1.075  1.00  0.00     0.048 C 
HETATM    2  C   UNL     1     -20.154 -10.860  -1.251  1.00  0.00     0.058 C 
HETATM    3  C   UNL     1     -19.058 -10.411  -1.974  1.00  0.00     0.053 C 
HETATM    4  C   UNL     1     -17.950 -11.250  -2.151  1.00  0.00     0.028 C 
HETATM    5  C   UNL     1     -18.138 -12.620  -1.971  1.00  0.00     0.027 C 
HETATM    6  C   UNL     1     -19.372 -13.108  -1.515  1.00  0.00     0.032 C 
HETATM    7  C   UNL     1     -19.261  -9.164  -2.757  1.00  0.00     0.196 C 
HETATM    8  O   UNL     1     -18.644  -8.965  -3.798  1.00  0.00    -0.287 OA
HETATM    9  C   UNL     1     -20.346  -8.245  -2.362  1.00  0.00     0.029 A 
HETATM   10  C   UNL     1     -20.641  -7.117  -3.133  1.00  0.00     0.016 A 
HETATM   11  C   UNL     1     -21.646  -6.238  -2.720  1.00  0.00     0.001 A 
HETATM   12  C   UNL     1     -22.325  -6.459  -1.519  1.00  0.00     0.001 A 
HETATM   13  C   UNL     1     -22.059  -7.601  -0.770  1.00  0.00     0.016 A 
HETATM   14  C   UNL     1     -21.111  -8.519  -1.232  1.00  0.00     0.029 A 
HETATM   15  C   UNL     1     -21.020  -9.850  -0.616  1.00  0.00     0.196 C 
HETATM   16  O   UNL     1     -21.654 -10.123   0.398  1.00  0.00    -0.286 OA
ENDROOT
BRANCH   1  17
HETATM   17  N   UNL     1     -21.668 -12.693  -0.717  1.00  0.00    -0.355 N 
HETATM   18  H   UNL     1     -22.378 -11.986  -0.950  1.00  0.00     0.166 HD
BRANCH  17  19
HETATM   19  C   UNL     1     -22.019 -13.332   0.485  1.00  0.00     0.032 A 
HETATM   20  C   UNL     1     -23.280 -13.143   1.062  1.00  0.00     0.030 A 
HETATM   21  C   UNL     1     -23.621 -13.808   2.236  1.00  0.00     0.009 A 
HETATM   22  C   UNL     1     -22.724 -14.694   2.836  1.00  0.00    -0.062 A 
HETATM   23  C   UNL     1     -23.068 -15.365   4.131  1.00  0.00     0.048 C 
HETATM   24  C   UNL     1     -21.488 -14.934   2.223  1.00  0.00     0.009 A 
HETATM   25  C   UNL     1     -21.146 -14.269   1.044  1.00  0.00     0.030 A 
ENDBRANCH  17  19
ENDBRANCH   1  17
BRANCH   4  26
HETATM   26  N   UNL     1     -16.655 -10.774  -2.509  1.00  0.00    -0.259 NA
HETATM   27  H   UNL     1     -16.104 -10.634  -1.661  1.00  0.00     0.134 HD
BRANCH  26  28
HETATM   28  C   UNL     1     -15.860 -11.410  -3.508  1.00  0.00     0.012 C 
HETATM   29  C   UNL     1     -14.753 -12.196  -3.159  1.00  0.00     0.024 C 
HETATM   30  C   UNL     1     -13.859 -12.644  -4.135  1.00  0.00     0.008 C 
HETATM   31  C   UNL     1     -14.082 -12.346  -5.480  1.00  0.00    -0.062 C 
HETATM   32  C   UNL     1     -15.263 -11.686  -5.840  1.00  0.00     0.008 C 
HETATM   33  C   UNL     1     -13.057 -12.683  -6.522  1.00  0.00     0.048 C 
HETATM   34  C   UNL     1     -16.154 -11.235  -4.863  1.00  0.00     0.024 C 
ENDBRANCH  26  28
ENDBRANCH   4  26
TORSDOF 4
BEGIN_RES ARG D 557
REMARK  4 active torsions:
REMARK  status: ('A' for Active; 'I' for Inactive)
REMARK    1  A    between atoms: CA   and  CB  
REMARK    2  A    between atoms: CB   and  CG  
REMARK    3  A    between atoms: CG   and  CD  
REMARK    4  A    between atoms: CD   and  NE  
REMARK       I    between atoms: NE   and  CZ  
REMARK       I    between atoms: CZ   and  NH1 
REMARK       I    between atoms: CZ   and  NH2 
ROOT
ATOM      1  CA  ARG D 557     -26.217   2.705 -17.014  1.00 35.49     0.159 C 
ENDROOT
BRANCH   1   2
ATOM      2  CB  ARG D 557     -26.789   1.319 -17.183  1.00 35.49     0.034 C 
BRANCH   2   3
ATOM      3  CG  ARG D 557     -25.927   0.197 -16.792  1.00 35.49     0.027 C 
BRANCH   3   4
ATOM      4  CD  ARG D 557     -26.684  -0.892 -16.132  1.00 35.49     0.116 C 
BRANCH   4   5
ATOM      5  NE  ARG D 557     -25.965  -1.455 -15.020  1.00 35.49    -0.212 N 
ATOM      6  CZ  ARG D 557     -25.955  -2.723 -14.674  1.00 35.49     0.666 C 
ATOM      7  NH1 ARG D 557     -26.641  -3.642 -15.329  1.00 35.49    -0.235 N 
ATOM      8  NH2 ARG D 557     -25.228  -3.060 -13.649  1.00 35.49    -0.235 N 
ATOM      9  HH  ARG D 557     -27.124  -3.443 -16.008  1.00 35.49     0.174 HD
ATOM     10  HH  ARG D 557     -26.594  -4.454 -15.059  1.00 35.49     0.174 HD
ATOM     11  HH  ARG D 557     -24.790  -2.447 -13.250  1.00 35.49     0.174 HD
ATOM     12  HH  ARG D 557     -25.194  -3.870 -13.398  1.00 35.49     0.174 HD
ATOM     13  HE  ARG D 557     -25.553  -0.923 -14.500  1.00 35.49     0.178 HD
ENDBRANCH   4   5
ENDBRANCH   3   4
ENDBRANCH   2   3
ENDBRANCH   1   2
END_RES ARG D 557
BEGIN_RES GLU D 570
REMARK  3 active torsions:
REMARK  status: ('A' for Active; 'I' for Inactive)
REMARK    5  A    between atoms: CA   and  CB  
REMARK    6  A    between atoms: CB   and  CG  
REMARK    7  A    between atoms: CG   and  CD  
ROOT
ATOM     14  CA  GLU D 570     -18.033  -6.348 -13.375  1.00 32.92     0.160 C 
ENDROOT
BRANCH  14  15
ATOM     15  CB  GLU D 570     -19.500  -6.345 -13.794  1.00 32.92     0.043 C 
BRANCH  15  16
ATOM     16  CG  GLU D 570     -20.446  -5.550 -12.969  1.00 32.92     0.100 C 
BRANCH  16  17
ATOM     17  CD  GLU D 570     -21.694  -5.152 -13.722  1.00 32.92     0.185 C 
ATOM     18  OE1 GLU D 570     -21.717  -5.272 -14.962  1.00 32.92    -0.647 OA
ATOM     19  OE2 GLU D 570     -22.653  -4.700 -13.066  1.00 32.92    -0.647 OA
ENDBRANCH  16  17
ENDBRANCH  15  16
ENDBRANCH  14  15
END_RES GLU D 570
ENDMDL
MODEL 7
REMARK VINA RESULT:      -9.4      7.161     11.984
REMARK  4 active torsions:
REMARK  status: ('A' for Active; 'I' for Inactive)
REMARK    1  A    between atoms: C_5  and  N_8 
REMARK    2  A    between atoms: N_8  and  C_9 
REMARK    3  A    between atoms: C_12  and  N_15 
REMARK    4  A    between atoms: N_15  and  C_16 
ROOT
HETATM    1  C   UNL     1     -24.805  -6.628 -15.786  1.00  0.00     0.048 C 
HETATM    2  C   UNL     1     -25.868  -5.740 -15.597  1.00  0.00     0.058 C 
HETATM    3  C   UNL     1     -25.681  -4.559 -14.892  1.00  0.00     0.053 C 
HETATM    4  C   UNL     1     -24.604  -4.442 -14.004  1.00  0.00     0.028 C 
HETATM    5  C   UNL     1     -23.535  -5.321 -14.162  1.00  0.00     0.027 C 
HETATM    6  C   UNL     1     -23.607  -6.357 -15.106  1.00  0.00     0.032 C 
HETATM    7  C   UNL     1     -26.483  -3.395 -15.349  1.00  0.00     0.196 C 
HETATM    8  O   UNL     1     -26.061  -2.249 -15.224  1.00  0.00    -0.287 OA
HETATM    9  C   UNL     1     -27.718  -3.639 -16.121  1.00  0.00     0.029 A 
HETATM   10  C   UNL     1     -28.443  -2.574 -16.662  1.00  0.00     0.016 A 
HETATM   11  C   UNL     1     -29.630  -2.824 -17.355  1.00  0.00     0.001 A 
HETATM   12  C   UNL     1     -30.117  -4.129 -17.470  1.00  0.00     0.001 A 
HETATM   13  C   UNL     1     -29.377  -5.193 -16.964  1.00  0.00     0.016 A 
HETATM   14  C   UNL     1     -28.148  -4.943 -16.346  1.00  0.00     0.029 A 
HETATM   15  C   UNL     1     -27.230  -6.055 -16.064  1.00  0.00     0.196 C 
HETATM   16  O   UNL     1     -27.580  -7.220 -16.220  1.00  0.00    -0.286 OA
ENDROOT
BRANCH   1  17
HETATM   17  N   UNL     1     -24.871  -7.593 -16.825  1.00  0.00    -0.355 N 
HETATM   18  H   UNL     1     -24.348  -8.439 -16.562  1.00  0.00     0.166 HD
BRANCH  17  19
HETATM   19  C   UNL     1     -24.704  -7.346 -18.200  1.00  0.00     0.032 A 
HETATM   20  C   UNL     1     -23.514  -7.686 -18.855  1.00  0.00     0.030 A 
HETATM   21  C   UNL     1     -23.378  -7.462 -20.221  1.00  0.00     0.009 A 
HETATM   22  C   UNL     1     -24.435  -6.927 -20.962  1.00  0.00    -0.062 A 
HETATM   23  C   UNL     1     -24.269  -6.632 -22.421  1.00  0.00     0.048 C 
HETATM   24  C   UNL     1     -25.648  -6.650 -20.319  1.00  0.00     0.009 A 
HETATM   25  C   UNL     1     -25.785  -6.876 -18.948  1.00  0.00     0.030 A 
ENDBRANCH  17  19
ENDBRANCH   1  17
BRANCH   4  26
HETATM   26  N   UNL     1     -24.549  -3.470 -12.963  1.00  0.00    -0.259 NA
HETATM   27  H   UNL     1     -25.495  -3.290 -12.622  1.00  0.00     0.134 HD
BRANCH  26  28
HETATM   28  C   UNL     1     -23.648  -3.585 -11.862  1.00  0.00     0.012 C 
HETATM   29  C   UNL     1     -22.342  -3.081 -11.942  1.00  0.00     0.024 C 
HETATM   30  C   UNL     1     -21.401  -3.376 -10.952  1.00  0.00     0.008 C 
HETATM   31  C   UNL     1     -21.765  -4.146  -9.847  1.00  0.00    -0.062 C 
HETATM   32  C   UNL     1     -23.104  -4.525  -9.697  1.00  0.00     0.008 C 
HETATM   33  C   UNL     1     -20.736  -4.601  -8.855  1.00  0.00     0.048 C 
HETATM   34  C   UNL     1     -24.043  -4.233 -10.689  1.00  0.00     0.024 C 
ENDBRANCH  26  28
ENDBRANCH   4  26
TORSDOF 4
BEGIN_RES ARG D 557
REMARK  4 active torsions:
REMARK  status: ('A' for Active; 'I' for Inactive)
REMARK    1  A    between atoms: CA   and  CB  
REMARK    2  A    between atoms: CB   and  CG  
REMARK    3  A    between atoms: CG   and  CD  
REMARK    4  A    between atoms: CD   and  NE  
REMARK       I    between atoms: NE   and  CZ  
REMARK       I    between atoms: CZ   and  NH1 
REMARK       I    between atoms: CZ   and  NH2 
ROOT
ATOM      1  CA  ARG D 557     -26.217   2.705 -17.014  1.00 35.49     0.159 C 
ENDROOT
BRANCH   1   2
ATOM      2  CB  ARG D 557     -26.789   1.319 -17.183  1.00 35.49     0.034 C 
BRANCH   2   3
ATOM      3  CG  ARG D 557     -25.892   0.194 -16.892  1.00 35.49     0.027 C 
BRANCH   3   4
ATOM      4  CD  ARG D 557     -24.556   0.641 -16.435  1.00 35.49     0.116 C 
BRANCH   4   5
ATOM      5  NE  ARG D 557     -23.619  -0.448 -16.351  1.00 35.49    -0.212 N 
ATOM      6  CZ  ARG D 557     -23.337  -1.136 -15.268  1.00 35.49     0.666 C 
ATOM      7  NH1 ARG D 557     -23.895  -0.880 -14.099  1.00 35.49    -0.235 N 
ATOM      8  NH2 ARG D 557     -22.476  -2.106 -15.380  1.00 35.49    -0.235 N 
ATOM      9  HH  ARG D 557     -24.465  -0.248 -14.002  1.00 35.49     0.174 HD
ATOM     10  HH  ARG D 557     -23.674  -1.364 -13.427  1.00 35.49     0.174 HD
ATOM     11  HH  ARG D 557     -22.138  -2.254 -16.149  1.00 35.49     0.174 HD
ATOM     12  HH  ARG D 557     -22.272  -2.575 -14.704  1.00 35.49     0.174 HD
ATOM     13  HE  ARG D 557     -23.160  -0.634 -17.042  1.00 35.49     0.178 HD
ENDBRANCH   4   5
ENDBRANCH   3   4
ENDBRANCH   2   3
ENDBRANCH   1   2
END_RES ARG D 557
BEGIN_RES GLU D 570
REMARK  3 active torsions:
REMARK  status: ('A' for Active; 'I' for Inactive)
REMARK    5  A    between atoms: CA   and  CB  
REMARK    6  A    between atoms: CB   and  CG  
REMARK    7  A    between atoms: CG   and  CD  
ROOT
ATOM     14  CA  GLU D 570     -18.033  -6.348 -13.375  1.00 32.92     0.160 C 
ENDROOT
BRANCH  14  15
ATOM     15  CB  GLU D 570     -19.500  -6.345 -13.794  1.00 32.92     0.043 C 
BRANCH  15  16
ATOM     16  CG  GLU D 570     -20.082  -7.630 -14.260  1.00 32.92     0.100 C 
BRANCH  16  17
ATOM     17  CD  GLU D 570     -20.469  -7.607 -15.720  1.00 32.92     0.185 C 
ATOM     18  OE1 GLU D 570     -20.848  -8.663 -16.262  1.00 32.92    -0.647 OA
ATOM     19  OE2 GLU D 570     -20.376  -6.525 -16.332  1.00 32.92    -0.647 OA
ENDBRANCH  16  17
ENDBRANCH  15  16
ENDBRANCH  14  15
END_RES GLU D 570
ENDMDL
MODEL 8
REMARK VINA RESULT:      -9.2      1.845      6.892
REMARK  4 active torsions:
REMARK  status: ('A' for Active; 'I' for Inactive)
REMARK    1  A    between atoms: C_5  and  N_8 
REMARK    2  A    between atoms: N_8  and  C_9 
REMARK    3  A    between atoms: C_12  and  N_15 
REMARK    4  A    between atoms: N_15  and  C_16 
ROOT
HETATM    1  C   UNL     1     -20.524  -7.418  -4.307  1.00  0.00     0.048 C 
HETATM    2  C   UNL     1     -20.707  -8.803  -4.265  1.00  0.00     0.058 C 
HETATM    3  C   UNL     1     -21.536  -9.374  -3.310  1.00  0.00     0.053 C 
HETATM    4  C   UNL     1     -21.838  -8.669  -2.138  1.00  0.00     0.028 C 
HETATM    5  C   UNL     1     -21.655  -7.287  -2.148  1.00  0.00     0.027 C 
HETATM    6  C   UNL     1     -21.076  -6.660  -3.263  1.00  0.00     0.032 C 
HETATM    7  C   UNL     1     -22.279 -10.589  -3.737  1.00  0.00     0.196 C 
HETATM    8  O   UNL     1     -23.378 -10.857  -3.260  1.00  0.00    -0.287 OA
HETATM    9  C   UNL     1     -21.763 -11.378  -4.873  1.00  0.00     0.029 A 
HETATM   10  C   UNL     1     -22.485 -12.463  -5.375  1.00  0.00     0.016 A 
HETATM   11  C   UNL     1     -21.960 -13.220  -6.424  1.00  0.00     0.001 A 
HETATM   12  C   UNL     1     -20.697 -12.924  -6.943  1.00  0.00     0.001 A 
HETATM   13  C   UNL     1     -19.993 -11.822  -6.470  1.00  0.00     0.016 A 
HETATM   14  C   UNL     1     -20.562 -11.018  -5.477  1.00  0.00     0.029 A 
HETATM   15  C   UNL     1     -19.973  -9.708  -5.170  1.00  0.00     0.196 C 
HETATM   16  O   UNL     1     -18.902  -9.364  -5.657  1.00  0.00    -0.286 OA
ENDROOT
BRANCH   1  17
HETATM   17  N   UNL     1     -20.037  -6.809  -5.494  1.00  0.00    -0.355 N 
HETATM   18  H   UNL     1     -19.138  -6.342  -5.314  1.00  0.00     0.166 HD
BRANCH  17  19
HETATM   19  C   UNL     1     -20.789  -6.044  -6.404  1.00  0.00     0.032 A 
HETATM   20  C   UNL     1     -22.060  -5.565  -6.067  1.00  0.00     0.030 A 
HETATM   21  C   UNL     1     -22.777  -4.784  -6.969  1.00  0.00     0.009 A 
HETATM   22  C   UNL     1     -22.226  -4.444  -8.207  1.00  0.00    -0.062 A 
HETATM   23  C   UNL     1     -23.020  -3.652  -9.202  1.00  0.00     0.048 C 
HETATM   24  C   UNL     1     -20.928  -4.867  -8.517  1.00  0.00     0.009 A 
HETATM   25  C   UNL     1     -20.208  -5.649  -7.612  1.00  0.00     0.030 A 
ENDBRANCH  17  19
ENDBRANCH   1  17
BRANCH   4  26
HETATM   26  N   UNL     1     -22.324  -9.291  -0.952  1.00  0.00    -0.259 NA
HETATM   27  H   UNL     1     -23.333  -9.425  -1.034  1.00  0.00     0.134 HD
BRANCH  26  28
HETATM   28  C   UNL     1     -21.719 -10.462  -0.405  1.00  0.00     0.012 C 
HETATM   29  C   UNL     1     -20.325 -10.616  -0.393  1.00  0.00     0.024 C 
HETATM   30  C   UNL     1     -19.746 -11.841  -0.052  1.00  0.00     0.008 C 
HETATM   31  C   UNL     1     -20.551 -12.917   0.322  1.00  0.00    -0.062 C 
HETATM   32  C   UNL     1     -21.930 -12.719   0.449  1.00  0.00     0.008 C 
HETATM   33  C   UNL     1     -19.961 -14.279   0.541  1.00  0.00     0.048 C 
HETATM   34  C   UNL     1     -22.509 -11.495   0.104  1.00  0.00     0.024 C 
ENDBRANCH  26  28
ENDBRANCH   4  26
TORSDOF 4
BEGIN_RES ARG D 557
REMARK  4 active torsions:
REMARK  status: ('A' for Active; 'I' for Inactive)
REMARK    1  A    between atoms: CA   and  CB  
REMARK    2  A    between atoms: CB   and  CG  
REMARK    3  A    between atoms: CG   and  CD  
REMARK    4  A    between atoms: CD   and  NE  
REMARK       I    between atoms: NE   and  CZ  
REMARK       I    between atoms: CZ   and  NH1 
REMARK       I    between atoms: CZ   and  NH2 
ROOT
ATOM      1  CA  ARG D 557     -26.217   2.705 -17.014  1.00 35.49     0.159 C 
ENDROOT
BRANCH   1   2
ATOM      2  CB  ARG D 557     -26.789   1.319 -17.183  1.00 35.49     0.034 C 
BRANCH   2   3
ATOM      3  CG  ARG D 557     -25.865   0.195 -16.988  1.00 35.49     0.027 C 
BRANCH   3   4
ATOM      4  CD  ARG D 557     -26.277  -0.687 -15.872  1.00 35.49     0.116 C 
BRANCH   4   5
ATOM      5  NE  ARG D 557     -25.212  -0.898 -14.927  1.00 35.49    -0.212 N 
ATOM      6  CZ  ARG D 557     -24.903  -2.043 -14.360  1.00 35.49     0.666 C 
ATOM      7  NH1 ARG D 557     -25.573  -3.155 -14.599  1.00 35.49    -0.235 N 
ATOM      8  NH2 ARG D 557     -23.891  -2.054 -13.542  1.00 35.49    -0.235 N 
ATOM      9  HH  ARG D 557     -26.241  -3.171 -15.135  1.00 35.49     0.174 HD
ATOM     10  HH  ARG D 557     -25.325  -3.873 -14.202  1.00 35.49     0.174 HD
ATOM     11  HH  ARG D 557     -23.473  -1.322 -13.413  1.00 35.49     0.174 HD
ATOM     12  HH  ARG D 557     -23.660  -2.775 -13.160  1.00 35.49     0.174 HD
ATOM     13  HE  ARG D 557     -24.774  -0.219 -14.660  1.00 35.49     0.178 HD
ENDBRANCH   4   5
ENDBRANCH   3   4
ENDBRANCH   2   3
ENDBRANCH   1   2
END_RES ARG D 557
BEGIN_RES GLU D 570
REMARK  3 active torsions:
REMARK  status: ('A' for Active; 'I' for Inactive)
REMARK    5  A    between atoms: CA   and  CB  
REMARK    6  A    between atoms: CB   and  CG  
REMARK    7  A    between atoms: CG   and  CD  
ROOT
ATOM     14  CA  GLU D 570     -18.033  -6.348 -13.375  1.00 32.92     0.160 C 
ENDROOT
BRANCH  14  15
ATOM     15  CB  GLU D 570     -19.500  -6.345 -13.794  1.00 32.92     0.043 C 
BRANCH  15  16
ATOM     16  CG  GLU D 570     -20.449  -5.566 -12.958  1.00 32.92     0.100 C 
BRANCH  16  17
ATOM     17  CD  GLU D 570     -21.692  -5.149 -13.709  1.00 32.92     0.185 C 
ATOM     18  OE1 GLU D 570     -22.720  -4.863 -13.067  1.00 32.92    -0.647 OA
ATOM     19  OE2 GLU D 570     -21.641  -5.125 -14.955  1.00 32.92    -0.647 OA
ENDBRANCH  16  17
ENDBRANCH  15  16
ENDBRANCH  14  15
END_RES GLU D 570
ENDMDL
MODEL 9
REMARK VINA RESULT:      -9.2      2.382      5.216
REMARK  4 active torsions:
REMARK  status: ('A' for Active; 'I' for Inactive)
REMARK    1  A    between atoms: C_5  and  N_8 
REMARK    2  A    between atoms: N_8  and  C_9 
REMARK    3  A    between atoms: C_12  and  N_15 
REMARK    4  A    between atoms: N_15  and  C_16 
ROOT
HETATM    1  C   UNL     1     -22.211 -10.937  -3.062  1.00  0.00     0.048 C 
HETATM    2  C   UNL     1     -21.555 -10.896  -4.296  1.00  0.00     0.058 C 
HETATM    3  C   UNL     1     -20.655  -9.879  -4.581  1.00  0.00     0.053 C 
HETATM    4  C   UNL     1     -20.714  -8.677  -3.865  1.00  0.00     0.028 C 
HETATM    5  C   UNL     1     -21.371  -8.685  -2.636  1.00  0.00     0.027 C 
HETATM    6  C   UNL     1     -22.044  -9.838  -2.204  1.00  0.00     0.032 C 
HETATM    7  C   UNL     1     -19.501 -10.254  -5.439  1.00  0.00     0.196 C 
HETATM    8  O   UNL     1     -18.419  -9.686  -5.326  1.00  0.00    -0.287 OA
HETATM    9  C   UNL     1     -19.616 -11.441  -6.310  1.00  0.00     0.029 A 
HETATM   10  C   UNL     1     -18.521 -11.891  -7.050  1.00  0.00     0.016 A 
HETATM   11  C   UNL     1     -18.661 -12.992  -7.899  1.00  0.00     0.001 A 
HETATM   12  C   UNL     1     -19.903 -13.616  -8.041  1.00  0.00     0.001 A 
HETATM   13  C   UNL     1     -20.986 -13.193  -7.276  1.00  0.00     0.016 A 
HETATM   14  C   UNL     1     -20.816 -12.144  -6.368  1.00  0.00     0.029 A 
HETATM   15  C   UNL     1     -21.850 -11.873  -5.360  1.00  0.00     0.196 C 
HETATM   16  O   UNL     1     -22.932 -12.448  -5.394  1.00  0.00    -0.286 OA
ENDROOT
BRANCH   1  17
HETATM   17  N   UNL     1     -22.787 -12.154  -2.612  1.00  0.00    -0.355 N 
HETATM   18  H   UNL     1     -23.763 -12.228  -2.930  1.00  0.00     0.166 HD
BRANCH  17  19
HETATM   19  C   UNL     1     -22.672 -12.701  -1.321  1.00  0.00     0.032 A 
HETATM   20  C   UNL     1     -21.508 -13.367  -0.921  1.00  0.00     0.030 A 
HETATM   21  C   UNL     1     -21.400 -13.875   0.370  1.00  0.00     0.009 A 
HETATM   22  C   UNL     1     -22.436 -13.701   1.291  1.00  0.00    -0.062 A 
HETATM   23  C   UNL     1     -22.345 -14.298   2.662  1.00  0.00     0.048 C 
HETATM   24  C   UNL     1     -23.572 -12.977   0.911  1.00  0.00     0.009 A 
HETATM   25  C   UNL     1     -23.680 -12.465  -0.384  1.00  0.00     0.030 A 
ENDBRANCH  17  19
ENDBRANCH   1  17
BRANCH   4  26
HETATM   26  N   UNL     1     -20.133  -7.460  -4.328  1.00  0.00    -0.259 NA
HETATM   27  H   UNL     1     -19.131  -7.598  -4.466  1.00  0.00     0.134 HD
BRANCH  26  28
HETATM   28  C   UNL     1     -20.680  -6.725  -5.422  1.00  0.00     0.012 C 
HETATM   29  C   UNL     1     -19.911  -6.446  -6.561  1.00  0.00     0.024 C 
HETATM   30  C   UNL     1     -20.373  -5.555  -7.534  1.00  0.00     0.008 C 
HETATM   31  C   UNL     1     -21.629  -4.963  -7.401  1.00  0.00    -0.062 C 
HETATM   32  C   UNL     1     -22.453  -5.354  -6.340  1.00  0.00     0.008 C 
HETATM   33  C   UNL     1     -22.077  -3.892  -8.350  1.00  0.00     0.048 C 
HETATM   34  C   UNL     1     -21.989  -6.241  -5.366  1.00  0.00     0.024 C 
ENDBRANCH  26  28
ENDBRANCH   4  26
TORSDOF 4
BEGIN_RES ARG D 557
REMARK  4 active torsions:
REMARK  status: ('A' for Active; 'I' for Inactive)
REMARK    1  A    between atoms: CA   and  CB  
REMARK    2  A    between atoms: CB   and  CG  
REMARK    3  A    between atoms: CG   and  CD  
REMARK    4  A    between atoms: CD   and  NE  
REMARK       I    between atoms: NE   and  CZ  
REMARK       I    between atoms: CZ   and  NH1 
REMARK       I    between atoms: CZ   and  NH2 
ROOT
ATOM      1  CA  ARG D 557     -26.217   2.705 -17.014  1.00 35.49     0.159 C 
ENDROOT
BRANCH   1   2
ATOM      2  CB  ARG D 557     -26.789   1.319 -17.183  1.00 35.49     0.034 C 
BRANCH   2   3
ATOM      3  CG  ARG D 557     -25.836   0.203 -17.156  1.00 35.49     0.027 C 
BRANCH   3   4
ATOM      4  CD  ARG D 557     -24.752   0.410 -16.169  1.00 35.49     0.116 C 
BRANCH   4   5
ATOM      5  NE  ARG D 557     -24.898  -0.439 -15.017  1.00 35.49    -0.212 N 
ATOM      6  CZ  ARG D 557     -24.085  -1.413 -14.673  1.00 35.49     0.666 C 
ATOM      7  NH1 ARG D 557     -23.019  -1.732 -15.383  1.00 35.49    -0.235 N 
ATOM      8  NH2 ARG D 557     -24.360  -2.068 -13.582  1.00 35.49    -0.235 N 
ATOM      9  HH  ARG D 557     -22.817  -1.313 -16.103  1.00 35.49     0.174 HD
ATOM     10  HH  ARG D 557     -22.524  -2.375 -15.108  1.00 35.49     0.174 HD
ATOM     11  HH  ARG D 557     -25.051  -1.835 -13.139  1.00 35.49     0.174 HD
ATOM     12  HH  ARG D 557     -23.857  -2.700 -13.326  1.00 35.49     0.174 HD
ATOM     13  HE  ARG D 557     -25.597  -0.351 -14.542  1.00 35.49     0.178 HD
ENDBRANCH   4   5
ENDBRANCH   3   4
ENDBRANCH   2   3
ENDBRANCH   1   2
END_RES ARG D 557
BEGIN_RES GLU D 570
REMARK  3 active torsions:
REMARK  status: ('A' for Active; 'I' for Inactive)
REMARK    5  A    between atoms: CA   and  CB  
REMARK    6  A    between atoms: CB   and  CG  
REMARK    7  A    between atoms: CG   and  CD  
ROOT
ATOM     14  CA  GLU D 570     -18.033  -6.348 -13.375  1.00 32.92     0.160 C 
ENDROOT
BRANCH  14  15
ATOM     15  CB  GLU D 570     -19.500  -6.345 -13.794  1.00 32.92     0.043 C 
BRANCH  15  16
ATOM     16  CG  GLU D 570     -20.443  -5.536 -12.979  1.00 32.92     0.100 C 
BRANCH  16  17
ATOM     17  CD  GLU D 570     -21.739  -5.242 -13.697  1.00 32.92     0.185 C 
ATOM     18  OE1 GLU D 570     -22.288  -4.136 -13.526  1.00 32.92    -0.647 OA
ATOM     19  OE2 GLU D 570     -22.220  -6.132 -14.426  1.00 32.92    -0.647 OA
ENDBRANCH  16  17
ENDBRANCH  15  16
ENDBRANCH  14  15
END_RES GLU D 570
ENDMDL
