MODEL 1
REMARK VINA RESULT:      -6.0      0.000      0.000
REMARK WARNING: 32 MAX_TORS EXCEEDED!!!
REMARK  72 active torsions:
REMARK  status: ('A' for Active; 'I' for Inactive)
REMARK    1  A    between atoms: C_2  and  C_4 
REMARK    2  A    between atoms: C_4  and  C_5 
REMARK    3  A    between atoms: C_5  and  C_6 
REMARK    4  A    between atoms: C_6  and  C_7 
REMARK    5  A    between atoms: C_7  and  C_8 
REMARK    6  A    between atoms: C_8  and  C_9 
REMARK    7  A    between atoms: C_9  and  C_10 
REMARK    8  A    between atoms: C_10  and  C_11 
REMARK    9  A    between atoms: C_11  and  C_12 
REMARK   10  A    between atoms: C_12  and  C_13 
REMARK   11  A    between atoms: C_13  and  C_14 
REMARK   12  A    between atoms: C_14  and  C_15 
REMARK   13  A    between atoms: C_15  and  C_16 
REMARK   14  A    between atoms: C_16  and  C_17 
REMARK   15  A    between atoms: C_17  and  C_18 
REMARK   16  A    between atoms: C_18  and  O_20 
REMARK   17  A    between atoms: O_20  and  C_21 
REMARK   18  A    between atoms: C_21  and  C_22 
REMARK   19  A    between atoms: C_22  and  C_23 
REMARK   20  A    between atoms: C_22  and  C_44 
REMARK   21  A    between atoms: C_22  and  C_65 
REMARK   22  A    between atoms: C_23  and  O_24 
REMARK   23  A    between atoms: O_24  and  C_25 
REMARK   24  A    between atoms: C_25  and  C_27 
REMARK   25  A    between atoms: C_27  and  C_28 
REMARK   26  A    between atoms: C_28  and  C_29 
REMARK   27  A    between atoms: C_29  and  C_30 
REMARK   28  A    between atoms: C_30  and  C_31 
REMARK   29  A    between atoms: C_31  and  C_32 
REMARK   30  A    between atoms: C_32  and  C_33 
REMARK   31  A    between atoms: C_33  and  C_34 
REMARK   32  A    between atoms: C_34  and  C_35 
REMARK   33  A    between atoms: C_35  and  C_36 
REMARK   34  A    between atoms: C_36  and  C_37 
REMARK   35  A    between atoms: C_37  and  C_38 
REMARK   36  A    between atoms: C_38  and  C_39 
REMARK   37  A    between atoms: C_39  and  C_40 
REMARK   38  A    between atoms: C_40  and  C_41 
REMARK   39  A    between atoms: C_44  and  O_45 
REMARK   40  A    between atoms: O_45  and  C_46 
REMARK   41  A    between atoms: C_46  and  C_48 
REMARK   42  A    between atoms: C_48  and  C_49 
REMARK   43  A    between atoms: C_49  and  C_50 
REMARK   44  A    between atoms: C_50  and  C_51 
REMARK   45  A    between atoms: C_51  and  C_52 
REMARK   46  A    between atoms: C_52  and  C_53 
REMARK   47  A    between atoms: C_53  and  C_54 
REMARK   48  A    between atoms: C_54  and  C_55 
REMARK   49  A    between atoms: C_55  and  C_56 
REMARK   50  A    between atoms: C_56  and  C_57 
REMARK   51  A    between atoms: C_57  and  C_58 
REMARK   52  A    between atoms: C_58  and  C_59 
REMARK   53  A    between atoms: C_59  and  C_60 
REMARK   54  A    between atoms: C_60  and  C_61 
REMARK   55  A    between atoms: C_61  and  C_62 
REMARK   56  A    between atoms: C_65  and  O_66 
REMARK   57  A    between atoms: O_66  and  C_67 
REMARK   58  A    between atoms: C_67  and  C_69 
REMARK   59  A    between atoms: C_69  and  C_70 
REMARK   60  A    between atoms: C_70  and  C_71 
REMARK   61  A    between atoms: C_71  and  C_72 
REMARK   62  A    between atoms: C_72  and  C_73 
REMARK   63  A    between atoms: C_73  and  C_74 
REMARK   64  A    between atoms: C_74  and  C_75 
REMARK   65  A    between atoms: C_75  and  C_76 
REMARK   66  A    between atoms: C_76  and  C_77 
REMARK   67  A    between atoms: C_77  and  C_78 
REMARK   68  A    between atoms: C_78  and  C_79 
REMARK   69  A    between atoms: C_79  and  C_80 
REMARK   70  A    between atoms: C_80  and  C_81 
REMARK   71  A    between atoms: C_81  and  C_82 
REMARK   72  A    between atoms: C_82  and  C_83 
ROOT
HETATM    1  C   UNL     1     -21.258  -7.855  -2.976  1.00  0.00     0.048 C 
ENDROOT
BRANCH   1   2
HETATM    2  C   UNL     1     -21.844  -8.578  -4.213  1.00  0.00     0.195 C 
BRANCH   2   3
HETATM    3  O   UNL     1     -21.988  -9.999  -3.978  1.00  0.00    -0.320 OA
BRANCH   3   4
HETATM    4  C   UNL     1     -21.692 -10.816  -5.032  1.00  0.00     0.258 C 
HETATM    5  O   UNL     1     -21.195 -10.458  -6.095  1.00  0.00    -0.265 OA
BRANCH   4   6
HETATM    6  C   UNL     1     -22.031 -12.259  -4.722  1.00  0.00     0.111 C 
BRANCH   6   7
HETATM    7  C   UNL     1     -22.695 -12.893  -5.934  1.00  0.00     0.010 C 
BRANCH   7   8
HETATM    8  C   UNL     1     -21.890 -14.054  -6.500  1.00  0.00     0.000 C 
BRANCH   8   9
HETATM    9  C   UNL     1     -22.779 -15.285  -6.626  1.00  0.00     0.000 C 
BRANCH   9  10
HETATM   10  C   UNL     1     -24.127 -15.028  -5.973  1.00  0.00     0.000 C 
BRANCH  10  11
HETATM   11  C   UNL     1     -24.387 -16.056  -4.885  1.00  0.00     0.000 C 
BRANCH  11  12
HETATM   12  C   UNL     1     -24.178 -15.425  -3.521  1.00  0.00     0.000 C 
BRANCH  12  13
HETATM   13  C   UNL     1     -23.532 -16.426  -2.582  1.00  0.00     0.000 C 
BRANCH  13  14
HETATM   14  C   UNL     1     -22.030 -16.433  -2.791  1.00  0.00     0.000 C 
BRANCH  14  15
HETATM   15  C   UNL     1     -21.490 -15.022  -2.658  1.00  0.00     0.000 C 
BRANCH  15  16
HETATM   16  C   UNL     1     -20.002 -15.013  -2.939  1.00  0.00     0.000 C 
BRANCH  16  17
HETATM   17  C   UNL     1     -19.719 -15.798  -4.206  1.00  0.00     0.000 C 
BRANCH  17  18
HETATM   18  C   UNL     1     -18.326 -15.466  -4.695  1.00  0.00     0.000 C 
BRANCH  18  19
HETATM   19  C   UNL     1     -17.960 -14.032  -4.345  1.00  0.00     0.004 C 
BRANCH  19  20
HETATM   20  C   UNL     1     -17.359 -13.303  -5.550  1.00  0.00    -0.023 C 
HETATM   21  C   UNL     1     -16.303 -14.186  -6.206  1.00  0.00     0.009 C 
HETATM   22  C   UNL     1     -18.436 -12.942  -6.572  1.00  0.00     0.009 C 
ENDBRANCH  19  20
ENDBRANCH  18  19
ENDBRANCH  17  18
ENDBRANCH  16  17
ENDBRANCH  15  16
ENDBRANCH  14  15
ENDBRANCH  13  14
ENDBRANCH  12  13
ENDBRANCH  11  12
ENDBRANCH  10  11
ENDBRANCH   9  10
ENDBRANCH   8   9
ENDBRANCH   7   8
ENDBRANCH   6   7
ENDBRANCH   4   6
ENDBRANCH   3   4
ENDBRANCH   2   3
ENDBRANCH   1   2
BRANCH   1  23
HETATM   23  C   UNL     1     -19.833  -8.383  -2.701  1.00  0.00     0.195 C 
BRANCH  23  24
HETATM   24  O   UNL     1     -19.068  -8.575  -3.910  1.00  0.00    -0.320 OA
BRANCH  24  25
HETATM   25  C   UNL     1     -18.415  -9.772  -3.996  1.00  0.00     0.258 C 
HETATM   26  O   UNL     1     -18.744 -10.798  -3.413  1.00  0.00    -0.265 OA
BRANCH  25  27
HETATM   27  C   UNL     1     -17.289  -9.705  -5.004  1.00  0.00     0.111 C 
BRANCH  27  28
HETATM   28  C   UNL     1     -15.966 -10.098  -4.355  1.00  0.00     0.010 C 
BRANCH  28  29
HETATM   29  C   UNL     1     -15.951  -9.809  -2.858  1.00  0.00     0.000 C 
BRANCH  29  30
HETATM   30  C   UNL     1     -15.580 -11.062  -2.079  1.00  0.00     0.000 C 
BRANCH  30  31
HETATM   31  C   UNL     1     -14.974 -12.098  -3.010  1.00  0.00     0.000 C 
BRANCH  31  32
HETATM   32  C   UNL     1     -14.963 -13.458  -2.334  1.00  0.00     0.000 C 
BRANCH  32  33
HETATM   33  C   UNL     1     -13.543 -13.826  -1.950  1.00  0.00     0.000 C 
BRANCH  33  34
HETATM   34  C   UNL     1     -13.551 -14.693  -0.706  1.00  0.00     0.000 C 
BRANCH  34  35
HETATM   35  C   UNL     1     -12.131 -14.926  -0.227  1.00  0.00     0.000 C 
BRANCH  35  36
HETATM   36  C   UNL     1     -11.791 -13.933   0.868  1.00  0.00     0.000 C 
BRANCH  36  37
HETATM   37  C   UNL     1     -10.352 -13.482   0.725  1.00  0.00     0.000 C 
BRANCH  37  38
HETATM   38  C   UNL     1      -9.766 -13.209   2.098  1.00  0.00     0.000 C 
BRANCH  38  39
HETATM   39  C   UNL     1      -8.695 -14.234   2.394  1.00  0.00     0.000 C 
BRANCH  39  40
HETATM   40  C   UNL     1      -8.932 -14.885   3.749  1.00  0.00     0.004 C 
BRANCH  40  41
HETATM   41  C   UNL     1      -9.537 -16.283   3.594  1.00  0.00    -0.023 C 
HETATM   42  C   UNL     1     -11.055 -16.252   3.775  1.00  0.00     0.009 C 
HETATM   43  C   UNL     1      -9.195 -16.837   2.214  1.00  0.00     0.009 C 
ENDBRANCH  40  41
ENDBRANCH  39  40
ENDBRANCH  38  39
ENDBRANCH  37  38
ENDBRANCH  36  37
ENDBRANCH  35  36
ENDBRANCH  34  35
ENDBRANCH  33  34
ENDBRANCH  32  33
ENDBRANCH  31  32
ENDBRANCH  30  31
ENDBRANCH  29  30
ENDBRANCH  28  29
ENDBRANCH  27  28
ENDBRANCH  25  27
ENDBRANCH  24  25
ENDBRANCH  23  24
ENDBRANCH   1  23
BRANCH   1  44
HETATM   44  C   UNL     1     -21.194  -6.331  -3.242  1.00  0.00     0.195 C 
BRANCH  44  45
HETATM   45  O   UNL     1     -21.688  -5.967  -4.552  1.00  0.00    -0.320 OA
BRANCH  45  46
HETATM   46  C   UNL     1     -20.790  -5.383  -5.389  1.00  0.00     0.258 C 
HETATM   47  O   UNL     1     -20.016  -4.456  -5.090  1.00  0.00    -0.265 OA
BRANCH  46  48
HETATM   48  C   UNL     1     -20.762  -6.085  -6.734  1.00  0.00     0.111 C 
BRANCH  48  49
HETATM   49  C   UNL     1     -20.968  -5.090  -7.862  1.00  0.00     0.010 C 
BRANCH  49  50
HETATM   50  C   UNL     1     -22.206  -4.227  -7.650  1.00  0.00     0.000 C 
BRANCH  50  51
HETATM   51  C   UNL     1     -22.683  -3.669  -8.983  1.00  0.00     0.000 C 
BRANCH  51  52
HETATM   52  C   UNL     1     -23.914  -4.420  -9.456  1.00  0.00     0.000 C 
BRANCH  52  53
HETATM   53  C   UNL     1     -23.782  -4.774 -10.927  1.00  0.00     0.000 C 
BRANCH  53  54
HETATM   54  C   UNL     1     -22.430  -4.319 -11.446  1.00  0.00     0.000 C 
BRANCH  54  55
HETATM   55  C   UNL     1     -22.281  -4.707 -12.905  1.00  0.00     0.000 C 
BRANCH  55  56
HETATM   56  C   UNL     1     -23.395  -5.656 -13.301  1.00  0.00     0.000 C 
BRANCH  56  57
HETATM   57  C   UNL     1     -23.641  -5.559 -14.794  1.00  0.00     0.000 C 
BRANCH  57  58
HETATM   58  C   UNL     1     -25.130  -5.504 -15.067  1.00  0.00     0.000 C 
BRANCH  58  59
HETATM   59  C   UNL     1     -25.543  -6.721 -15.875  1.00  0.00     0.000 C 
BRANCH  59  60
HETATM   60  C   UNL     1     -26.420  -6.278 -17.025  1.00  0.00     0.000 C 
BRANCH  60  61
HETATM   61  C   UNL     1     -27.371  -5.176 -16.581  1.00  0.00     0.004 C 
BRANCH  61  62
HETATM   62  C   UNL     1     -28.799  -5.447 -17.067  1.00  0.00    -0.023 C 
HETATM   63  C   UNL     1     -29.781  -5.487 -15.896  1.00  0.00     0.009 C 
HETATM   64  C   UNL     1     -29.217  -4.362 -18.052  1.00  0.00     0.009 C 
ENDBRANCH  61  62
ENDBRANCH  60  61
ENDBRANCH  59  60
ENDBRANCH  58  59
ENDBRANCH  57  58
ENDBRANCH  56  57
ENDBRANCH  55  56
ENDBRANCH  54  55
ENDBRANCH  53  54
ENDBRANCH  52  53
ENDBRANCH  51  52
ENDBRANCH  50  51
ENDBRANCH  49  50
ENDBRANCH  48  49
ENDBRANCH  46  48
ENDBRANCH  45  46
ENDBRANCH  44  45
ENDBRANCH   1  44
BRANCH   1  65
HETATM   65  C   UNL     1     -22.134  -8.115  -1.724  1.00  0.00     0.195 C 
BRANCH  65  66
HETATM   66  O   UNL     1     -21.569  -7.590  -0.501  1.00  0.00    -0.320 OA
BRANCH  66  67
HETATM   67  C   UNL     1     -21.988  -8.190   0.649  1.00  0.00     0.258 C 
HETATM   68  O   UNL     1     -23.138  -8.162   1.071  1.00  0.00    -0.265 OA
BRANCH  67  69
HETATM   69  C   UNL     1     -20.840  -8.927   1.312  1.00  0.00     0.111 C 
BRANCH  69  70
HETATM   70  C   UNL     1     -21.003 -10.431   1.098  1.00  0.00     0.010 C 
BRANCH  70  71
HETATM   71  C   UNL     1     -20.418 -10.901  -0.228  1.00  0.00     0.000 C 
BRANCH  71  72
HETATM   72  C   UNL     1     -21.473 -11.658  -1.027  1.00  0.00     0.000 C 
BRANCH  72  73
HETATM   73  C   UNL     1     -22.824 -11.562  -0.337  1.00  0.00     0.000 C 
BRANCH  73  74
HETATM   74  C   UNL     1     -23.756 -12.641  -0.858  1.00  0.00     0.000 C 
BRANCH  74  75
HETATM   75  C   UNL     1     -23.708 -13.851   0.057  1.00  0.00     0.000 C 
BRANCH  75  76
HETATM   76  C   UNL     1     -23.335 -13.420   1.463  1.00  0.00     0.000 C 
BRANCH  76  77
HETATM   77  C   UNL     1     -22.124 -14.200   1.936  1.00  0.00     0.000 C 
BRANCH  77  78
HETATM   78  C   UNL     1     -21.854 -15.350   0.986  1.00  0.00     0.000 C 
BRANCH  78  79
HETATM   79  C   UNL     1     -20.363 -15.568   0.853  1.00  0.00     0.000 C 
BRANCH  79  80
HETATM   80  C   UNL     1     -19.660 -14.229   0.734  1.00  0.00     0.000 C 
BRANCH  80  81
HETATM   81  C   UNL     1     -18.227 -14.455   0.306  1.00  0.00     0.000 C 
BRANCH  81  82
HETATM   82  C   UNL     1     -17.442 -13.153   0.349  1.00  0.00     0.004 C 
BRANCH  82  83
HETATM   83  C   UNL     1     -16.534 -13.093   1.581  1.00  0.00    -0.023 C 
HETATM   84  C   UNL     1     -16.140 -14.495   2.046  1.00  0.00     0.009 C 
HETATM   85  C   UNL     1     -15.279 -12.290   1.252  1.00  0.00     0.009 C 
ENDBRANCH  82  83
ENDBRANCH  81  82
ENDBRANCH  80  81
ENDBRANCH  79  80
ENDBRANCH  78  79
ENDBRANCH  77  78
ENDBRANCH  76  77
ENDBRANCH  75  76
ENDBRANCH  74  75
ENDBRANCH  73  74
ENDBRANCH  72  73
ENDBRANCH  71  72
ENDBRANCH  70  71
ENDBRANCH  69  70
ENDBRANCH  67  69
ENDBRANCH  66  67
ENDBRANCH  65  66
ENDBRANCH   1  65
TORSDOF 72
BEGIN_RES ARG D 557
REMARK  4 active torsions:
REMARK  status: ('A' for Active; 'I' for Inactive)
REMARK    1  A    between atoms: CA   and  CB  
REMARK    2  A    between atoms: CB   and  CG  
REMARK    3  A    between atoms: CG   and  CD  
REMARK    4  A    between atoms: CD   and  NE  
REMARK       I    between atoms: NE   and  CZ  
REMARK       I    between atoms: CZ   and  NH1 
REMARK       I    between atoms: CZ   and  NH2 
ROOT
ATOM      1  CA  ARG D 557     -26.217   2.705 -17.014  1.00 35.49     0.159 C 
ENDROOT
BRANCH   1   2
ATOM      2  CB  ARG D 557     -26.789   1.319 -17.183  1.00 35.49     0.034 C 
BRANCH   2   3
ATOM      3  CG  ARG D 557     -25.839   0.201 -17.129  1.00 35.49     0.027 C 
BRANCH   3   4
ATOM      4  CD  ARG D 557     -24.769   0.418 -16.129  1.00 35.49     0.116 C 
BRANCH   4   5
ATOM      5  NE  ARG D 557     -24.921  -0.433 -14.979  1.00 35.49    -0.212 N 
ATOM      6  CZ  ARG D 557     -24.128  -1.429 -14.649  1.00 35.49     0.666 C 
ATOM      7  NH1 ARG D 557     -23.080  -1.771 -15.376  1.00 35.49    -0.235 N 
ATOM      8  NH2 ARG D 557     -24.406  -2.081 -13.558  1.00 35.49    -0.235 N 
ATOM      9  HH  ARG D 557     -22.877  -1.354 -16.096  1.00 35.49     0.174 HD
ATOM     10  HH  ARG D 557     -22.597  -2.427 -15.110  1.00 35.49     0.174 HD
ATOM     11  HH  ARG D 557     -25.085  -1.833 -13.105  1.00 35.49     0.174 HD
ATOM     12  HH  ARG D 557     -23.915  -2.727 -13.311  1.00 35.49     0.174 HD
ATOM     13  HE  ARG D 557     -25.612  -0.330 -14.494  1.00 35.49     0.178 HD
ENDBRANCH   4   5
ENDBRANCH   3   4
ENDBRANCH   2   3
ENDBRANCH   1   2
END_RES ARG D 557
BEGIN_RES GLU D 570
REMARK  3 active torsions:
REMARK  status: ('A' for Active; 'I' for Inactive)
REMARK    5  A    between atoms: CA   and  CB  
REMARK    6  A    between atoms: CB   and  CG  
REMARK    7  A    between atoms: CG   and  CD  
ROOT
ATOM     14  CA  GLU D 570     -18.033  -6.348 -13.375  1.00 32.92     0.160 C 
ENDROOT
BRANCH  14  15
ATOM     15  CB  GLU D 570     -19.500  -6.345 -13.794  1.00 32.92     0.043 C 
BRANCH  15  16
ATOM     16  CG  GLU D 570     -20.076  -7.626 -14.279  1.00 32.92     0.100 C 
BRANCH  16  17
ATOM     17  CD  GLU D 570     -20.627  -7.531 -15.683  1.00 32.92     0.185 C 
ATOM     18  OE1 GLU D 570     -20.611  -6.429 -16.265  1.00 32.92    -0.647 OA
ATOM     19  OE2 GLU D 570     -21.095  -8.565 -16.198  1.00 32.92    -0.647 OA
ENDBRANCH  16  17
ENDBRANCH  15  16
ENDBRANCH  14  15
END_RES GLU D 570
ENDMDL
MODEL 2
REMARK VINA RESULT:      -5.7      1.353      3.917
REMARK WARNING: 32 MAX_TORS EXCEEDED!!!
REMARK  72 active torsions:
REMARK  status: ('A' for Active; 'I' for Inactive)
REMARK    1  A    between atoms: C_2  and  C_4 
REMARK    2  A    between atoms: C_4  and  C_5 
REMARK    3  A    between atoms: C_5  and  C_6 
REMARK    4  A    between atoms: C_6  and  C_7 
REMARK    5  A    between atoms: C_7  and  C_8 
REMARK    6  A    between atoms: C_8  and  C_9 
REMARK    7  A    between atoms: C_9  and  C_10 
REMARK    8  A    between atoms: C_10  and  C_11 
REMARK    9  A    between atoms: C_11  and  C_12 
REMARK   10  A    between atoms: C_12  and  C_13 
REMARK   11  A    between atoms: C_13  and  C_14 
REMARK   12  A    between atoms: C_14  and  C_15 
REMARK   13  A    between atoms: C_15  and  C_16 
REMARK   14  A    between atoms: C_16  and  C_17 
REMARK   15  A    between atoms: C_17  and  C_18 
REMARK   16  A    between atoms: C_18  and  O_20 
REMARK   17  A    between atoms: O_20  and  C_21 
REMARK   18  A    between atoms: C_21  and  C_22 
REMARK   19  A    between atoms: C_22  and  C_23 
REMARK   20  A    between atoms: C_22  and  C_44 
REMARK   21  A    between atoms: C_22  and  C_65 
REMARK   22  A    between atoms: C_23  and  O_24 
REMARK   23  A    between atoms: O_24  and  C_25 
REMARK   24  A    between atoms: C_25  and  C_27 
REMARK   25  A    between atoms: C_27  and  C_28 
REMARK   26  A    between atoms: C_28  and  C_29 
REMARK   27  A    between atoms: C_29  and  C_30 
REMARK   28  A    between atoms: C_30  and  C_31 
REMARK   29  A    between atoms: C_31  and  C_32 
REMARK   30  A    between atoms: C_32  and  C_33 
REMARK   31  A    between atoms: C_33  and  C_34 
REMARK   32  A    between atoms: C_34  and  C_35 
REMARK   33  A    between atoms: C_35  and  C_36 
REMARK   34  A    between atoms: C_36  and  C_37 
REMARK   35  A    between atoms: C_37  and  C_38 
REMARK   36  A    between atoms: C_38  and  C_39 
REMARK   37  A    between atoms: C_39  and  C_40 
REMARK   38  A    between atoms: C_40  and  C_41 
REMARK   39  A    between atoms: C_44  and  O_45 
REMARK   40  A    between atoms: O_45  and  C_46 
REMARK   41  A    between atoms: C_46  and  C_48 
REMARK   42  A    between atoms: C_48  and  C_49 
REMARK   43  A    between atoms: C_49  and  C_50 
REMARK   44  A    between atoms: C_50  and  C_51 
REMARK   45  A    between atoms: C_51  and  C_52 
REMARK   46  A    between atoms: C_52  and  C_53 
REMARK   47  A    between atoms: C_53  and  C_54 
REMARK   48  A    between atoms: C_54  and  C_55 
REMARK   49  A    between atoms: C_55  and  C_56 
REMARK   50  A    between atoms: C_56  and  C_57 
REMARK   51  A    between atoms: C_57  and  C_58 
REMARK   52  A    between atoms: C_58  and  C_59 
REMARK   53  A    between atoms: C_59  and  C_60 
REMARK   54  A    between atoms: C_60  and  C_61 
REMARK   55  A    between atoms: C_61  and  C_62 
REMARK   56  A    between atoms: C_65  and  O_66 
REMARK   57  A    between atoms: O_66  and  C_67 
REMARK   58  A    between atoms: C_67  and  C_69 
REMARK   59  A    between atoms: C_69  and  C_70 
REMARK   60  A    between atoms: C_70  and  C_71 
REMARK   61  A    between atoms: C_71  and  C_72 
REMARK   62  A    between atoms: C_72  and  C_73 
REMARK   63  A    between atoms: C_73  and  C_74 
REMARK   64  A    between atoms: C_74  and  C_75 
REMARK   65  A    between atoms: C_75  and  C_76 
REMARK   66  A    between atoms: C_76  and  C_77 
REMARK   67  A    between atoms: C_77  and  C_78 
REMARK   68  A    between atoms: C_78  and  C_79 
REMARK   69  A    between atoms: C_79  and  C_80 
REMARK   70  A    between atoms: C_80  and  C_81 
REMARK   71  A    between atoms: C_81  and  C_82 
REMARK   72  A    between atoms: C_82  and  C_83 
ROOT
HETATM    1  C   UNL     1     -21.069  -8.777  -2.862  1.00  0.00     0.048 C 
ENDROOT
BRANCH   1   2
HETATM    2  C   UNL     1     -21.931  -9.528  -3.905  1.00  0.00     0.195 C 
BRANCH   2   3
HETATM    3  O   UNL     1     -22.326 -10.835  -3.426  1.00  0.00    -0.320 OA
BRANCH   3   4
HETATM    4  C   UNL     1     -21.783 -11.905  -4.078  1.00  0.00     0.258 C 
HETATM    5  O   UNL     1     -22.006 -12.219  -5.244  1.00  0.00    -0.265 OA
BRANCH   4   6
HETATM    6  C   UNL     1     -20.826 -12.666  -3.185  1.00  0.00     0.111 C 
BRANCH   6   7
HETATM    7  C   UNL     1     -19.977 -13.598  -4.035  1.00  0.00     0.010 C 
BRANCH   7   8
HETATM    8  C   UNL     1     -18.615 -13.875  -3.414  1.00  0.00     0.000 C 
BRANCH   8   9
HETATM    9  C   UNL     1     -18.093 -15.224  -3.897  1.00  0.00     0.000 C 
BRANCH   9  10
HETATM   10  C   UNL     1     -16.746 -15.523  -3.262  1.00  0.00     0.000 C 
BRANCH  10  11
HETATM   11  C   UNL     1     -16.006 -14.230  -2.965  1.00  0.00     0.000 C 
BRANCH  11  12
HETATM   12  C   UNL     1     -14.583 -14.537  -2.538  1.00  0.00     0.000 C 
BRANCH  12  13
HETATM   13  C   UNL     1     -13.626 -14.239  -3.677  1.00  0.00     0.000 C 
BRANCH  13  14
HETATM   14  C   UNL     1     -13.491 -12.739  -3.856  1.00  0.00     0.000 C 
BRANCH  14  15
HETATM   15  C   UNL     1     -13.328 -12.415  -5.328  1.00  0.00     0.000 C 
BRANCH  15  16
HETATM   16  C   UNL     1     -14.188 -13.346  -6.158  1.00  0.00     0.000 C 
BRANCH  16  17
HETATM   17  C   UNL     1     -15.537 -12.701  -6.413  1.00  0.00     0.000 C 
BRANCH  17  18
HETATM   18  C   UNL     1     -16.485 -13.738  -6.973  1.00  0.00     0.000 C 
BRANCH  18  19
HETATM   19  C   UNL     1     -17.917 -13.225  -6.950  1.00  0.00     0.004 C 
BRANCH  19  20
HETATM   20  C   UNL     1     -18.517 -13.193  -8.358  1.00  0.00    -0.023 C 
HETATM   21  C   UNL     1     -17.994 -14.378  -9.164  1.00  0.00     0.009 C 
HETATM   22  C   UNL     1     -20.044 -13.237  -8.310  1.00  0.00     0.009 C 
ENDBRANCH  19  20
ENDBRANCH  18  19
ENDBRANCH  17  18
ENDBRANCH  16  17
ENDBRANCH  15  16
ENDBRANCH  14  15
ENDBRANCH  13  14
ENDBRANCH  12  13
ENDBRANCH  11  12
ENDBRANCH  10  11
ENDBRANCH   9  10
ENDBRANCH   8   9
ENDBRANCH   7   8
ENDBRANCH   6   7
ENDBRANCH   4   6
ENDBRANCH   3   4
ENDBRANCH   2   3
ENDBRANCH   1   2
BRANCH   1  23
HETATM   23  C   UNL     1     -19.578  -9.100  -3.101  1.00  0.00     0.195 C 
BRANCH  23  24
HETATM   24  O   UNL     1     -19.114  -8.662  -4.396  1.00  0.00    -0.320 OA
BRANCH  24  25
HETATM   25  C   UNL     1     -18.581  -9.644  -5.181  1.00  0.00     0.258 C 
HETATM   26  O   UNL     1     -19.207 -10.319  -5.989  1.00  0.00    -0.265 OA
BRANCH  25  27
HETATM   27  C   UNL     1     -17.079  -9.716  -5.014  1.00  0.00     0.111 C 
BRANCH  27  28
HETATM   28  C   UNL     1     -16.710 -10.728  -3.933  1.00  0.00     0.010 C 
BRANCH  28  29
HETATM   29  C   UNL     1     -15.960 -10.083  -2.773  1.00  0.00     0.000 C 
BRANCH  29  30
HETATM   30  C   UNL     1     -15.908 -11.030  -1.582  1.00  0.00     0.000 C 
BRANCH  30  31
HETATM   31  C   UNL     1     -17.313 -11.440  -1.176  1.00  0.00     0.000 C 
BRANCH  31  32
HETATM   32  C   UNL     1     -17.315 -11.922   0.264  1.00  0.00     0.000 C 
BRANCH  32  33
HETATM   33  C   UNL     1     -17.537 -13.422   0.300  1.00  0.00     0.000 C 
BRANCH  33  34
HETATM   34  C   UNL     1     -16.512 -14.075   1.207  1.00  0.00     0.000 C 
BRANCH  34  35
HETATM   35  C   UNL     1     -15.505 -13.044   1.678  1.00  0.00     0.000 C 
BRANCH  35  36
HETATM   36  C   UNL     1     -14.168 -13.291   1.007  1.00  0.00     0.000 C 
BRANCH  36  37
HETATM   37  C   UNL     1     -13.655 -14.668   1.373  1.00  0.00     0.000 C 
BRANCH  37  38
HETATM   38  C   UNL     1     -12.493 -15.035   0.468  1.00  0.00     0.000 C 
BRANCH  38  39
HETATM   39  C   UNL     1     -11.230 -14.393   0.996  1.00  0.00     0.000 C 
BRANCH  39  40
HETATM   40  C   UNL     1     -10.511 -15.327   1.957  1.00  0.00     0.004 C 
BRANCH  40  41
HETATM   41  C   UNL     1      -9.097 -14.827   2.263  1.00  0.00    -0.023 C 
HETATM   42  C   UNL     1      -8.451 -14.200   1.027  1.00  0.00     0.009 C 
HETATM   43  C   UNL     1      -9.152 -13.799   3.390  1.00  0.00     0.009 C 
ENDBRANCH  40  41
ENDBRANCH  39  40
ENDBRANCH  38  39
ENDBRANCH  37  38
ENDBRANCH  36  37
ENDBRANCH  35  36
ENDBRANCH  34  35
ENDBRANCH  33  34
ENDBRANCH  32  33
ENDBRANCH  31  32
ENDBRANCH  30  31
ENDBRANCH  29  30
ENDBRANCH  28  29
ENDBRANCH  27  28
ENDBRANCH  25  27
ENDBRANCH  24  25
ENDBRANCH  23  24
ENDBRANCH   1  23
BRANCH   1  44
HETATM   44  C   UNL     1     -21.287  -7.250  -3.003  1.00  0.00     0.195 C 
BRANCH  44  45
HETATM   45  O   UNL     1     -21.754  -6.868  -4.318  1.00  0.00    -0.320 OA
BRANCH  45  46
HETATM   46  C   UNL     1     -21.014  -5.930  -4.966  1.00  0.00     0.258 C 
HETATM   47  O   UNL     1     -20.477  -4.939  -4.439  1.00  0.00    -0.265 OA
BRANCH  46  48
HETATM   48  C   UNL     1     -20.822  -6.299  -6.425  1.00  0.00     0.111 C 
BRANCH  48  49
HETATM   49  C   UNL     1     -20.217  -5.140  -7.196  1.00  0.00     0.010 C 
BRANCH  49  50
HETATM   50  C   UNL     1     -21.280  -4.196  -7.746  1.00  0.00     0.000 C 
BRANCH  50  51
HETATM   51  C   UNL     1     -22.021  -4.863  -8.896  1.00  0.00     0.000 C 
BRANCH  51  52
HETATM   52  C   UNL     1     -23.217  -4.024  -9.305  1.00  0.00     0.000 C 
BRANCH  52  53
HETATM   53  C   UNL     1     -23.448  -4.134 -10.803  1.00  0.00     0.000 C 
BRANCH  53  54
HETATM   54  C   UNL     1     -22.156  -4.529 -11.495  1.00  0.00     0.000 C 
BRANCH  54  55
HETATM   55  C   UNL     1     -22.369  -4.575 -12.996  1.00  0.00     0.000 C 
BRANCH  55  56
HETATM   56  C   UNL     1     -23.455  -5.578 -13.331  1.00  0.00     0.000 C 
BRANCH  56  57
HETATM   57  C   UNL     1     -23.502  -5.798 -14.830  1.00  0.00     0.000 C 
BRANCH  57  58
HETATM   58  C   UNL     1     -24.695  -6.660 -15.186  1.00  0.00     0.000 C 
BRANCH  58  59
HETATM   59  C   UNL     1     -25.848  -5.775 -15.624  1.00  0.00     0.000 C 
BRANCH  59  60
HETATM   60  C   UNL     1     -26.912  -6.633 -16.273  1.00  0.00     0.000 C 
BRANCH  60  61
HETATM   61  C   UNL     1     -27.446  -5.965 -17.532  1.00  0.00     0.004 C 
BRANCH  61  62
HETATM   62  C   UNL     1     -28.948  -5.686 -17.417  1.00  0.00    -0.023 C 
HETATM   63  C   UNL     1     -29.408  -4.692 -18.484  1.00  0.00     0.009 C 
HETATM   64  C   UNL     1     -29.722  -6.991 -17.563  1.00  0.00     0.009 C 
ENDBRANCH  61  62
ENDBRANCH  60  61
ENDBRANCH  59  60
ENDBRANCH  58  59
ENDBRANCH  57  58
ENDBRANCH  56  57
ENDBRANCH  55  56
ENDBRANCH  54  55
ENDBRANCH  53  54
ENDBRANCH  52  53
ENDBRANCH  51  52
ENDBRANCH  50  51
ENDBRANCH  49  50
ENDBRANCH  48  49
ENDBRANCH  46  48
ENDBRANCH  45  46
ENDBRANCH  44  45
ENDBRANCH   1  44
BRANCH   1  65
HETATM   65  C   UNL     1     -21.447  -9.213  -1.423  1.00  0.00     0.195 C 
BRANCH  65  66
HETATM   66  O   UNL     1     -20.438 -10.022  -0.778  1.00  0.00    -0.320 OA
BRANCH  66  67
HETATM   67  C   UNL     1     -20.730 -10.431   0.490  1.00  0.00     0.258 C 
HETATM   68  O   UNL     1     -20.784  -9.690   1.465  1.00  0.00    -0.265 OA
BRANCH  67  69
HETATM   69  C   UNL     1     -21.013 -11.920   0.515  1.00  0.00     0.111 C 
BRANCH  69  70
HETATM   70  C   UNL     1     -22.520 -12.155   0.613  1.00  0.00     0.010 C 
BRANCH  70  71
HETATM   71  C   UNL     1     -22.980 -13.352  -0.209  1.00  0.00     0.000 C 
BRANCH  71  72
HETATM   72  C   UNL     1     -23.642 -14.386   0.695  1.00  0.00     0.000 C 
BRANCH  72  73
HETATM   73  C   UNL     1     -23.693 -13.875   2.126  1.00  0.00     0.000 C 
BRANCH  73  74
HETATM   74  C   UNL     1     -23.520 -15.028   3.100  1.00  0.00     0.000 C 
BRANCH  74  75
HETATM   75  C   UNL     1     -22.109 -15.026   3.655  1.00  0.00     0.000 C 
BRANCH  75  76
HETATM   76  C   UNL     1     -21.287 -16.107   2.978  1.00  0.00     0.000 C 
BRANCH  76  77
HETATM   77  C   UNL     1     -20.339 -15.479   1.974  1.00  0.00     0.000 C 
BRANCH  77  78
HETATM   78  C   UNL     1     -20.104 -16.439   0.825  1.00  0.00     0.000 C 
BRANCH  78  79
HETATM   79  C   UNL     1     -20.086 -15.680  -0.483  1.00  0.00     0.000 C 
BRANCH  79  80
HETATM   80  C   UNL     1     -20.495 -16.604  -1.615  1.00  0.00     0.000 C 
BRANCH  80  81
HETATM   81  C   UNL     1     -21.991 -16.515  -1.815  1.00  0.00     0.000 C 
BRANCH  81  82
HETATM   82  C   UNL     1     -22.328 -16.365  -3.291  1.00  0.00     0.004 C 
BRANCH  82  83
HETATM   83  C   UNL     1     -23.512 -15.415  -3.495  1.00  0.00    -0.023 C 
HETATM   84  C   UNL     1     -23.793 -15.193  -4.981  1.00  0.00     0.009 C 
HETATM   85  C   UNL     1     -24.752 -15.991  -2.819  1.00  0.00     0.009 C 
ENDBRANCH  82  83
ENDBRANCH  81  82
ENDBRANCH  80  81
ENDBRANCH  79  80
ENDBRANCH  78  79
ENDBRANCH  77  78
ENDBRANCH  76  77
ENDBRANCH  75  76
ENDBRANCH  74  75
ENDBRANCH  73  74
ENDBRANCH  72  73
ENDBRANCH  71  72
ENDBRANCH  70  71
ENDBRANCH  69  70
ENDBRANCH  67  69
ENDBRANCH  66  67
ENDBRANCH  65  66
ENDBRANCH   1  65
TORSDOF 72
BEGIN_RES ARG D 557
REMARK  4 active torsions:
REMARK  status: ('A' for Active; 'I' for Inactive)
REMARK    1  A    between atoms: CA   and  CB  
REMARK    2  A    between atoms: CB   and  CG  
REMARK    3  A    between atoms: CG   and  CD  
REMARK    4  A    between atoms: CD   and  NE  
REMARK       I    between atoms: NE   and  CZ  
REMARK       I    between atoms: CZ   and  NH1 
REMARK       I    between atoms: CZ   and  NH2 
ROOT
ATOM      1  CA  ARG D 557     -26.217   2.705 -17.014  1.00 35.49     0.159 C 
ENDROOT
BRANCH   1   2
ATOM      2  CB  ARG D 557     -26.789   1.319 -17.183  1.00 35.49     0.034 C 
BRANCH   2   3
ATOM      3  CG  ARG D 557     -25.858   0.196 -17.021  1.00 35.49     0.027 C 
BRANCH   3   4
ATOM      4  CD  ARG D 557     -26.168  -0.626 -15.828  1.00 35.49     0.116 C 
BRANCH   4   5
ATOM      5  NE  ARG D 557     -25.023  -0.792 -14.972  1.00 35.49    -0.212 N 
ATOM      6  CZ  ARG D 557     -24.811  -1.805 -14.161  1.00 35.49     0.666 C 
ATOM      7  NH1 ARG D 557     -25.665  -2.804 -14.036  1.00 35.49    -0.235 N 
ATOM      8  NH2 ARG D 557     -23.706  -1.802 -13.473  1.00 35.49    -0.235 N 
ATOM      9  HH  ARG D 557     -26.397  -2.828 -14.480  1.00 35.49     0.174 HD
ATOM     10  HH  ARG D 557     -25.472  -3.439 -13.494  1.00 35.49     0.174 HD
ATOM     11  HH  ARG D 557     -23.170  -1.147 -13.580  1.00 35.49     0.174 HD
ATOM     12  HH  ARG D 557     -23.532  -2.440 -12.943  1.00 35.49     0.174 HD
ATOM     13  HE  ARG D 557     -24.457  -0.159 -14.935  1.00 35.49     0.178 HD
ENDBRANCH   4   5
ENDBRANCH   3   4
ENDBRANCH   2   3
ENDBRANCH   1   2
END_RES ARG D 557
BEGIN_RES GLU D 570
REMARK  3 active torsions:
REMARK  status: ('A' for Active; 'I' for Inactive)
REMARK    5  A    between atoms: CA   and  CB  
REMARK    6  A    between atoms: CB   and  CG  
REMARK    7  A    between atoms: CG   and  CD  
ROOT
ATOM     14  CA  GLU D 570     -18.033  -6.348 -13.375  1.00 32.92     0.160 C 
ENDROOT
BRANCH  14  15
ATOM     15  CB  GLU D 570     -19.500  -6.345 -13.794  1.00 32.92     0.043 C 
BRANCH  15  16
ATOM     16  CG  GLU D 570     -19.796  -6.285 -15.249  1.00 32.92     0.100 C 
BRANCH  16  17
ATOM     17  CD  GLU D 570     -20.560  -7.491 -15.745  1.00 32.92     0.185 C 
ATOM     18  OE1 GLU D 570     -20.507  -8.551 -15.093  1.00 32.92    -0.647 OA
ATOM     19  OE2 GLU D 570     -21.206  -7.378 -16.805  1.00 32.92    -0.647 OA
ENDBRANCH  16  17
ENDBRANCH  15  16
ENDBRANCH  14  15
END_RES GLU D 570
ENDMDL
MODEL 3
REMARK VINA RESULT:      -5.7      1.976      4.140
REMARK WARNING: 32 MAX_TORS EXCEEDED!!!
REMARK  72 active torsions:
REMARK  status: ('A' for Active; 'I' for Inactive)
REMARK    1  A    between atoms: C_2  and  C_4 
REMARK    2  A    between atoms: C_4  and  C_5 
REMARK    3  A    between atoms: C_5  and  C_6 
REMARK    4  A    between atoms: C_6  and  C_7 
REMARK    5  A    between atoms: C_7  and  C_8 
REMARK    6  A    between atoms: C_8  and  C_9 
REMARK    7  A    between atoms: C_9  and  C_10 
REMARK    8  A    between atoms: C_10  and  C_11 
REMARK    9  A    between atoms: C_11  and  C_12 
REMARK   10  A    between atoms: C_12  and  C_13 
REMARK   11  A    between atoms: C_13  and  C_14 
REMARK   12  A    between atoms: C_14  and  C_15 
REMARK   13  A    between atoms: C_15  and  C_16 
REMARK   14  A    between atoms: C_16  and  C_17 
REMARK   15  A    between atoms: C_17  and  C_18 
REMARK   16  A    between atoms: C_18  and  O_20 
REMARK   17  A    between atoms: O_20  and  C_21 
REMARK   18  A    between atoms: C_21  and  C_22 
REMARK   19  A    between atoms: C_22  and  C_23 
REMARK   20  A    between atoms: C_22  and  C_44 
REMARK   21  A    between atoms: C_22  and  C_65 
REMARK   22  A    between atoms: C_23  and  O_24 
REMARK   23  A    between atoms: O_24  and  C_25 
REMARK   24  A    between atoms: C_25  and  C_27 
REMARK   25  A    between atoms: C_27  and  C_28 
REMARK   26  A    between atoms: C_28  and  C_29 
REMARK   27  A    between atoms: C_29  and  C_30 
REMARK   28  A    between atoms: C_30  and  C_31 
REMARK   29  A    between atoms: C_31  and  C_32 
REMARK   30  A    between atoms: C_32  and  C_33 
REMARK   31  A    between atoms: C_33  and  C_34 
REMARK   32  A    between atoms: C_34  and  C_35 
REMARK   33  A    between atoms: C_35  and  C_36 
REMARK   34  A    between atoms: C_36  and  C_37 
REMARK   35  A    between atoms: C_37  and  C_38 
REMARK   36  A    between atoms: C_38  and  C_39 
REMARK   37  A    between atoms: C_39  and  C_40 
REMARK   38  A    between atoms: C_40  and  C_41 
REMARK   39  A    between atoms: C_44  and  O_45 
REMARK   40  A    between atoms: O_45  and  C_46 
REMARK   41  A    between atoms: C_46  and  C_48 
REMARK   42  A    between atoms: C_48  and  C_49 
REMARK   43  A    between atoms: C_49  and  C_50 
REMARK   44  A    between atoms: C_50  and  C_51 
REMARK   45  A    between atoms: C_51  and  C_52 
REMARK   46  A    between atoms: C_52  and  C_53 
REMARK   47  A    between atoms: C_53  and  C_54 
REMARK   48  A    between atoms: C_54  and  C_55 
REMARK   49  A    between atoms: C_55  and  C_56 
REMARK   50  A    between atoms: C_56  and  C_57 
REMARK   51  A    between atoms: C_57  and  C_58 
REMARK   52  A    between atoms: C_58  and  C_59 
REMARK   53  A    between atoms: C_59  and  C_60 
REMARK   54  A    between atoms: C_60  and  C_61 
REMARK   55  A    between atoms: C_61  and  C_62 
REMARK   56  A    between atoms: C_65  and  O_66 
REMARK   57  A    between atoms: O_66  and  C_67 
REMARK   58  A    between atoms: C_67  and  C_69 
REMARK   59  A    between atoms: C_69  and  C_70 
REMARK   60  A    between atoms: C_70  and  C_71 
REMARK   61  A    between atoms: C_71  and  C_72 
REMARK   62  A    between atoms: C_72  and  C_73 
REMARK   63  A    between atoms: C_73  and  C_74 
REMARK   64  A    between atoms: C_74  and  C_75 
REMARK   65  A    between atoms: C_75  and  C_76 
REMARK   66  A    between atoms: C_76  and  C_77 
REMARK   67  A    between atoms: C_77  and  C_78 
REMARK   68  A    between atoms: C_78  and  C_79 
REMARK   69  A    between atoms: C_79  and  C_80 
REMARK   70  A    between atoms: C_80  and  C_81 
REMARK   71  A    between atoms: C_81  and  C_82 
REMARK   72  A    between atoms: C_82  and  C_83 
ROOT
HETATM    1  C   UNL     1     -21.030  -8.495  -3.233  1.00  0.00     0.048 C 
ENDROOT
BRANCH   1   2
HETATM    2  C   UNL     1     -21.847  -9.398  -4.188  1.00  0.00     0.195 C 
BRANCH   2   3
HETATM    3  O   UNL     1     -22.227 -10.639  -3.548  1.00  0.00    -0.320 OA
BRANCH   3   4
HETATM    4  C   UNL     1     -21.677 -11.777  -4.066  1.00  0.00     0.258 C 
HETATM    5  O   UNL     1     -22.041 -12.343  -5.092  1.00  0.00    -0.265 OA
BRANCH   4   6
HETATM    6  C   UNL     1     -20.515 -12.259  -3.223  1.00  0.00     0.111 C 
BRANCH   6   7
HETATM    7  C   UNL     1     -20.025 -13.595  -3.758  1.00  0.00     0.010 C 
BRANCH   7   8
HETATM    8  C   UNL     1     -18.552 -13.839  -3.458  1.00  0.00     0.000 C 
BRANCH   8   9
HETATM    9  C   UNL     1     -18.335 -15.305  -3.102  1.00  0.00     0.000 C 
BRANCH   9  10
HETATM   10  C   UNL     1     -16.874 -15.553  -2.768  1.00  0.00     0.000 C 
BRANCH  10  11
HETATM   11  C   UNL     1     -16.094 -14.251  -2.825  1.00  0.00     0.000 C 
BRANCH  11  12
HETATM   12  C   UNL     1     -14.636 -14.509  -2.493  1.00  0.00     0.000 C 
BRANCH  12  13
HETATM   13  C   UNL     1     -13.780 -14.305  -3.728  1.00  0.00     0.000 C 
BRANCH  13  14
HETATM   14  C   UNL     1     -13.845 -12.854  -4.166  1.00  0.00     0.000 C 
BRANCH  14  15
HETATM   15  C   UNL     1     -14.130 -12.783  -5.653  1.00  0.00     0.000 C 
BRANCH  15  16
HETATM   16  C   UNL     1     -14.693 -14.104  -6.133  1.00  0.00     0.000 C 
BRANCH  16  17
HETATM   17  C   UNL     1     -16.168 -13.943  -6.449  1.00  0.00     0.000 C 
BRANCH  17  18
HETATM   18  C   UNL     1     -16.791 -15.311  -6.622  1.00  0.00     0.000 C 
BRANCH  18  19
HETATM   19  C   UNL     1     -18.264 -15.190  -6.981  1.00  0.00     0.004 C 
BRANCH  19  20
HETATM   20  C   UNL     1     -18.513 -13.994  -7.903  1.00  0.00    -0.023 C 
HETATM   21  C   UNL     1     -18.315 -14.418  -9.355  1.00  0.00     0.009 C 
HETATM   22  C   UNL     1     -19.924 -13.436  -7.718  1.00  0.00     0.009 C 
ENDBRANCH  19  20
ENDBRANCH  18  19
ENDBRANCH  17  18
ENDBRANCH  16  17
ENDBRANCH  15  16
ENDBRANCH  14  15
ENDBRANCH  13  14
ENDBRANCH  12  13
ENDBRANCH  11  12
ENDBRANCH  10  11
ENDBRANCH   9  10
ENDBRANCH   8   9
ENDBRANCH   7   8
ENDBRANCH   6   7
ENDBRANCH   4   6
ENDBRANCH   3   4
ENDBRANCH   2   3
ENDBRANCH   1   2
BRANCH   1  23
HETATM   23  C   UNL     1     -19.526  -8.803  -3.397  1.00  0.00     0.195 C 
BRANCH  23  24
HETATM   24  O   UNL     1     -19.060  -8.597  -4.748  1.00  0.00    -0.320 OA
BRANCH  24  25
HETATM   25  C   UNL     1     -18.523  -9.701  -5.348  1.00  0.00     0.258 C 
HETATM   26  O   UNL     1     -19.142 -10.494  -6.047  1.00  0.00    -0.265 OA
BRANCH  25  27
HETATM   27  C   UNL     1     -17.026  -9.759  -5.138  1.00  0.00     0.111 C 
BRANCH  27  28
HETATM   28  C   UNL     1     -16.687 -10.660  -3.955  1.00  0.00     0.010 C 
BRANCH  28  29
HETATM   29  C   UNL     1     -16.010  -9.894  -2.823  1.00  0.00     0.000 C 
BRANCH  29  30
HETATM   30  C   UNL     1     -15.595 -10.846  -1.711  1.00  0.00     0.000 C 
BRANCH  30  31
HETATM   31  C   UNL     1     -16.821 -11.493  -1.090  1.00  0.00     0.000 C 
BRANCH  31  32
HETATM   32  C   UNL     1     -16.457 -12.115   0.246  1.00  0.00     0.000 C 
BRANCH  32  33
HETATM   33  C   UNL     1     -17.419 -13.244   0.564  1.00  0.00     0.000 C 
BRANCH  33  34
HETATM   34  C   UNL     1     -16.645 -14.503   0.905  1.00  0.00     0.000 C 
BRANCH  34  35
HETATM   35  C   UNL     1     -15.174 -14.178   1.072  1.00  0.00     0.000 C 
BRANCH  35  36
HETATM   36  C   UNL     1     -14.385 -15.458   1.267  1.00  0.00     0.000 C 
BRANCH  36  37
HETATM   37  C   UNL     1     -12.920 -15.134   1.476  1.00  0.00     0.000 C 
BRANCH  37  38
HETATM   38  C   UNL     1     -12.478 -14.100   0.457  1.00  0.00     0.000 C 
BRANCH  38  39
HETATM   39  C   UNL     1     -11.090 -13.615   0.812  1.00  0.00     0.000 C 
BRANCH  39  40
HETATM   40  C   UNL     1     -10.558 -14.352   2.033  1.00  0.00     0.004 C 
BRANCH  40  41
HETATM   41  C   UNL     1      -9.097 -13.987   2.307  1.00  0.00    -0.023 C 
HETATM   42  C   UNL     1      -8.736 -14.214   3.775  1.00  0.00     0.009 C 
HETATM   43  C   UNL     1      -8.185 -14.828   1.418  1.00  0.00     0.009 C 
ENDBRANCH  40  41
ENDBRANCH  39  40
ENDBRANCH  38  39
ENDBRANCH  37  38
ENDBRANCH  36  37
ENDBRANCH  35  36
ENDBRANCH  34  35
ENDBRANCH  33  34
ENDBRANCH  32  33
ENDBRANCH  31  32
ENDBRANCH  30  31
ENDBRANCH  29  30
ENDBRANCH  28  29
ENDBRANCH  27  28
ENDBRANCH  25  27
ENDBRANCH  24  25
ENDBRANCH  23  24
ENDBRANCH   1  23
BRANCH   1  44
HETATM   44  C   UNL     1     -21.284  -7.005  -3.576  1.00  0.00     0.195 C 
BRANCH  44  45
HETATM   45  O   UNL     1     -21.574  -6.793  -4.977  1.00  0.00    -0.320 OA
BRANCH  45  46
HETATM   46  C   UNL     1     -20.911  -5.770  -5.577  1.00  0.00     0.258 C 
HETATM   47  O   UNL     1     -20.377  -4.810  -4.993  1.00  0.00    -0.265 OA
BRANCH  46  48
HETATM   48  C   UNL     1     -20.799  -5.996  -7.073  1.00  0.00     0.111 C 
BRANCH  48  49
HETATM   49  C   UNL     1     -20.690  -4.673  -7.809  1.00  0.00     0.010 C 
BRANCH  49  50
HETATM   50  C   UNL     1     -22.056  -4.106  -8.179  1.00  0.00     0.000 C 
BRANCH  50  51
HETATM   51  C   UNL     1     -22.243  -4.152  -9.689  1.00  0.00     0.000 C 
BRANCH  51  52
HETATM   52  C   UNL     1     -23.598  -3.581 -10.066  1.00  0.00     0.000 C 
BRANCH  52  53
HETATM   53  C   UNL     1     -23.765  -3.581 -11.576  1.00  0.00     0.000 C 
BRANCH  53  54
HETATM   54  C   UNL     1     -22.404  -3.514 -12.245  1.00  0.00     0.000 C 
BRANCH  54  55
HETATM   55  C   UNL     1     -22.497  -4.059 -13.657  1.00  0.00     0.000 C 
BRANCH  55  56
HETATM   56  C   UNL     1     -23.251  -5.374 -13.653  1.00  0.00     0.000 C 
BRANCH  56  57
HETATM   57  C   UNL     1     -24.267  -5.383 -14.778  1.00  0.00     0.000 C 
BRANCH  57  58
HETATM   58  C   UNL     1     -24.459  -6.797 -15.286  1.00  0.00     0.000 C 
BRANCH  58  59
HETATM   59  C   UNL     1     -25.514  -6.806 -16.377  1.00  0.00     0.000 C 
BRANCH  59  60
HETATM   60  C   UNL     1     -26.779  -6.168 -15.848  1.00  0.00     0.000 C 
BRANCH  60  61
HETATM   61  C   UNL     1     -27.474  -5.368 -16.939  1.00  0.00     0.004 C 
BRANCH  61  62
HETATM   62  C   UNL     1     -28.203  -6.288 -17.923  1.00  0.00    -0.023 C 
HETATM   63  C   UNL     1     -29.690  -5.942 -18.004  1.00  0.00     0.009 C 
HETATM   64  C   UNL     1     -27.571  -6.163 -19.304  1.00  0.00     0.009 C 
ENDBRANCH  61  62
ENDBRANCH  60  61
ENDBRANCH  59  60
ENDBRANCH  58  59
ENDBRANCH  57  58
ENDBRANCH  56  57
ENDBRANCH  55  56
ENDBRANCH  54  55
ENDBRANCH  53  54
ENDBRANCH  52  53
ENDBRANCH  51  52
ENDBRANCH  50  51
ENDBRANCH  49  50
ENDBRANCH  48  49
ENDBRANCH  46  48
ENDBRANCH  45  46
ENDBRANCH  44  45
ENDBRANCH   1  44
BRANCH   1  65
HETATM   65  C   UNL     1     -21.432  -8.751  -1.758  1.00  0.00     0.195 C 
BRANCH  65  66
HETATM   66  O   UNL     1     -20.450  -9.508  -1.013  1.00  0.00    -0.320 OA
BRANCH  66  67
HETATM   67  C   UNL     1     -20.866  -9.986   0.195  1.00  0.00     0.258 C 
HETATM   68  O   UNL     1     -21.124  -9.288   1.169  1.00  0.00    -0.265 OA
BRANCH  67  69
HETATM   69  C   UNL     1     -20.999 -11.496   0.151  1.00  0.00     0.111 C 
BRANCH  69  70
HETATM   70  C   UNL     1     -22.363 -11.908   0.702  1.00  0.00     0.010 C 
BRANCH  70  71
HETATM   71  C   UNL     1     -23.517 -11.409  -0.157  1.00  0.00     0.000 C 
BRANCH  71  72
HETATM   72  C   UNL     1     -23.893 -12.461  -1.195  1.00  0.00     0.000 C 
BRANCH  72  73
HETATM   73  C   UNL     1     -23.802 -13.852  -0.588  1.00  0.00     0.000 C 
BRANCH  73  74
HETATM   74  C   UNL     1     -22.939 -14.748  -1.458  1.00  0.00     0.000 C 
BRANCH  74  75
HETATM   75  C   UNL     1     -22.163 -15.720  -0.589  1.00  0.00     0.000 C 
BRANCH  75  76
HETATM   76  C   UNL     1     -20.806 -15.136  -0.246  1.00  0.00     0.000 C 
BRANCH  76  77
HETATM   77  C   UNL     1     -20.579 -15.207   1.252  1.00  0.00     0.000 C 
BRANCH  77  78
HETATM   78  C   UNL     1     -21.840 -15.696   1.937  1.00  0.00     0.000 C 
BRANCH  78  79
HETATM   79  C   UNL     1     -22.290 -14.684   2.968  1.00  0.00     0.000 C 
BRANCH  79  80
HETATM   80  C   UNL     1     -23.802 -14.720   3.091  1.00  0.00     0.000 C 
BRANCH  80  81
HETATM   81  C   UNL     1     -24.178 -15.277   4.445  1.00  0.00     0.000 C 
BRANCH  81  82
HETATM   82  C   UNL     1     -25.680 -15.499   4.538  1.00  0.00     0.004 C 
BRANCH  82  83
HETATM   83  C   UNL     1     -26.279 -14.747   5.730  1.00  0.00    -0.023 C 
HETATM   84  C   UNL     1     -27.760 -15.081   5.907  1.00  0.00     0.009 C 
HETATM   85  C   UNL     1     -25.516 -15.111   6.999  1.00  0.00     0.009 C 
ENDBRANCH  82  83
ENDBRANCH  81  82
ENDBRANCH  80  81
ENDBRANCH  79  80
ENDBRANCH  78  79
ENDBRANCH  77  78
ENDBRANCH  76  77
ENDBRANCH  75  76
ENDBRANCH  74  75
ENDBRANCH  73  74
ENDBRANCH  72  73
ENDBRANCH  71  72
ENDBRANCH  70  71
ENDBRANCH  69  70
ENDBRANCH  67  69
ENDBRANCH  66  67
ENDBRANCH  65  66
ENDBRANCH   1  65
TORSDOF 72
BEGIN_RES ARG D 557
REMARK  4 active torsions:
REMARK  status: ('A' for Active; 'I' for Inactive)
REMARK    1  A    between atoms: CA   and  CB  
REMARK    2  A    between atoms: CB   and  CG  
REMARK    3  A    between atoms: CG   and  CD  
REMARK    4  A    between atoms: CD   and  NE  
REMARK       I    between atoms: NE   and  CZ  
REMARK       I    between atoms: CZ   and  NH1 
REMARK       I    between atoms: CZ   and  NH2 
ROOT
ATOM      1  CA  ARG D 557     -26.217   2.705 -17.014  1.00 35.49     0.159 C 
ENDROOT
BRANCH   1   2
ATOM      2  CB  ARG D 557     -26.789   1.319 -17.183  1.00 35.49     0.034 C 
BRANCH   2   3
ATOM      3  CG  ARG D 557     -25.973   0.203 -16.689  1.00 35.49     0.027 C 
BRANCH   3   4
ATOM      4  CD  ARG D 557     -26.740  -0.712 -15.813  1.00 35.49     0.116 C 
BRANCH   4   5
ATOM      5  NE  ARG D 557     -27.577  -1.609 -16.565  1.00 35.49    -0.212 N 
ATOM      6  CZ  ARG D 557     -28.826  -1.388 -16.908  1.00 35.49     0.666 C 
ATOM      7  NH1 ARG D 557     -29.469  -0.284 -16.573  1.00 35.49    -0.235 N 
ATOM      8  NH2 ARG D 557     -29.427  -2.304 -17.610  1.00 35.49    -0.235 N 
ATOM      9  HH  ARG D 557     -29.093   0.333 -16.113  1.00 35.49     0.174 HD
ATOM     10  HH  ARG D 557     -30.282  -0.194 -16.828  1.00 35.49     0.174 HD
ATOM     11  HH  ARG D 557     -28.985  -3.003 -17.818  1.00 35.49     0.174 HD
ATOM     12  HH  ARG D 557     -30.232  -2.195 -17.854  1.00 35.49     0.174 HD
ATOM     13  HE  ARG D 557     -27.266  -2.376 -16.760  1.00 35.49     0.178 HD
ENDBRANCH   4   5
ENDBRANCH   3   4
ENDBRANCH   2   3
ENDBRANCH   1   2
END_RES ARG D 557
BEGIN_RES GLU D 570
REMARK  3 active torsions:
REMARK  status: ('A' for Active; 'I' for Inactive)
REMARK    5  A    between atoms: CA   and  CB  
REMARK    6  A    between atoms: CB   and  CG  
REMARK    7  A    between atoms: CG   and  CD  
ROOT
ATOM     14  CA  GLU D 570     -18.033  -6.348 -13.375  1.00 32.92     0.160 C 
ENDROOT
BRANCH  14  15
ATOM     15  CB  GLU D 570     -19.500  -6.345 -13.794  1.00 32.92     0.043 C 
BRANCH  15  16
ATOM     16  CG  GLU D 570     -20.079  -7.628 -14.268  1.00 32.92     0.100 C 
BRANCH  16  17
ATOM     17  CD  GLU D 570     -20.763  -7.506 -15.610  1.00 32.92     0.185 C 
ATOM     18  OE1 GLU D 570     -20.816  -6.391 -16.163  1.00 32.92    -0.647 OA
ATOM     19  OE2 GLU D 570     -21.267  -8.533 -16.105  1.00 32.92    -0.647 OA
ENDBRANCH  16  17
ENDBRANCH  15  16
ENDBRANCH  14  15
END_RES GLU D 570
ENDMDL
MODEL 4
REMARK VINA RESULT:      -5.2      1.923      4.274
REMARK WARNING: 32 MAX_TORS EXCEEDED!!!
REMARK  72 active torsions:
REMARK  status: ('A' for Active; 'I' for Inactive)
REMARK    1  A    between atoms: C_2  and  C_4 
REMARK    2  A    between atoms: C_4  and  C_5 
REMARK    3  A    between atoms: C_5  and  C_6 
REMARK    4  A    between atoms: C_6  and  C_7 
REMARK    5  A    between atoms: C_7  and  C_8 
REMARK    6  A    between atoms: C_8  and  C_9 
REMARK    7  A    between atoms: C_9  and  C_10 
REMARK    8  A    between atoms: C_10  and  C_11 
REMARK    9  A    between atoms: C_11  and  C_12 
REMARK   10  A    between atoms: C_12  and  C_13 
REMARK   11  A    between atoms: C_13  and  C_14 
REMARK   12  A    between atoms: C_14  and  C_15 
REMARK   13  A    between atoms: C_15  and  C_16 
REMARK   14  A    between atoms: C_16  and  C_17 
REMARK   15  A    between atoms: C_17  and  C_18 
REMARK   16  A    between atoms: C_18  and  O_20 
REMARK   17  A    between atoms: O_20  and  C_21 
REMARK   18  A    between atoms: C_21  and  C_22 
REMARK   19  A    between atoms: C_22  and  C_23 
REMARK   20  A    between atoms: C_22  and  C_44 
REMARK   21  A    between atoms: C_22  and  C_65 
REMARK   22  A    between atoms: C_23  and  O_24 
REMARK   23  A    between atoms: O_24  and  C_25 
REMARK   24  A    between atoms: C_25  and  C_27 
REMARK   25  A    between atoms: C_27  and  C_28 
REMARK   26  A    between atoms: C_28  and  C_29 
REMARK   27  A    between atoms: C_29  and  C_30 
REMARK   28  A    between atoms: C_30  and  C_31 
REMARK   29  A    between atoms: C_31  and  C_32 
REMARK   30  A    between atoms: C_32  and  C_33 
REMARK   31  A    between atoms: C_33  and  C_34 
REMARK   32  A    between atoms: C_34  and  C_35 
REMARK   33  A    between atoms: C_35  and  C_36 
REMARK   34  A    between atoms: C_36  and  C_37 
REMARK   35  A    between atoms: C_37  and  C_38 
REMARK   36  A    between atoms: C_38  and  C_39 
REMARK   37  A    between atoms: C_39  and  C_40 
REMARK   38  A    between atoms: C_40  and  C_41 
REMARK   39  A    between atoms: C_44  and  O_45 
REMARK   40  A    between atoms: O_45  and  C_46 
REMARK   41  A    between atoms: C_46  and  C_48 
REMARK   42  A    between atoms: C_48  and  C_49 
REMARK   43  A    between atoms: C_49  and  C_50 
REMARK   44  A    between atoms: C_50  and  C_51 
REMARK   45  A    between atoms: C_51  and  C_52 
REMARK   46  A    between atoms: C_52  and  C_53 
REMARK   47  A    between atoms: C_53  and  C_54 
REMARK   48  A    between atoms: C_54  and  C_55 
REMARK   49  A    between atoms: C_55  and  C_56 
REMARK   50  A    between atoms: C_56  and  C_57 
REMARK   51  A    between atoms: C_57  and  C_58 
REMARK   52  A    between atoms: C_58  and  C_59 
REMARK   53  A    between atoms: C_59  and  C_60 
REMARK   54  A    between atoms: C_60  and  C_61 
REMARK   55  A    between atoms: C_61  and  C_62 
REMARK   56  A    between atoms: C_65  and  O_66 
REMARK   57  A    between atoms: O_66  and  C_67 
REMARK   58  A    between atoms: C_67  and  C_69 
REMARK   59  A    between atoms: C_69  and  C_70 
REMARK   60  A    between atoms: C_70  and  C_71 
REMARK   61  A    between atoms: C_71  and  C_72 
REMARK   62  A    between atoms: C_72  and  C_73 
REMARK   63  A    between atoms: C_73  and  C_74 
REMARK   64  A    between atoms: C_74  and  C_75 
REMARK   65  A    between atoms: C_75  and  C_76 
REMARK   66  A    between atoms: C_76  and  C_77 
REMARK   67  A    between atoms: C_77  and  C_78 
REMARK   68  A    between atoms: C_78  and  C_79 
REMARK   69  A    between atoms: C_79  and  C_80 
REMARK   70  A    between atoms: C_80  and  C_81 
REMARK   71  A    between atoms: C_81  and  C_82 
REMARK   72  A    between atoms: C_82  and  C_83 
ROOT
HETATM    1  C   UNL     1     -20.772  -8.742  -3.632  1.00  0.00     0.048 C 
ENDROOT
BRANCH   1   2
HETATM    2  C   UNL     1     -21.575  -9.522  -4.699  1.00  0.00     0.195 C 
BRANCH   2   3
HETATM    3  O   UNL     1     -22.176 -10.716  -4.144  1.00  0.00    -0.320 OA
BRANCH   3   4
HETATM    4  C   UNL     1     -22.029 -11.860  -4.876  1.00  0.00     0.258 C 
HETATM    5  O   UNL     1     -22.883 -12.356  -5.606  1.00  0.00    -0.265 OA
BRANCH   4   6
HETATM    6  C   UNL     1     -20.645 -12.450  -4.703  1.00  0.00     0.111 C 
BRANCH   6   7
HETATM    7  C   UNL     1     -20.420 -12.783  -3.237  1.00  0.00     0.010 C 
BRANCH   7   8
HETATM    8  C   UNL     1     -18.947 -12.756  -2.852  1.00  0.00     0.000 C 
BRANCH   8   9
HETATM    9  C   UNL     1     -18.499 -14.149  -2.429  1.00  0.00     0.000 C 
BRANCH   9  10
HETATM   10  C   UNL     1     -17.184 -14.506  -3.102  1.00  0.00     0.000 C 
BRANCH  10  11
HETATM   11  C   UNL     1     -17.363 -14.554  -4.609  1.00  0.00     0.000 C 
BRANCH  11  12
HETATM   12  C   UNL     1     -16.006 -14.561  -5.288  1.00  0.00     0.000 C 
BRANCH  12  13
HETATM   13  C   UNL     1     -16.147 -14.115  -6.731  1.00  0.00     0.000 C 
BRANCH  13  14
HETATM   14  C   UNL     1     -17.439 -13.340  -6.906  1.00  0.00     0.000 C 
BRANCH  14  15
HETATM   15  C   UNL     1     -17.929 -13.481  -8.334  1.00  0.00     0.000 C 
BRANCH  15  16
HETATM   16  C   UNL     1     -18.646 -14.804  -8.504  1.00  0.00     0.000 C 
BRANCH  16  17
HETATM   17  C   UNL     1     -19.731 -14.933  -7.450  1.00  0.00     0.000 C 
BRANCH  17  18
HETATM   18  C   UNL     1     -19.984 -16.398  -7.175  1.00  0.00     0.000 C 
BRANCH  18  19
HETATM   19  C   UNL     1     -21.273 -16.583  -6.390  1.00  0.00     0.004 C 
BRANCH  19  20
HETATM   20  C   UNL     1     -21.154 -15.997  -4.981  1.00  0.00    -0.023 C 
HETATM   21  C   UNL     1     -22.545 -15.814  -4.383  1.00  0.00     0.009 C 
HETATM   22  C   UNL     1     -20.318 -16.900  -4.074  1.00  0.00     0.009 C 
ENDBRANCH  19  20
ENDBRANCH  18  19
ENDBRANCH  17  18
ENDBRANCH  16  17
ENDBRANCH  15  16
ENDBRANCH  14  15
ENDBRANCH  13  14
ENDBRANCH  12  13
ENDBRANCH  11  12
ENDBRANCH  10  11
ENDBRANCH   9  10
ENDBRANCH   8   9
ENDBRANCH   7   8
ENDBRANCH   6   7
ENDBRANCH   4   6
ENDBRANCH   3   4
ENDBRANCH   2   3
ENDBRANCH   1   2
BRANCH   1  23
HETATM   23  C   UNL     1     -19.292  -9.181  -3.681  1.00  0.00     0.195 C 
BRANCH  23  24
HETATM   24  O   UNL     1     -18.608  -8.701  -4.858  1.00  0.00    -0.320 OA
BRANCH  24  25
HETATM   25  C   UNL     1     -18.109  -9.676  -5.674  1.00  0.00     0.258 C 
HETATM   26  O   UNL     1     -18.768 -10.335  -6.469  1.00  0.00    -0.265 OA
BRANCH  25  27
HETATM   27  C   UNL     1     -16.603  -9.761  -5.558  1.00  0.00     0.111 C 
BRANCH  27  28
HETATM   28  C   UNL     1     -16.205 -10.825  -4.539  1.00  0.00     0.010 C 
BRANCH  28  29
HETATM   29  C   UNL     1     -15.918 -10.228  -3.166  1.00  0.00     0.000 C 
BRANCH  29  30
HETATM   30  C   UNL     1     -15.582 -11.327  -2.169  1.00  0.00     0.000 C 
BRANCH  30  31
HETATM   31  C   UNL     1     -16.535 -11.273  -0.988  1.00  0.00     0.000 C 
BRANCH  31  32
HETATM   32  C   UNL     1     -16.034 -12.177   0.124  1.00  0.00     0.000 C 
BRANCH  32  33
HETATM   33  C   UNL     1     -17.197 -12.947   0.721  1.00  0.00     0.000 C 
BRANCH  33  34
HETATM   34  C   UNL     1     -16.692 -14.209   1.394  1.00  0.00     0.000 C 
BRANCH  34  35
HETATM   35  C   UNL     1     -15.695 -13.853   2.479  1.00  0.00     0.000 C 
BRANCH  35  36
HETATM   36  C   UNL     1     -14.592 -14.893   2.522  1.00  0.00     0.000 C 
BRANCH  36  37
HETATM   37  C   UNL     1     -14.150 -15.233   1.114  1.00  0.00     0.000 C 
BRANCH  37  38
HETATM   38  C   UNL     1     -12.634 -15.238   1.044  1.00  0.00     0.000 C 
BRANCH  38  39
HETATM   39  C   UNL     1     -12.188 -14.389  -0.125  1.00  0.00     0.000 C 
BRANCH  39  40
HETATM   40  C   UNL     1     -13.265 -14.343  -1.200  1.00  0.00     0.004 C 
BRANCH  40  41
HETATM   41  C   UNL     1     -12.654 -14.427  -2.601  1.00  0.00    -0.023 C 
HETATM   42  C   UNL     1     -13.048 -15.728  -3.300  1.00  0.00     0.009 C 
HETATM   43  C   UNL     1     -13.120 -13.235  -3.433  1.00  0.00     0.009 C 
ENDBRANCH  40  41
ENDBRANCH  39  40
ENDBRANCH  38  39
ENDBRANCH  37  38
ENDBRANCH  36  37
ENDBRANCH  35  36
ENDBRANCH  34  35
ENDBRANCH  33  34
ENDBRANCH  32  33
ENDBRANCH  31  32
ENDBRANCH  30  31
ENDBRANCH  29  30
ENDBRANCH  28  29
ENDBRANCH  27  28
ENDBRANCH  25  27
ENDBRANCH  24  25
ENDBRANCH  23  24
ENDBRANCH   1  23
BRANCH   1  44
HETATM   44  C   UNL     1     -20.861  -7.222  -3.915  1.00  0.00     0.195 C 
BRANCH  44  45
HETATM   45  O   UNL     1     -21.000  -6.920  -5.323  1.00  0.00    -0.320 OA
BRANCH  45  46
HETATM   46  C   UNL     1     -20.419  -5.769  -5.749  1.00  0.00     0.258 C 
HETATM   47  O   UNL     1     -20.301  -4.726  -5.082  1.00  0.00    -0.265 OA
BRANCH  46  48
HETATM   48  C   UNL     1     -19.814  -5.941  -7.130  1.00  0.00     0.111 C 
BRANCH  48  49
HETATM   49  C   UNL     1     -20.382  -4.917  -8.096  1.00  0.00     0.010 C 
BRANCH  49  50
HETATM   50  C   UNL     1     -21.896  -5.032  -8.232  1.00  0.00     0.000 C 
BRANCH  50  51
HETATM   51  C   UNL     1     -22.440  -3.835  -8.999  1.00  0.00     0.000 C 
BRANCH  51  52
HETATM   52  C   UNL     1     -23.871  -4.094  -9.430  1.00  0.00     0.000 C 
BRANCH  52  53
HETATM   53  C   UNL     1     -24.190  -3.312 -10.692  1.00  0.00     0.000 C 
BRANCH  53  54
HETATM   54  C   UNL     1     -22.928  -2.659 -11.226  1.00  0.00     0.000 C 
BRANCH  54  55
HETATM   55  C   UNL     1     -22.760  -2.987 -12.697  1.00  0.00     0.000 C 
BRANCH  55  56
HETATM   56  C   UNL     1     -22.163  -4.373 -12.851  1.00  0.00     0.000 C 
BRANCH  56  57
HETATM   57  C   UNL     1     -22.725  -5.036 -14.093  1.00  0.00     0.000 C 
BRANCH  57  58
HETATM   58  C   UNL     1     -24.207  -4.745 -14.205  1.00  0.00     0.000 C 
BRANCH  58  59
HETATM   59  C   UNL     1     -24.889  -5.869 -14.964  1.00  0.00     0.000 C 
BRANCH  59  60
HETATM   60  C   UNL     1     -23.846  -6.660 -15.721  1.00  0.00     0.000 C 
BRANCH  60  61
HETATM   61  C   UNL     1     -24.495  -7.498 -16.812  1.00  0.00     0.004 C 
BRANCH  61  62
HETATM   62  C   UNL     1     -24.839  -6.645 -18.037  1.00  0.00    -0.023 C 
HETATM   63  C   UNL     1     -24.298  -7.277 -19.320  1.00  0.00     0.009 C 
HETATM   64  C   UNL     1     -26.351  -6.487 -18.140  1.00  0.00     0.009 C 
ENDBRANCH  61  62
ENDBRANCH  60  61
ENDBRANCH  59  60
ENDBRANCH  58  59
ENDBRANCH  57  58
ENDBRANCH  56  57
ENDBRANCH  55  56
ENDBRANCH  54  55
ENDBRANCH  53  54
ENDBRANCH  52  53
ENDBRANCH  51  52
ENDBRANCH  50  51
ENDBRANCH  49  50
ENDBRANCH  48  49
ENDBRANCH  46  48
ENDBRANCH  45  46
ENDBRANCH  44  45
ENDBRANCH   1  44
BRANCH   1  65
HETATM   65  C   UNL     1     -21.327  -9.026  -2.212  1.00  0.00     0.195 C 
BRANCH  65  66
HETATM   66  O   UNL     1     -20.373  -9.663  -1.333  1.00  0.00    -0.320 OA
BRANCH  66  67
HETATM   67  C   UNL     1     -20.831  -9.967  -0.084  1.00  0.00     0.258 C 
HETATM   68  O   UNL     1     -21.142  -9.139   0.764  1.00  0.00    -0.265 OA
BRANCH  67  69
HETATM   69  C   UNL     1     -20.935 -11.469   0.092  1.00  0.00     0.111 C 
BRANCH  69  70
HETATM   70  C   UNL     1     -22.396 -11.861   0.307  1.00  0.00     0.010 C 
BRANCH  70  71
HETATM   71  C   UNL     1     -23.249 -11.647  -0.936  1.00  0.00     0.000 C 
BRANCH  71  72
HETATM   72  C   UNL     1     -24.177 -12.839  -1.148  1.00  0.00     0.000 C 
BRANCH  72  73
HETATM   73  C   UNL     1     -23.808 -13.965  -0.195  1.00  0.00     0.000 C 
BRANCH  73  74
HETATM   74  C   UNL     1     -23.763 -15.288  -0.941  1.00  0.00     0.000 C 
BRANCH  74  75
HETATM   75  C   UNL     1     -22.565 -16.097  -0.483  1.00  0.00     0.000 C 
BRANCH  75  76
HETATM   76  C   UNL     1     -21.290 -15.310  -0.717  1.00  0.00     0.000 C 
BRANCH  76  77
HETATM   77  C   UNL     1     -20.487 -15.237   0.567  1.00  0.00     0.000 C 
BRANCH  77  78
HETATM   78  C   UNL     1     -21.038 -16.230   1.571  1.00  0.00     0.000 C 
BRANCH  78  79
HETATM   79  C   UNL     1     -21.140 -15.582   2.934  1.00  0.00     0.000 C 
BRANCH  79  80
HETATM   80  C   UNL     1     -22.307 -14.612   2.951  1.00  0.00     0.000 C 
BRANCH  80  81
HETATM   81  C   UNL     1     -23.504 -15.285   3.584  1.00  0.00     0.000 C 
BRANCH  81  82
HETATM   82  C   UNL     1     -23.195 -15.697   5.016  1.00  0.00     0.004 C 
BRANCH  82  83
HETATM   83  C   UNL     1     -24.421 -15.527   5.917  1.00  0.00    -0.023 C 
HETATM   84  C   UNL     1     -25.681 -15.261   5.093  1.00  0.00     0.009 C 
HETATM   85  C   UNL     1     -24.615 -16.785   6.758  1.00  0.00     0.009 C 
ENDBRANCH  82  83
ENDBRANCH  81  82
ENDBRANCH  80  81
ENDBRANCH  79  80
ENDBRANCH  78  79
ENDBRANCH  77  78
ENDBRANCH  76  77
ENDBRANCH  75  76
ENDBRANCH  74  75
ENDBRANCH  73  74
ENDBRANCH  72  73
ENDBRANCH  71  72
ENDBRANCH  70  71
ENDBRANCH  69  70
ENDBRANCH  67  69
ENDBRANCH  66  67
ENDBRANCH  65  66
ENDBRANCH   1  65
TORSDOF 72
BEGIN_RES ARG D 557
REMARK  4 active torsions:
REMARK  status: ('A' for Active; 'I' for Inactive)
REMARK    1  A    between atoms: CA   and  CB  
REMARK    2  A    between atoms: CB   and  CG  
REMARK    3  A    between atoms: CG   and  CD  
REMARK    4  A    between atoms: CD   and  NE  
REMARK       I    between atoms: NE   and  CZ  
REMARK       I    between atoms: CZ   and  NH1 
REMARK       I    between atoms: CZ   and  NH2 
ROOT
ATOM      1  CA  ARG D 557     -26.217   2.705 -17.014  1.00 35.49     0.159 C 
ENDROOT
BRANCH   1   2
ATOM      2  CB  ARG D 557     -26.789   1.319 -17.183  1.00 35.49     0.034 C 
BRANCH   2   3
ATOM      3  CG  ARG D 557     -25.941   0.198 -16.759  1.00 35.49     0.027 C 
BRANCH   3   4
ATOM      4  CD  ARG D 557     -26.713  -0.869 -16.083  1.00 35.49     0.116 C 
BRANCH   4   5
ATOM      5  NE  ARG D 557     -27.965  -1.133 -16.741  1.00 35.49    -0.212 N 
ATOM      6  CZ  ARG D 557     -28.482  -2.321 -16.963  1.00 35.49     0.666 C 
ATOM      7  NH1 ARG D 557     -27.874  -3.437 -16.604  1.00 35.49    -0.235 N 
ATOM      8  NH2 ARG D 557     -29.639  -2.372 -17.556  1.00 35.49    -0.235 N 
ATOM      9  HH  ARG D 557     -27.112  -3.427 -16.211  1.00 35.49     0.174 HD
ATOM     10  HH  ARG D 557     -28.260  -4.183 -16.772  1.00 35.49     0.174 HD
ATOM     11  HH  ARG D 557     -30.012  -1.635 -17.770  1.00 35.49     0.174 HD
ATOM     12  HH  ARG D 557     -30.006  -3.120 -17.712  1.00 35.49     0.174 HD
ATOM     13  HE  ARG D 557     -28.390  -0.474 -17.071  1.00 35.49     0.178 HD
ENDBRANCH   4   5
ENDBRANCH   3   4
ENDBRANCH   2   3
ENDBRANCH   1   2
END_RES ARG D 557
BEGIN_RES GLU D 570
REMARK  3 active torsions:
REMARK  status: ('A' for Active; 'I' for Inactive)
REMARK    5  A    between atoms: CA   and  CB  
REMARK    6  A    between atoms: CB   and  CG  
REMARK    7  A    between atoms: CG   and  CD  
ROOT
ATOM     14  CA  GLU D 570     -18.033  -6.348 -13.375  1.00 32.92     0.160 C 
ENDROOT
BRANCH  14  15
ATOM     15  CB  GLU D 570     -19.500  -6.345 -13.794  1.00 32.92     0.043 C 
BRANCH  15  16
ATOM     16  CG  GLU D 570     -20.096  -7.641 -14.208  1.00 32.92     0.100 C 
BRANCH  16  17
ATOM     17  CD  GLU D 570     -20.452  -7.684 -15.676  1.00 32.92     0.185 C 
ATOM     18  OE1 GLU D 570     -20.509  -6.617 -16.316  1.00 32.92    -0.647 OA
ATOM     19  OE2 GLU D 570     -20.694  -8.795 -16.187  1.00 32.92    -0.647 OA
ENDBRANCH  16  17
ENDBRANCH  15  16
ENDBRANCH  14  15
END_RES GLU D 570
ENDMDL
MODEL 5
REMARK VINA RESULT:      -5.0      2.747     13.231
REMARK WARNING: 32 MAX_TORS EXCEEDED!!!
REMARK  72 active torsions:
REMARK  status: ('A' for Active; 'I' for Inactive)
REMARK    1  A    between atoms: C_2  and  C_4 
REMARK    2  A    between atoms: C_4  and  C_5 
REMARK    3  A    between atoms: C_5  and  C_6 
REMARK    4  A    between atoms: C_6  and  C_7 
REMARK    5  A    between atoms: C_7  and  C_8 
REMARK    6  A    between atoms: C_8  and  C_9 
REMARK    7  A    between atoms: C_9  and  C_10 
REMARK    8  A    between atoms: C_10  and  C_11 
REMARK    9  A    between atoms: C_11  and  C_12 
REMARK   10  A    between atoms: C_12  and  C_13 
REMARK   11  A    between atoms: C_13  and  C_14 
REMARK   12  A    between atoms: C_14  and  C_15 
REMARK   13  A    between atoms: C_15  and  C_16 
REMARK   14  A    between atoms: C_16  and  C_17 
REMARK   15  A    between atoms: C_17  and  C_18 
REMARK   16  A    between atoms: C_18  and  O_20 
REMARK   17  A    between atoms: O_20  and  C_21 
REMARK   18  A    between atoms: C_21  and  C_22 
REMARK   19  A    between atoms: C_22  and  C_23 
REMARK   20  A    between atoms: C_22  and  C_44 
REMARK   21  A    between atoms: C_22  and  C_65 
REMARK   22  A    between atoms: C_23  and  O_24 
REMARK   23  A    between atoms: O_24  and  C_25 
REMARK   24  A    between atoms: C_25  and  C_27 
REMARK   25  A    between atoms: C_27  and  C_28 
REMARK   26  A    between atoms: C_28  and  C_29 
REMARK   27  A    between atoms: C_29  and  C_30 
REMARK   28  A    between atoms: C_30  and  C_31 
REMARK   29  A    between atoms: C_31  and  C_32 
REMARK   30  A    between atoms: C_32  and  C_33 
REMARK   31  A    between atoms: C_33  and  C_34 
REMARK   32  A    between atoms: C_34  and  C_35 
REMARK   33  A    between atoms: C_35  and  C_36 
REMARK   34  A    between atoms: C_36  and  C_37 
REMARK   35  A    between atoms: C_37  and  C_38 
REMARK   36  A    between atoms: C_38  and  C_39 
REMARK   37  A    between atoms: C_39  and  C_40 
REMARK   38  A    between atoms: C_40  and  C_41 
REMARK   39  A    between atoms: C_44  and  O_45 
REMARK   40  A    between atoms: O_45  and  C_46 
REMARK   41  A    between atoms: C_46  and  C_48 
REMARK   42  A    between atoms: C_48  and  C_49 
REMARK   43  A    between atoms: C_49  and  C_50 
REMARK   44  A    between atoms: C_50  and  C_51 
REMARK   45  A    between atoms: C_51  and  C_52 
REMARK   46  A    between atoms: C_52  and  C_53 
REMARK   47  A    between atoms: C_53  and  C_54 
REMARK   48  A    between atoms: C_54  and  C_55 
REMARK   49  A    between atoms: C_55  and  C_56 
REMARK   50  A    between atoms: C_56  and  C_57 
REMARK   51  A    between atoms: C_57  and  C_58 
REMARK   52  A    between atoms: C_58  and  C_59 
REMARK   53  A    between atoms: C_59  and  C_60 
REMARK   54  A    between atoms: C_60  and  C_61 
REMARK   55  A    between atoms: C_61  and  C_62 
REMARK   56  A    between atoms: C_65  and  O_66 
REMARK   57  A    between atoms: O_66  and  C_67 
REMARK   58  A    between atoms: C_67  and  C_69 
REMARK   59  A    between atoms: C_69  and  C_70 
REMARK   60  A    between atoms: C_70  and  C_71 
REMARK   61  A    between atoms: C_71  and  C_72 
REMARK   62  A    between atoms: C_72  and  C_73 
REMARK   63  A    between atoms: C_73  and  C_74 
REMARK   64  A    between atoms: C_74  and  C_75 
REMARK   65  A    between atoms: C_75  and  C_76 
REMARK   66  A    between atoms: C_76  and  C_77 
REMARK   67  A    between atoms: C_77  and  C_78 
REMARK   68  A    between atoms: C_78  and  C_79 
REMARK   69  A    between atoms: C_79  and  C_80 
REMARK   70  A    between atoms: C_80  and  C_81 
REMARK   71  A    between atoms: C_81  and  C_82 
REMARK   72  A    between atoms: C_82  and  C_83 
ROOT
HETATM    1  C   UNL     1     -21.119  -6.490  -4.537  1.00  0.00     0.048 C 
ENDROOT
BRANCH   1   2
HETATM    2  C   UNL     1     -22.510  -6.426  -5.212  1.00  0.00     0.195 C 
BRANCH   2   3
HETATM    3  O   UNL     1     -22.461  -5.699  -6.462  1.00  0.00    -0.320 OA
BRANCH   3   4
HETATM    4  C   UNL     1     -23.533  -4.898  -6.735  1.00  0.00     0.258 C 
HETATM    5  O   UNL     1     -24.563  -4.833  -6.070  1.00  0.00    -0.265 OA
BRANCH   4   6
HETATM    6  C   UNL     1     -23.290  -4.055  -7.969  1.00  0.00     0.111 C 
BRANCH   6   7
HETATM    7  C   UNL     1     -24.245  -4.488  -9.071  1.00  0.00     0.010 C 
BRANCH   7   8
HETATM    8  C   UNL     1     -24.966  -3.312  -9.714  1.00  0.00     0.000 C 
BRANCH   8   9
HETATM    9  C   UNL     1     -24.224  -2.879 -10.973  1.00  0.00     0.000 C 
BRANCH   9  10
HETATM   10  C   UNL     1     -25.053  -3.196 -12.206  1.00  0.00     0.000 C 
BRANCH  10  11
HETATM   11  C   UNL     1     -24.580  -2.362 -13.385  1.00  0.00     0.000 C 
BRANCH  11  12
HETATM   12  C   UNL     1     -25.312  -2.790 -14.644  1.00  0.00     0.000 C 
BRANCH  12  13
HETATM   13  C   UNL     1     -26.107  -4.053 -14.376  1.00  0.00     0.000 C 
BRANCH  13  14
HETATM   14  C   UNL     1     -27.057  -4.318 -15.528  1.00  0.00     0.000 C 
BRANCH  14  15
HETATM   15  C   UNL     1     -26.463  -5.368 -16.446  1.00  0.00     0.000 C 
BRANCH  15  16
HETATM   16  C   UNL     1     -27.494  -6.439 -16.736  1.00  0.00     0.000 C 
BRANCH  16  17
HETATM   17  C   UNL     1     -27.797  -6.464 -18.223  1.00  0.00     0.000 C 
BRANCH  17  18
HETATM   18  C   UNL     1     -29.294  -6.543 -18.423  1.00  0.00     0.000 C 
BRANCH  18  19
HETATM   19  C   UNL     1     -29.943  -5.191 -18.166  1.00  0.00     0.004 C 
BRANCH  19  20
HETATM   20  C   UNL     1     -31.100  -5.312 -17.171  1.00  0.00    -0.023 C 
HETATM   21  C   UNL     1     -31.782  -6.666 -17.341  1.00  0.00     0.009 C 
HETATM   22  C   UNL     1     -30.611  -5.159 -15.731  1.00  0.00     0.009 C 
ENDBRANCH  19  20
ENDBRANCH  18  19
ENDBRANCH  17  18
ENDBRANCH  16  17
ENDBRANCH  15  16
ENDBRANCH  14  15
ENDBRANCH  13  14
ENDBRANCH  12  13
ENDBRANCH  11  12
ENDBRANCH  10  11
ENDBRANCH   9  10
ENDBRANCH   8   9
ENDBRANCH   7   8
ENDBRANCH   6   7
ENDBRANCH   4   6
ENDBRANCH   3   4
ENDBRANCH   2   3
ENDBRANCH   1   2
BRANCH   1  23
HETATM   23  C   UNL     1     -20.241  -5.332  -5.060  1.00  0.00     0.195 C 
BRANCH  23  24
HETATM   24  O   UNL     1     -19.267  -5.768  -6.033  1.00  0.00    -0.320 OA
BRANCH  24  25
HETATM   25  C   UNL     1     -19.180  -4.989  -7.152  1.00  0.00     0.258 C 
HETATM   26  O   UNL     1     -18.430  -4.031  -7.288  1.00  0.00    -0.265 OA
BRANCH  25  27
HETATM   27  C   UNL     1     -20.052  -5.536  -8.261  1.00  0.00     0.111 C 
BRANCH  27  28
HETATM   28  C   UNL     1     -19.731  -4.844  -9.583  1.00  0.00     0.010 C 
BRANCH  28  29
HETATM   29  C   UNL     1     -20.868  -3.942 -10.050  1.00  0.00     0.000 C 
BRANCH  29  30
HETATM   30  C   UNL     1     -20.485  -3.230 -11.340  1.00  0.00     0.000 C 
BRANCH  30  31
HETATM   31  C   UNL     1     -21.368  -3.704 -12.482  1.00  0.00     0.000 C 
BRANCH  31  32
HETATM   32  C   UNL     1     -22.116  -4.959 -12.070  1.00  0.00     0.000 C 
BRANCH  32  33
HETATM   33  C   UNL     1     -22.886  -5.508 -13.257  1.00  0.00     0.000 C 
BRANCH  33  34
HETATM   34  C   UNL     1     -22.416  -4.837 -14.534  1.00  0.00     0.000 C 
BRANCH  34  35
HETATM   35  C   UNL     1     -23.039  -5.518 -15.736  1.00  0.00     0.000 C 
BRANCH  35  36
HETATM   36  C   UNL     1     -23.667  -6.832 -15.312  1.00  0.00     0.000 C 
BRANCH  36  37
HETATM   37  C   UNL     1     -23.917  -7.699 -16.529  1.00  0.00     0.000 C 
BRANCH  37  38
HETATM   38  C   UNL     1     -23.315  -7.040 -17.756  1.00  0.00     0.000 C 
BRANCH  38  39
HETATM   39  C   UNL     1     -24.274  -7.180 -18.916  1.00  0.00     0.000 C 
BRANCH  39  40
HETATM   40  C   UNL     1     -23.565  -7.751 -20.136  1.00  0.00     0.004 C 
BRANCH  40  41
HETATM   41  C   UNL     1     -24.566  -8.154 -21.221  1.00  0.00    -0.023 C 
HETATM   42  C   UNL     1     -25.930  -7.507 -20.984  1.00  0.00     0.009 C 
HETATM   43  C   UNL     1     -24.031  -7.738 -22.589  1.00  0.00     0.009 C 
ENDBRANCH  40  41
ENDBRANCH  39  40
ENDBRANCH  38  39
ENDBRANCH  37  38
ENDBRANCH  36  37
ENDBRANCH  35  36
ENDBRANCH  34  35
ENDBRANCH  33  34
ENDBRANCH  32  33
ENDBRANCH  31  32
ENDBRANCH  30  31
ENDBRANCH  29  30
ENDBRANCH  28  29
ENDBRANCH  27  28
ENDBRANCH  25  27
ENDBRANCH  24  25
ENDBRANCH  23  24
ENDBRANCH   1  23
BRANCH   1  44
HETATM   44  C   UNL     1     -21.274  -6.357  -3.002  1.00  0.00     0.195 C 
BRANCH  44  45
HETATM   45  O   UNL     1     -22.069  -7.418  -2.423  1.00  0.00    -0.320 OA
BRANCH  45  46
HETATM   46  C   UNL     1     -22.137  -7.443  -1.066  1.00  0.00     0.258 C 
HETATM   47  O   UNL     1     -23.046  -6.949  -0.376  1.00  0.00    -0.265 OA
BRANCH  46  48
HETATM   48  C   UNL     1     -21.001  -8.261  -0.479  1.00  0.00     0.111 C 
BRANCH  48  49
HETATM   49  C   UNL     1     -21.450  -8.971   0.786  1.00  0.00     0.010 C 
BRANCH  49  50
HETATM   50  C   UNL     1     -20.641 -10.234   1.056  1.00  0.00     0.000 C 
BRANCH  50  51
HETATM   51  C   UNL     1     -20.135 -10.815  -0.256  1.00  0.00     0.000 C 
BRANCH  51  52
HETATM   52  C   UNL     1     -19.995 -12.322  -0.142  1.00  0.00     0.000 C 
BRANCH  52  53
HETATM   53  C   UNL     1     -18.853 -12.811  -1.016  1.00  0.00     0.000 C 
BRANCH  53  54
HETATM   54  C   UNL     1     -17.677 -11.858  -0.908  1.00  0.00     0.000 C 
BRANCH  54  55
HETATM   55  C   UNL     1     -16.780 -12.006  -2.122  1.00  0.00     0.000 C 
BRANCH  55  56
HETATM   56  C   UNL     1     -15.611 -11.045  -2.018  1.00  0.00     0.000 C 
BRANCH  56  57
HETATM   57  C   UNL     1     -15.987  -9.714  -2.638  1.00  0.00     0.000 C 
BRANCH  57  58
HETATM   58  C   UNL     1     -16.784  -9.945  -3.906  1.00  0.00     0.000 C 
BRANCH  58  59
HETATM   59  C   UNL     1     -15.866  -9.832  -5.110  1.00  0.00     0.000 C 
BRANCH  59  60
HETATM   60  C   UNL     1     -16.131 -10.991  -6.045  1.00  0.00     0.000 C 
BRANCH  60  61
HETATM   61  C   UNL     1     -17.594 -11.020  -6.464  1.00  0.00     0.004 C 
BRANCH  61  62
HETATM   62  C   UNL     1     -18.099 -12.459  -6.614  1.00  0.00    -0.023 C 
HETATM   63  C   UNL     1     -17.095 -13.319  -7.382  1.00  0.00     0.009 C 
HETATM   64  C   UNL     1     -18.342 -13.061  -5.235  1.00  0.00     0.009 C 
ENDBRANCH  61  62
ENDBRANCH  60  61
ENDBRANCH  59  60
ENDBRANCH  58  59
ENDBRANCH  57  58
ENDBRANCH  56  57
ENDBRANCH  55  56
ENDBRANCH  54  55
ENDBRANCH  53  54
ENDBRANCH  52  53
ENDBRANCH  51  52
ENDBRANCH  50  51
ENDBRANCH  49  50
ENDBRANCH  48  49
ENDBRANCH  46  48
ENDBRANCH  45  46
ENDBRANCH  44  45
ENDBRANCH   1  44
BRANCH   1  65
HETATM   65  C   UNL     1     -20.414  -7.832  -4.861  1.00  0.00     0.195 C 
BRANCH  65  66
HETATM   66  O   UNL     1     -21.167  -8.683  -5.756  1.00  0.00    -0.320 OA
BRANCH  66  67
HETATM   67  C   UNL     1     -21.080 -10.022  -5.511  1.00  0.00     0.258 C 
HETATM   68  O   UNL     1     -21.146 -10.892  -6.371  1.00  0.00    -0.265 OA
BRANCH  67  69
HETATM   69  C   UNL     1     -20.855 -10.278  -4.034  1.00  0.00     0.111 C 
BRANCH  69  70
HETATM   70  C   UNL     1     -22.165 -10.722  -3.384  1.00  0.00     0.010 C 
BRANCH  70  71
HETATM   71  C   UNL     1     -22.323 -12.237  -3.361  1.00  0.00     0.000 C 
BRANCH  71  72
HETATM   72  C   UNL     1     -23.068 -12.668  -2.102  1.00  0.00     0.000 C 
BRANCH  72  73
HETATM   73  C   UNL     1     -23.588 -11.448  -1.358  1.00  0.00     0.000 C 
BRANCH  73  74
HETATM   74  C   UNL     1     -23.807 -11.783   0.107  1.00  0.00     0.000 C 
BRANCH  74  75
HETATM   75  C   UNL     1     -23.461 -13.239   0.361  1.00  0.00     0.000 C 
BRANCH  75  76
HETATM   76  C   UNL     1     -23.081 -13.432   1.816  1.00  0.00     0.000 C 
BRANCH  76  77
HETATM   77  C   UNL     1     -22.913 -14.910   2.112  1.00  0.00     0.000 C 
BRANCH  77  78
HETATM   78  C   UNL     1     -21.596 -15.141   2.827  1.00  0.00     0.000 C 
BRANCH  78  79
HETATM   79  C   UNL     1     -20.524 -15.509   1.824  1.00  0.00     0.000 C 
BRANCH  79  80
HETATM   80  C   UNL     1     -19.701 -16.666   2.359  1.00  0.00     0.000 C 
BRANCH  80  81
HETATM   81  C   UNL     1     -18.279 -16.203   2.579  1.00  0.00     0.000 C 
BRANCH  81  82
HETATM   82  C   UNL     1     -17.924 -15.078   1.618  1.00  0.00     0.004 C 
BRANCH  82  83
HETATM   83  C   UNL     1     -16.422 -14.779   1.646  1.00  0.00    -0.023 C 
HETATM   84  C   UNL     1     -15.762 -15.141   0.315  1.00  0.00     0.009 C 
HETATM   85  C   UNL     1     -16.202 -13.299   1.942  1.00  0.00     0.009 C 
ENDBRANCH  82  83
ENDBRANCH  81  82
ENDBRANCH  80  81
ENDBRANCH  79  80
ENDBRANCH  78  79
ENDBRANCH  77  78
ENDBRANCH  76  77
ENDBRANCH  75  76
ENDBRANCH  74  75
ENDBRANCH  73  74
ENDBRANCH  72  73
ENDBRANCH  71  72
ENDBRANCH  70  71
ENDBRANCH  69  70
ENDBRANCH  67  69
ENDBRANCH  66  67
ENDBRANCH  65  66
ENDBRANCH   1  65
TORSDOF 72
BEGIN_RES ARG D 557
REMARK  4 active torsions:
REMARK  status: ('A' for Active; 'I' for Inactive)
REMARK    1  A    between atoms: CA   and  CB  
REMARK    2  A    between atoms: CB   and  CG  
REMARK    3  A    between atoms: CG   and  CD  
REMARK    4  A    between atoms: CD   and  NE  
REMARK       I    between atoms: NE   and  CZ  
REMARK       I    between atoms: CZ   and  NH1 
REMARK       I    between atoms: CZ   and  NH2 
ROOT
ATOM      1  CA  ARG D 557     -26.217   2.705 -17.014  1.00 35.49     0.159 C 
ENDROOT
BRANCH   1   2
ATOM      2  CB  ARG D 557     -26.789   1.319 -17.183  1.00 35.49     0.034 C 
BRANCH   2   3
ATOM      3  CG  ARG D 557     -26.012   0.210 -16.617  1.00 35.49     0.027 C 
BRANCH   3   4
ATOM      4  CD  ARG D 557     -26.834  -0.676 -15.761  1.00 35.49     0.116 C 
BRANCH   4   5
ATOM      5  NE  ARG D 557     -27.750  -1.476 -16.531  1.00 35.49    -0.212 N 
ATOM      6  CZ  ARG D 557     -28.992  -1.158 -16.818  1.00 35.49     0.666 C 
ATOM      7  NH1 ARG D 557     -29.552  -0.038 -16.401  1.00 35.49    -0.235 N 
ATOM      8  NH2 ARG D 557     -29.673  -1.995 -17.547  1.00 35.49    -0.235 N 
ATOM      9  HH  ARG D 557     -29.122   0.528 -15.922  1.00 35.49     0.174 HD
ATOM     10  HH  ARG D 557     -30.366   0.118 -16.622  1.00 35.49     0.174 HD
ATOM     11  HH  ARG D 557     -29.283  -2.707 -17.808  1.00 35.49     0.174 HD
ATOM     12  HH  ARG D 557     -30.476  -1.823 -17.755  1.00 35.49     0.174 HD
ATOM     13  HE  ARG D 557     -27.495  -2.249 -16.778  1.00 35.49     0.178 HD
ENDBRANCH   4   5
ENDBRANCH   3   4
ENDBRANCH   2   3
ENDBRANCH   1   2
END_RES ARG D 557
BEGIN_RES GLU D 570
REMARK  3 active torsions:
REMARK  status: ('A' for Active; 'I' for Inactive)
REMARK    5  A    between atoms: CA   and  CB  
REMARK    6  A    between atoms: CB   and  CG  
REMARK    7  A    between atoms: CG   and  CD  
ROOT
ATOM     14  CA  GLU D 570     -18.033  -6.348 -13.375  1.00 32.92     0.160 C 
ENDROOT
BRANCH  14  15
ATOM     15  CB  GLU D 570     -19.500  -6.345 -13.794  1.00 32.92     0.043 C 
BRANCH  15  16
ATOM     16  CG  GLU D 570     -20.096  -7.641 -14.208  1.00 32.92     0.100 C 
BRANCH  16  17
ATOM     17  CD  GLU D 570     -20.256  -7.765 -15.706  1.00 32.92     0.185 C 
ATOM     18  OE1 GLU D 570     -20.060  -6.763 -16.420  1.00 32.92    -0.647 OA
ATOM     19  OE2 GLU D 570     -20.596  -8.872 -16.168  1.00 32.92    -0.647 OA
ENDBRANCH  16  17
ENDBRANCH  15  16
ENDBRANCH  14  15
END_RES GLU D 570
ENDMDL
MODEL 6
REMARK VINA RESULT:      -4.9      2.623      9.963
REMARK WARNING: 32 MAX_TORS EXCEEDED!!!
REMARK  72 active torsions:
REMARK  status: ('A' for Active; 'I' for Inactive)
REMARK    1  A    between atoms: C_2  and  C_4 
REMARK    2  A    between atoms: C_4  and  C_5 
REMARK    3  A    between atoms: C_5  and  C_6 
REMARK    4  A    between atoms: C_6  and  C_7 
REMARK    5  A    between atoms: C_7  and  C_8 
REMARK    6  A    between atoms: C_8  and  C_9 
REMARK    7  A    between atoms: C_9  and  C_10 
REMARK    8  A    between atoms: C_10  and  C_11 
REMARK    9  A    between atoms: C_11  and  C_12 
REMARK   10  A    between atoms: C_12  and  C_13 
REMARK   11  A    between atoms: C_13  and  C_14 
REMARK   12  A    between atoms: C_14  and  C_15 
REMARK   13  A    between atoms: C_15  and  C_16 
REMARK   14  A    between atoms: C_16  and  C_17 
REMARK   15  A    between atoms: C_17  and  C_18 
REMARK   16  A    between atoms: C_18  and  O_20 
REMARK   17  A    between atoms: O_20  and  C_21 
REMARK   18  A    between atoms: C_21  and  C_22 
REMARK   19  A    between atoms: C_22  and  C_23 
REMARK   20  A    between atoms: C_22  and  C_44 
REMARK   21  A    between atoms: C_22  and  C_65 
REMARK   22  A    between atoms: C_23  and  O_24 
REMARK   23  A    between atoms: O_24  and  C_25 
REMARK   24  A    between atoms: C_25  and  C_27 
REMARK   25  A    between atoms: C_27  and  C_28 
REMARK   26  A    between atoms: C_28  and  C_29 
REMARK   27  A    between atoms: C_29  and  C_30 
REMARK   28  A    between atoms: C_30  and  C_31 
REMARK   29  A    between atoms: C_31  and  C_32 
REMARK   30  A    between atoms: C_32  and  C_33 
REMARK   31  A    between atoms: C_33  and  C_34 
REMARK   32  A    between atoms: C_34  and  C_35 
REMARK   33  A    between atoms: C_35  and  C_36 
REMARK   34  A    between atoms: C_36  and  C_37 
REMARK   35  A    between atoms: C_37  and  C_38 
REMARK   36  A    between atoms: C_38  and  C_39 
REMARK   37  A    between atoms: C_39  and  C_40 
REMARK   38  A    between atoms: C_40  and  C_41 
REMARK   39  A    between atoms: C_44  and  O_45 
REMARK   40  A    between atoms: O_45  and  C_46 
REMARK   41  A    between atoms: C_46  and  C_48 
REMARK   42  A    between atoms: C_48  and  C_49 
REMARK   43  A    between atoms: C_49  and  C_50 
REMARK   44  A    between atoms: C_50  and  C_51 
REMARK   45  A    between atoms: C_51  and  C_52 
REMARK   46  A    between atoms: C_52  and  C_53 
REMARK   47  A    between atoms: C_53  and  C_54 
REMARK   48  A    between atoms: C_54  and  C_55 
REMARK   49  A    between atoms: C_55  and  C_56 
REMARK   50  A    between atoms: C_56  and  C_57 
REMARK   51  A    between atoms: C_57  and  C_58 
REMARK   52  A    between atoms: C_58  and  C_59 
REMARK   53  A    between atoms: C_59  and  C_60 
REMARK   54  A    between atoms: C_60  and  C_61 
REMARK   55  A    between atoms: C_61  and  C_62 
REMARK   56  A    between atoms: C_65  and  O_66 
REMARK   57  A    between atoms: O_66  and  C_67 
REMARK   58  A    between atoms: C_67  and  C_69 
REMARK   59  A    between atoms: C_69  and  C_70 
REMARK   60  A    between atoms: C_70  and  C_71 
REMARK   61  A    between atoms: C_71  and  C_72 
REMARK   62  A    between atoms: C_72  and  C_73 
REMARK   63  A    between atoms: C_73  and  C_74 
REMARK   64  A    between atoms: C_74  and  C_75 
REMARK   65  A    between atoms: C_75  and  C_76 
REMARK   66  A    between atoms: C_76  and  C_77 
REMARK   67  A    between atoms: C_77  and  C_78 
REMARK   68  A    between atoms: C_78  and  C_79 
REMARK   69  A    between atoms: C_79  and  C_80 
REMARK   70  A    between atoms: C_80  and  C_81 
REMARK   71  A    between atoms: C_81  and  C_82 
REMARK   72  A    between atoms: C_82  and  C_83 
ROOT
HETATM    1  C   UNL     1     -20.967  -6.265  -4.767  1.00  0.00     0.048 C 
ENDROOT
BRANCH   1   2
HETATM    2  C   UNL     1     -20.341  -7.661  -4.998  1.00  0.00     0.195 C 
BRANCH   2   3
HETATM    3  O   UNL     1     -21.275  -8.562  -5.638  1.00  0.00    -0.320 OA
BRANCH   3   4
HETATM    4  C   UNL     1     -20.909  -9.878  -5.679  1.00  0.00     0.258 C 
HETATM    5  O   UNL     1     -21.431 -10.742  -6.377  1.00  0.00    -0.265 OA
BRANCH   4   6
HETATM    6  C   UNL     1     -19.737 -10.152  -4.761  1.00  0.00     0.111 C 
BRANCH   6   7
HETATM    7  C   UNL     1     -19.011 -11.402  -5.231  1.00  0.00     0.010 C 
BRANCH   7   8
HETATM    8  C   UNL     1     -17.911 -11.095  -6.238  1.00  0.00     0.000 C 
BRANCH   8   9
HETATM    9  C   UNL     1     -17.391  -9.679  -6.017  1.00  0.00     0.000 C 
BRANCH   9  10
HETATM   10  C   UNL     1     -15.951  -9.718  -5.534  1.00  0.00     0.000 C 
BRANCH  10  11
HETATM   11  C   UNL     1     -15.900 -10.100  -4.064  1.00  0.00     0.000 C 
BRANCH  11  12
HETATM   12  C   UNL     1     -15.122 -11.391  -3.895  1.00  0.00     0.000 C 
BRANCH  12  13
HETATM   13  C   UNL     1     -14.374 -11.715  -5.174  1.00  0.00     0.000 C 
BRANCH  13  14
HETATM   14  C   UNL     1     -13.311 -12.761  -4.898  1.00  0.00     0.000 C 
BRANCH  14  15
HETATM   15  C   UNL     1     -13.260 -13.056  -3.412  1.00  0.00     0.000 C 
BRANCH  15  16
HETATM   16  C   UNL     1     -12.837 -14.493  -3.187  1.00  0.00     0.000 C 
BRANCH  16  17
HETATM   17  C   UNL     1     -13.274 -15.342  -4.367  1.00  0.00     0.000 C 
BRANCH  17  18
HETATM   18  C   UNL     1     -14.010 -16.561  -3.855  1.00  0.00     0.000 C 
BRANCH  18  19
HETATM   19  C   UNL     1     -15.439 -16.584  -4.375  1.00  0.00     0.004 C 
BRANCH  19  20
HETATM   20  C   UNL     1     -15.696 -15.424  -5.341  1.00  0.00    -0.023 C 
HETATM   21  C   UNL     1     -16.040 -15.974  -6.721  1.00  0.00     0.009 C 
HETATM   22  C   UNL     1     -16.834 -14.533  -4.844  1.00  0.00     0.009 C 
ENDBRANCH  19  20
ENDBRANCH  18  19
ENDBRANCH  17  18
ENDBRANCH  16  17
ENDBRANCH  15  16
ENDBRANCH  14  15
ENDBRANCH  13  14
ENDBRANCH  12  13
ENDBRANCH  11  12
ENDBRANCH  10  11
ENDBRANCH   9  10
ENDBRANCH   8   9
ENDBRANCH   7   8
ENDBRANCH   6   7
ENDBRANCH   4   6
ENDBRANCH   3   4
ENDBRANCH   2   3
ENDBRANCH   1   2
BRANCH   1  23
HETATM   23  C   UNL     1     -20.968  -5.948  -3.255  1.00  0.00     0.195 C 
BRANCH  23  24
HETATM   24  O   UNL     1     -22.227  -6.260  -2.622  1.00  0.00    -0.320 OA
BRANCH  24  25
HETATM   25  C   UNL     1     -22.126  -6.940  -1.441  1.00  0.00     0.258 C 
HETATM   26  O   UNL     1     -22.995  -6.987  -0.579  1.00  0.00    -0.265 OA
BRANCH  25  27
HETATM   27  C   UNL     1     -20.841  -7.736  -1.382  1.00  0.00     0.111 C 
BRANCH  27  28
HETATM   28  C   UNL     1     -21.137  -9.232  -1.407  1.00  0.00     0.010 C 
BRANCH  28  29
HETATM   29  C   UNL     1     -20.940  -9.881  -0.041  1.00  0.00     0.000 C 
BRANCH  29  30
HETATM   30  C   UNL     1     -22.155 -10.719   0.329  1.00  0.00     0.000 C 
BRANCH  30  31
HETATM   31  C   UNL     1     -23.270 -10.499  -0.679  1.00  0.00     0.000 C 
BRANCH  31  32
HETATM   32  C   UNL     1     -23.755 -11.835  -1.214  1.00  0.00     0.000 C 
BRANCH  32  33
HETATM   33  C   UNL     1     -22.916 -12.241  -2.411  1.00  0.00     0.000 C 
BRANCH  33  34
HETATM   34  C   UNL     1     -22.134 -13.501  -2.092  1.00  0.00     0.000 C 
BRANCH  34  35
HETATM   35  C   UNL     1     -20.714 -13.374  -2.607  1.00  0.00     0.000 C 
BRANCH  35  36
HETATM   36  C   UNL     1     -19.801 -12.921  -1.484  1.00  0.00     0.000 C 
BRANCH  36  37
HETATM   37  C   UNL     1     -18.393 -12.731  -2.010  1.00  0.00     0.000 C 
BRANCH  37  38
HETATM   38  C   UNL     1     -17.662 -11.716  -1.151  1.00  0.00     0.000 C 
BRANCH  38  39
HETATM   39  C   UNL     1     -17.841 -12.078   0.306  1.00  0.00     0.000 C 
BRANCH  39  40
HETATM   40  C   UNL     1     -16.492 -12.280   0.981  1.00  0.00     0.004 C 
BRANCH  40  41
HETATM   41  C   UNL     1     -16.249 -13.756   1.304  1.00  0.00    -0.023 C 
HETATM   42  C   UNL     1     -15.666 -13.928   2.707  1.00  0.00     0.009 C 
HETATM   43  C   UNL     1     -17.562 -14.526   1.196  1.00  0.00     0.009 C 
ENDBRANCH  40  41
ENDBRANCH  39  40
ENDBRANCH  38  39
ENDBRANCH  37  38
ENDBRANCH  36  37
ENDBRANCH  35  36
ENDBRANCH  34  35
ENDBRANCH  33  34
ENDBRANCH  32  33
ENDBRANCH  31  32
ENDBRANCH  30  31
ENDBRANCH  29  30
ENDBRANCH  28  29
ENDBRANCH  27  28
ENDBRANCH  25  27
ENDBRANCH  24  25
ENDBRANCH  23  24
ENDBRANCH   1  23
BRANCH   1  44
HETATM   44  C   UNL     1     -20.138  -5.188  -5.511  1.00  0.00     0.195 C 
BRANCH  44  45
HETATM   45  O   UNL     1     -19.519  -5.691  -6.718  1.00  0.00    -0.320 OA
BRANCH  45  46
HETATM   46  C   UNL     1     -18.985  -4.759  -7.550  1.00  0.00     0.258 C 
HETATM   47  O   UNL     1     -17.983  -4.063  -7.311  1.00  0.00    -0.265 OA
BRANCH  46  48
HETATM   48  C   UNL     1     -19.707  -4.742  -8.885  1.00  0.00     0.111 C 
BRANCH  48  49
HETATM   49  C   UNL     1     -20.163  -3.336  -9.230  1.00  0.00     0.010 C 
BRANCH  49  50
HETATM   50  C   UNL     1     -20.800  -3.260 -10.613  1.00  0.00     0.000 C 
BRANCH  50  51
HETATM   51  C   UNL     1     -20.740  -4.623 -11.286  1.00  0.00     0.000 C 
BRANCH  51  52
HETATM   52  C   UNL     1     -21.982  -4.846 -12.130  1.00  0.00     0.000 C 
BRANCH  52  53
HETATM   53  C   UNL     1     -21.903  -4.029 -13.408  1.00  0.00     0.000 C 
BRANCH  53  54
HETATM   54  C   UNL     1     -22.675  -4.727 -14.513  1.00  0.00     0.000 C 
BRANCH  54  55
HETATM   55  C   UNL     1     -23.387  -5.944 -13.955  1.00  0.00     0.000 C 
BRANCH  55  56
HETATM   56  C   UNL     1     -24.516  -6.349 -14.883  1.00  0.00     0.000 C 
BRANCH  56  57
HETATM   57  C   UNL     1     -24.001  -7.332 -15.915  1.00  0.00     0.000 C 
BRANCH  57  58
HETATM   58  C   UNL     1     -24.601  -7.017 -17.269  1.00  0.00     0.000 C 
BRANCH  58  59
HETATM   59  C   UNL     1     -23.560  -7.238 -18.351  1.00  0.00     0.000 C 
BRANCH  59  60
HETATM   60  C   UNL     1     -24.055  -6.636 -19.647  1.00  0.00     0.000 C 
BRANCH  60  61
HETATM   61  C   UNL     1     -25.542  -6.901 -19.828  1.00  0.00     0.004 C 
BRANCH  61  62
HETATM   62  C   UNL     1     -25.846  -7.416 -21.239  1.00  0.00    -0.023 C 
HETATM   63  C   UNL     1     -24.607  -8.045 -21.876  1.00  0.00     0.009 C 
HETATM   64  C   UNL     1     -26.970  -8.444 -21.177  1.00  0.00     0.009 C 
ENDBRANCH  61  62
ENDBRANCH  60  61
ENDBRANCH  59  60
ENDBRANCH  58  59
ENDBRANCH  57  58
ENDBRANCH  56  57
ENDBRANCH  55  56
ENDBRANCH  54  55
ENDBRANCH  53  54
ENDBRANCH  52  53
ENDBRANCH  51  52
ENDBRANCH  50  51
ENDBRANCH  49  50
ENDBRANCH  48  49
ENDBRANCH  46  48
ENDBRANCH  45  46
ENDBRANCH  44  45
ENDBRANCH   1  44
BRANCH   1  65
HETATM   65  C   UNL     1     -22.428  -6.227  -5.282  1.00  0.00     0.195 C 
BRANCH  65  66
HETATM   66  O   UNL     1     -22.755  -5.023  -6.011  1.00  0.00    -0.320 OA
BRANCH  66  67
HETATM   67  C   UNL     1     -22.762  -5.138  -7.371  1.00  0.00     0.258 C 
HETATM   68  O   UNL     1     -22.305  -6.091  -7.991  1.00  0.00    -0.265 OA
BRANCH  67  69
HETATM   69  C   UNL     1     -23.445  -3.941  -8.002  1.00  0.00     0.111 C 
BRANCH  69  70
HETATM   70  C   UNL     1     -24.089  -4.355  -9.324  1.00  0.00     0.010 C 
BRANCH  70  71
HETATM   71  C   UNL     1     -24.969  -3.261  -9.914  1.00  0.00     0.000 C 
BRANCH  71  72
HETATM   72  C   UNL     1     -24.466  -2.873 -11.301  1.00  0.00     0.000 C 
BRANCH  72  73
HETATM   73  C   UNL     1     -25.321  -3.532 -12.372  1.00  0.00     0.000 C 
BRANCH  73  74
HETATM   74  C   UNL     1     -25.656  -2.531 -13.463  1.00  0.00     0.000 C 
BRANCH  74  75
HETATM   75  C   UNL     1     -26.096  -3.263 -14.717  1.00  0.00     0.000 C 
BRANCH  75  76
HETATM   76  C   UNL     1     -26.877  -2.324 -15.616  1.00  0.00     0.000 C 
BRANCH  76  77
HETATM   77  C   UNL     1     -27.809  -3.121 -16.507  1.00  0.00     0.000 C 
BRANCH  77  78
HETATM   78  C   UNL     1     -27.497  -4.598 -16.380  1.00  0.00     0.000 C 
BRANCH  78  79
HETATM   79  C   UNL     1     -27.806  -5.303 -17.683  1.00  0.00     0.000 C 
BRANCH  79  80
HETATM   80  C   UNL     1     -28.569  -6.584 -17.402  1.00  0.00     0.000 C 
BRANCH  80  81
HETATM   81  C   UNL     1     -29.663  -6.301 -16.398  1.00  0.00     0.000 C 
BRANCH  81  82
HETATM   82  C   UNL     1     -30.968  -5.964 -17.105  1.00  0.00     0.004 C 
BRANCH  82  83
HETATM   83  C   UNL     1     -31.466  -4.569 -16.714  1.00  0.00    -0.023 C 
HETATM   84  C   UNL     1     -31.040  -3.523 -17.744  1.00  0.00     0.009 C 
HETATM   85  C   UNL     1     -32.986  -4.584 -16.596  1.00  0.00     0.009 C 
ENDBRANCH  82  83
ENDBRANCH  81  82
ENDBRANCH  80  81
ENDBRANCH  79  80
ENDBRANCH  78  79
ENDBRANCH  77  78
ENDBRANCH  76  77
ENDBRANCH  75  76
ENDBRANCH  74  75
ENDBRANCH  73  74
ENDBRANCH  72  73
ENDBRANCH  71  72
ENDBRANCH  70  71
ENDBRANCH  69  70
ENDBRANCH  67  69
ENDBRANCH  66  67
ENDBRANCH  65  66
ENDBRANCH   1  65
TORSDOF 72
BEGIN_RES ARG D 557
REMARK  4 active torsions:
REMARK  status: ('A' for Active; 'I' for Inactive)
REMARK    1  A    between atoms: CA   and  CB  
REMARK    2  A    between atoms: CB   and  CG  
REMARK    3  A    between atoms: CG   and  CD  
REMARK    4  A    between atoms: CD   and  NE  
REMARK       I    between atoms: NE   and  CZ  
REMARK       I    between atoms: CZ   and  NH1 
REMARK       I    between atoms: CZ   and  NH2 
ROOT
ATOM      1  CA  ARG D 557     -26.217   2.705 -17.014  1.00 35.49     0.159 C 
ENDROOT
BRANCH   1   2
ATOM      2  CB  ARG D 557     -26.789   1.319 -17.183  1.00 35.49     0.034 C 
BRANCH   2   3
ATOM      3  CG  ARG D 557     -25.827   0.226 -17.372  1.00 35.49     0.027 C 
BRANCH   3   4
ATOM      4  CD  ARG D 557     -24.465   0.588 -16.917  1.00 35.49     0.116 C 
BRANCH   4   5
ATOM      5  NE  ARG D 557     -24.211   0.155 -15.569  1.00 35.49    -0.212 N 
ATOM      6  CZ  ARG D 557     -23.318  -0.738 -15.204  1.00 35.49     0.666 C 
ATOM      7  NH1 ARG D 557     -22.543  -1.362 -16.072  1.00 35.49    -0.235 N 
ATOM      8  NH2 ARG D 557     -23.208  -0.993 -13.933  1.00 35.49    -0.235 N 
ATOM      9  HH  ARG D 557     -22.597  -1.208 -16.914  1.00 35.49     0.174 HD
ATOM     10  HH  ARG D 557     -21.977  -1.932 -15.776  1.00 35.49     0.174 HD
ATOM     11  HH  ARG D 557     -23.716  -0.569 -13.394  1.00 35.49     0.174 HD
ATOM     12  HH  ARG D 557     -22.640  -1.560 -13.659  1.00 35.49     0.174 HD
ATOM     13  HE  ARG D 557     -24.715   0.452 -14.952  1.00 35.49     0.178 HD
ENDBRANCH   4   5
ENDBRANCH   3   4
ENDBRANCH   2   3
ENDBRANCH   1   2
END_RES ARG D 557
BEGIN_RES GLU D 570
REMARK  3 active torsions:
REMARK  status: ('A' for Active; 'I' for Inactive)
REMARK    5  A    between atoms: CA   and  CB  
REMARK    6  A    between atoms: CB   and  CG  
REMARK    7  A    between atoms: CG   and  CD  
ROOT
ATOM     14  CA  GLU D 570     -18.033  -6.348 -13.375  1.00 32.92     0.160 C 
ENDROOT
BRANCH  14  15
ATOM     15  CB  GLU D 570     -19.500  -6.345 -13.794  1.00 32.92     0.043 C 
BRANCH  15  16
ATOM     16  CG  GLU D 570     -20.089  -7.636 -14.234  1.00 32.92     0.100 C 
BRANCH  16  17
ATOM     17  CD  GLU D 570     -20.469  -7.643 -15.696  1.00 32.92     0.185 C 
ATOM     18  OE1 GLU D 570     -20.499  -6.564 -16.319  1.00 32.92    -0.647 OA
ATOM     19  OE2 GLU D 570     -20.756  -8.737 -16.221  1.00 32.92    -0.647 OA
ENDBRANCH  16  17
ENDBRANCH  15  16
ENDBRANCH  14  15
END_RES GLU D 570
ENDMDL
MODEL 7
REMARK VINA RESULT:      -4.8      2.196      4.425
REMARK WARNING: 32 MAX_TORS EXCEEDED!!!
REMARK  72 active torsions:
REMARK  status: ('A' for Active; 'I' for Inactive)
REMARK    1  A    between atoms: C_2  and  C_4 
REMARK    2  A    between atoms: C_4  and  C_5 
REMARK    3  A    between atoms: C_5  and  C_6 
REMARK    4  A    between atoms: C_6  and  C_7 
REMARK    5  A    between atoms: C_7  and  C_8 
REMARK    6  A    between atoms: C_8  and  C_9 
REMARK    7  A    between atoms: C_9  and  C_10 
REMARK    8  A    between atoms: C_10  and  C_11 
REMARK    9  A    between atoms: C_11  and  C_12 
REMARK   10  A    between atoms: C_12  and  C_13 
REMARK   11  A    between atoms: C_13  and  C_14 
REMARK   12  A    between atoms: C_14  and  C_15 
REMARK   13  A    between atoms: C_15  and  C_16 
REMARK   14  A    between atoms: C_16  and  C_17 
REMARK   15  A    between atoms: C_17  and  C_18 
REMARK   16  A    between atoms: C_18  and  O_20 
REMARK   17  A    between atoms: O_20  and  C_21 
REMARK   18  A    between atoms: C_21  and  C_22 
REMARK   19  A    between atoms: C_22  and  C_23 
REMARK   20  A    between atoms: C_22  and  C_44 
REMARK   21  A    between atoms: C_22  and  C_65 
REMARK   22  A    between atoms: C_23  and  O_24 
REMARK   23  A    between atoms: O_24  and  C_25 
REMARK   24  A    between atoms: C_25  and  C_27 
REMARK   25  A    between atoms: C_27  and  C_28 
REMARK   26  A    between atoms: C_28  and  C_29 
REMARK   27  A    between atoms: C_29  and  C_30 
REMARK   28  A    between atoms: C_30  and  C_31 
REMARK   29  A    between atoms: C_31  and  C_32 
REMARK   30  A    between atoms: C_32  and  C_33 
REMARK   31  A    between atoms: C_33  and  C_34 
REMARK   32  A    between atoms: C_34  and  C_35 
REMARK   33  A    between atoms: C_35  and  C_36 
REMARK   34  A    between atoms: C_36  and  C_37 
REMARK   35  A    between atoms: C_37  and  C_38 
REMARK   36  A    between atoms: C_38  and  C_39 
REMARK   37  A    between atoms: C_39  and  C_40 
REMARK   38  A    between atoms: C_40  and  C_41 
REMARK   39  A    between atoms: C_44  and  O_45 
REMARK   40  A    between atoms: O_45  and  C_46 
REMARK   41  A    between atoms: C_46  and  C_48 
REMARK   42  A    between atoms: C_48  and  C_49 
REMARK   43  A    between atoms: C_49  and  C_50 
REMARK   44  A    between atoms: C_50  and  C_51 
REMARK   45  A    between atoms: C_51  and  C_52 
REMARK   46  A    between atoms: C_52  and  C_53 
REMARK   47  A    between atoms: C_53  and  C_54 
REMARK   48  A    between atoms: C_54  and  C_55 
REMARK   49  A    between atoms: C_55  and  C_56 
REMARK   50  A    between atoms: C_56  and  C_57 
REMARK   51  A    between atoms: C_57  and  C_58 
REMARK   52  A    between atoms: C_58  and  C_59 
REMARK   53  A    between atoms: C_59  and  C_60 
REMARK   54  A    between atoms: C_60  and  C_61 
REMARK   55  A    between atoms: C_61  and  C_62 
REMARK   56  A    between atoms: C_65  and  O_66 
REMARK   57  A    between atoms: O_66  and  C_67 
REMARK   58  A    between atoms: C_67  and  C_69 
REMARK   59  A    between atoms: C_69  and  C_70 
REMARK   60  A    between atoms: C_70  and  C_71 
REMARK   61  A    between atoms: C_71  and  C_72 
REMARK   62  A    between atoms: C_72  and  C_73 
REMARK   63  A    between atoms: C_73  and  C_74 
REMARK   64  A    between atoms: C_74  and  C_75 
REMARK   65  A    between atoms: C_75  and  C_76 
REMARK   66  A    between atoms: C_76  and  C_77 
REMARK   67  A    between atoms: C_77  and  C_78 
REMARK   68  A    between atoms: C_78  and  C_79 
REMARK   69  A    between atoms: C_79  and  C_80 
REMARK   70  A    between atoms: C_80  and  C_81 
REMARK   71  A    between atoms: C_81  and  C_82 
REMARK   72  A    between atoms: C_82  and  C_83 
ROOT
HETATM    1  C   UNL     1     -20.749  -8.807  -3.597  1.00  0.00     0.048 C 
ENDROOT
BRANCH   1   2
HETATM    2  C   UNL     1     -21.505  -9.572  -4.709  1.00  0.00     0.195 C 
BRANCH   2   3
HETATM    3  O   UNL     1     -21.895 -10.895  -4.270  1.00  0.00    -0.320 OA
BRANCH   3   4
HETATM    4  C   UNL     1     -21.598 -11.923  -5.120  1.00  0.00     0.258 C 
HETATM    5  O   UNL     1     -22.294 -12.297  -6.059  1.00  0.00    -0.265 OA
BRANCH   4   6
HETATM    6  C   UNL     1     -20.262 -12.549  -4.780  1.00  0.00     0.111 C 
BRANCH   6   7
HETATM    7  C   UNL     1     -20.202 -12.829  -3.287  1.00  0.00     0.010 C 
BRANCH   7   8
HETATM    8  C   UNL     1     -18.775 -12.903  -2.763  1.00  0.00     0.000 C 
BRANCH   8   9
HETATM    9  C   UNL     1     -18.446 -14.336  -2.361  1.00  0.00     0.000 C 
BRANCH   9  10
HETATM   10  C   UNL     1     -17.207 -14.817  -3.097  1.00  0.00     0.000 C 
BRANCH  10  11
HETATM   11  C   UNL     1     -17.527 -15.055  -4.563  1.00  0.00     0.000 C 
BRANCH  11  12
HETATM   12  C   UNL     1     -16.247 -15.039  -5.378  1.00  0.00     0.000 C 
BRANCH  12  13
HETATM   13  C   UNL     1     -16.578 -14.965  -6.857  1.00  0.00     0.000 C 
BRANCH  13  14
HETATM   14  C   UNL     1     -17.399 -13.722  -7.140  1.00  0.00     0.000 C 
BRANCH  14  15
HETATM   15  C   UNL     1     -18.426 -14.023  -8.214  1.00  0.00     0.000 C 
BRANCH  15  16
HETATM   16  C   UNL     1     -19.025 -15.395  -7.983  1.00  0.00     0.000 C 
BRANCH  16  17
HETATM   17  C   UNL     1     -20.310 -15.261  -7.187  1.00  0.00     0.000 C 
BRANCH  17  18
HETATM   18  C   UNL     1     -20.813 -16.639  -6.820  1.00  0.00     0.000 C 
BRANCH  18  19
HETATM   19  C   UNL     1     -22.137 -16.549  -6.078  1.00  0.00     0.004 C 
BRANCH  19  20
HETATM   20  C   UNL     1     -22.014 -15.674  -4.828  1.00  0.00    -0.023 C 
HETATM   21  C   UNL     1     -23.405 -15.269  -4.348  1.00  0.00     0.009 C 
HETATM   22  C   UNL     1     -21.277 -16.409  -3.709  1.00  0.00     0.009 C 
ENDBRANCH  19  20
ENDBRANCH  18  19
ENDBRANCH  17  18
ENDBRANCH  16  17
ENDBRANCH  15  16
ENDBRANCH  14  15
ENDBRANCH  13  14
ENDBRANCH  12  13
ENDBRANCH  11  12
ENDBRANCH  10  11
ENDBRANCH   9  10
ENDBRANCH   8   9
ENDBRANCH   7   8
ENDBRANCH   6   7
ENDBRANCH   4   6
ENDBRANCH   3   4
ENDBRANCH   2   3
ENDBRANCH   1   2
BRANCH   1  23
HETATM   23  C   UNL     1     -19.269  -9.249  -3.585  1.00  0.00     0.195 C 
BRANCH  23  24
HETATM   24  O   UNL     1     -18.528  -8.743  -4.716  1.00  0.00    -0.320 OA
BRANCH  24  25
HETATM   25  C   UNL     1     -17.924  -9.698  -5.484  1.00  0.00     0.258 C 
HETATM   26  O   UNL     1     -18.449 -10.283  -6.423  1.00  0.00    -0.265 OA
BRANCH  25  27
HETATM   27  C   UNL     1     -16.469  -9.861  -5.102  1.00  0.00     0.111 C 
BRANCH  27  28
HETATM   28  C   UNL     1     -16.138 -11.333  -4.874  1.00  0.00     0.010 C 
BRANCH  28  29
HETATM   29  C   UNL     1     -15.355 -11.553  -3.584  1.00  0.00     0.000 C 
BRANCH  29  30
HETATM   30  C   UNL     1     -14.125 -12.410  -3.850  1.00  0.00     0.000 C 
BRANCH  30  31
HETATM   31  C   UNL     1     -13.848 -13.312  -2.659  1.00  0.00     0.000 C 
BRANCH  31  32
HETATM   32  C   UNL     1     -12.782 -14.331  -3.020  1.00  0.00     0.000 C 
BRANCH  32  33
HETATM   33  C   UNL     1     -13.398 -15.716  -3.078  1.00  0.00     0.000 C 
BRANCH  33  34
HETATM   34  C   UNL     1     -13.238 -16.410  -1.739  1.00  0.00     0.000 C 
BRANCH  34  35
HETATM   35  C   UNL     1     -14.496 -16.235  -0.911  1.00  0.00     0.000 C 
BRANCH  35  36
HETATM   36  C   UNL     1     -14.140 -15.662   0.447  1.00  0.00     0.000 C 
BRANCH  36  37
HETATM   37  C   UNL     1     -12.856 -16.290   0.950  1.00  0.00     0.000 C 
BRANCH  37  38
HETATM   38  C   UNL     1     -12.006 -15.233   1.629  1.00  0.00     0.000 C 
BRANCH  38  39
HETATM   39  C   UNL     1     -10.952 -14.745   0.661  1.00  0.00     0.000 C 
BRANCH  39  40
HETATM   40  C   UNL     1     -10.349 -13.432   1.137  1.00  0.00     0.004 C 
BRANCH  40  41
HETATM   41  C   UNL     1      -9.023 -13.663   1.866  1.00  0.00    -0.023 C 
HETATM   42  C   UNL     1      -9.225 -13.721   3.380  1.00  0.00     0.009 C 
HETATM   43  C   UNL     1      -8.395 -14.967   1.381  1.00  0.00     0.009 C 
ENDBRANCH  40  41
ENDBRANCH  39  40
ENDBRANCH  38  39
ENDBRANCH  37  38
ENDBRANCH  36  37
ENDBRANCH  35  36
ENDBRANCH  34  35
ENDBRANCH  33  34
ENDBRANCH  32  33
ENDBRANCH  31  32
ENDBRANCH  30  31
ENDBRANCH  29  30
ENDBRANCH  28  29
ENDBRANCH  27  28
ENDBRANCH  25  27
ENDBRANCH  24  25
ENDBRANCH  23  24
ENDBRANCH   1  23
BRANCH   1  44
HETATM   44  C   UNL     1     -20.821  -7.283  -3.867  1.00  0.00     0.195 C 
BRANCH  44  45
HETATM   45  O   UNL     1     -20.901  -6.965  -5.277  1.00  0.00    -0.320 OA
BRANCH  45  46
HETATM   46  C   UNL     1     -20.406  -5.755  -5.646  1.00  0.00     0.258 C 
HETATM   47  O   UNL     1     -20.348  -4.744  -4.924  1.00  0.00    -0.265 OA
BRANCH  46  48
HETATM   48  C   UNL     1     -19.815  -5.811  -7.043  1.00  0.00     0.111 C 
BRANCH  48  49
HETATM   49  C   UNL     1     -20.455  -4.765  -7.937  1.00  0.00     0.010 C 
BRANCH  49  50
HETATM   50  C   UNL     1     -21.864  -5.156  -8.366  1.00  0.00     0.000 C 
BRANCH  50  51
HETATM   51  C   UNL     1     -22.580  -3.949  -8.954  1.00  0.00     0.000 C 
BRANCH  51  52
HETATM   52  C   UNL     1     -23.883  -4.378  -9.604  1.00  0.00     0.000 C 
BRANCH  52  53
HETATM   53  C   UNL     1     -24.377  -3.301 -10.554  1.00  0.00     0.000 C 
BRANCH  53  54
HETATM   54  C   UNL     1     -23.306  -2.995 -11.586  1.00  0.00     0.000 C 
BRANCH  54  55
HETATM   55  C   UNL     1     -23.847  -3.250 -12.980  1.00  0.00     0.000 C 
BRANCH  55  56
HETATM   56  C   UNL     1     -23.623  -4.700 -13.362  1.00  0.00     0.000 C 
BRANCH  56  57
HETATM   57  C   UNL     1     -24.054  -4.923 -14.798  1.00  0.00     0.000 C 
BRANCH  57  58
HETATM   58  C   UNL     1     -24.782  -6.245 -14.917  1.00  0.00     0.000 C 
BRANCH  58  59
HETATM   59  C   UNL     1     -24.066  -7.131 -15.920  1.00  0.00     0.000 C 
BRANCH  59  60
HETATM   60  C   UNL     1     -22.730  -7.549 -15.347  1.00  0.00     0.000 C 
BRANCH  60  61
HETATM   61  C   UNL     1     -21.700  -7.718 -16.454  1.00  0.00     0.004 C 
BRANCH  61  62
HETATM   62  C   UNL     1     -21.780  -6.571 -17.466  1.00  0.00    -0.023 C 
HETATM   63  C   UNL     1     -20.663  -5.553 -17.236  1.00  0.00     0.009 C 
HETATM   64  C   UNL     1     -21.681  -7.131 -18.881  1.00  0.00     0.009 C 
ENDBRANCH  61  62
ENDBRANCH  60  61
ENDBRANCH  59  60
ENDBRANCH  58  59
ENDBRANCH  57  58
ENDBRANCH  56  57
ENDBRANCH  55  56
ENDBRANCH  54  55
ENDBRANCH  53  54
ENDBRANCH  52  53
ENDBRANCH  51  52
ENDBRANCH  50  51
ENDBRANCH  49  50
ENDBRANCH  48  49
ENDBRANCH  46  48
ENDBRANCH  45  46
ENDBRANCH  44  45
ENDBRANCH   1  44
BRANCH   1  65
HETATM   65  C   UNL     1     -21.368  -9.105  -2.207  1.00  0.00     0.195 C 
BRANCH  65  66
HETATM   66  O   UNL     1     -20.496  -9.858  -1.333  1.00  0.00    -0.320 OA
BRANCH  66  67
HETATM   67  C   UNL     1     -20.966 -10.072  -0.071  1.00  0.00     0.258 C 
HETATM   68  O   UNL     1     -21.224  -9.185   0.735  1.00  0.00    -0.265 OA
BRANCH  67  69
HETATM   69  C   UNL     1     -21.158 -11.554   0.180  1.00  0.00     0.111 C 
BRANCH  69  70
HETATM   70  C   UNL     1     -22.647 -11.894   0.138  1.00  0.00     0.010 C 
BRANCH  70  71
HETATM   71  C   UNL     1     -23.139 -12.204  -1.269  1.00  0.00     0.000 C 
BRANCH  71  72
HETATM   72  C   UNL     1     -24.220 -13.278  -1.223  1.00  0.00     0.000 C 
BRANCH  72  73
HETATM   73  C   UNL     1     -23.891 -14.307  -0.153  1.00  0.00     0.000 C 
BRANCH  73  74
HETATM   74  C   UNL     1     -23.586 -15.649  -0.795  1.00  0.00     0.000 C 
BRANCH  74  75
HETATM   75  C   UNL     1     -22.391 -16.288  -0.111  1.00  0.00     0.000 C 
BRANCH  75  76
HETATM   76  C   UNL     1     -21.214 -15.332  -0.128  1.00  0.00     0.000 C 
BRANCH  76  77
HETATM   77  C   UNL     1     -20.770 -15.037   1.292  1.00  0.00     0.000 C 
BRANCH  77  78
HETATM   78  C   UNL     1     -21.274 -16.123   2.220  1.00  0.00     0.000 C 
BRANCH  78  79
HETATM   79  C   UNL     1     -21.777 -15.507   3.508  1.00  0.00     0.000 C 
BRANCH  79  80
HETATM   80  C   UNL     1     -22.928 -14.565   3.207  1.00  0.00     0.000 C 
BRANCH  80  81
HETATM   81  C   UNL     1     -24.234 -15.307   3.377  1.00  0.00     0.000 C 
BRANCH  81  82
HETATM   82  C   UNL     1     -24.504 -15.592   4.847  1.00  0.00     0.004 C 
BRANCH  82  83
HETATM   83  C   UNL     1     -25.896 -15.105   5.260  1.00  0.00    -0.023 C 
HETATM   84  C   UNL     1     -26.977 -16.102   4.842  1.00  0.00     0.009 C 
HETATM   85  C   UNL     1     -25.939 -14.904   6.771  1.00  0.00     0.009 C 
ENDBRANCH  82  83
ENDBRANCH  81  82
ENDBRANCH  80  81
ENDBRANCH  79  80
ENDBRANCH  78  79
ENDBRANCH  77  78
ENDBRANCH  76  77
ENDBRANCH  75  76
ENDBRANCH  74  75
ENDBRANCH  73  74
ENDBRANCH  72  73
ENDBRANCH  71  72
ENDBRANCH  70  71
ENDBRANCH  69  70
ENDBRANCH  67  69
ENDBRANCH  66  67
ENDBRANCH  65  66
ENDBRANCH   1  65
TORSDOF 72
BEGIN_RES ARG D 557
REMARK  4 active torsions:
REMARK  status: ('A' for Active; 'I' for Inactive)
REMARK    1  A    between atoms: CA   and  CB  
REMARK    2  A    between atoms: CB   and  CG  
REMARK    3  A    between atoms: CG   and  CD  
REMARK    4  A    between atoms: CD   and  NE  
REMARK       I    between atoms: NE   and  CZ  
REMARK       I    between atoms: CZ   and  NH1 
REMARK       I    between atoms: CZ   and  NH2 
ROOT
ATOM      1  CA  ARG D 557     -26.217   2.705 -17.014  1.00 35.49     0.159 C 
ENDROOT
BRANCH   1   2
ATOM      2  CB  ARG D 557     -26.789   1.319 -17.183  1.00 35.49     0.034 C 
BRANCH   2   3
ATOM      3  CG  ARG D 557     -25.962   0.201 -16.712  1.00 35.49     0.027 C 
BRANCH   3   4
ATOM      4  CD  ARG D 557     -26.758  -0.837 -16.018  1.00 35.49     0.116 C 
BRANCH   4   5
ATOM      5  NE  ARG D 557     -27.988  -1.127 -16.707  1.00 35.49    -0.212 N 
ATOM      6  CZ  ARG D 557     -28.475  -2.327 -16.936  1.00 35.49     0.666 C 
ATOM      7  NH1 ARG D 557     -27.855  -3.428 -16.556  1.00 35.49    -0.235 N 
ATOM      8  NH2 ARG D 557     -29.616  -2.402 -17.557  1.00 35.49    -0.235 N 
ATOM      9  HH  ARG D 557     -27.104  -3.402 -16.143  1.00 35.49     0.174 HD
ATOM     10  HH  ARG D 557     -28.222  -4.183 -16.730  1.00 35.49     0.174 HD
ATOM     11  HH  ARG D 557     -29.997  -1.674 -17.784  1.00 35.49     0.174 HD
ATOM     12  HH  ARG D 557     -29.964  -3.159 -17.719  1.00 35.49     0.174 HD
ATOM     13  HE  ARG D 557     -28.417  -0.478 -17.050  1.00 35.49     0.178 HD
ENDBRANCH   4   5
ENDBRANCH   3   4
ENDBRANCH   2   3
ENDBRANCH   1   2
END_RES ARG D 557
BEGIN_RES GLU D 570
REMARK  3 active torsions:
REMARK  status: ('A' for Active; 'I' for Inactive)
REMARK    5  A    between atoms: CA   and  CB  
REMARK    6  A    between atoms: CB   and  CG  
REMARK    7  A    between atoms: CG   and  CD  
ROOT
ATOM     14  CA  GLU D 570     -18.033  -6.348 -13.375  1.00 32.92     0.160 C 
ENDROOT
BRANCH  14  15
ATOM     15  CB  GLU D 570     -19.500  -6.345 -13.794  1.00 32.92     0.043 C 
BRANCH  15  16
ATOM     16  CG  GLU D 570     -20.447  -5.556 -12.965  1.00 32.92     0.100 C 
BRANCH  16  17
ATOM     17  CD  GLU D 570     -19.817  -5.017 -11.702  1.00 32.92     0.185 C 
ATOM     18  OE1 GLU D 570     -19.242  -5.807 -10.928  1.00 32.92    -0.647 OA
ATOM     19  OE2 GLU D 570     -19.914  -3.795 -11.475  1.00 32.92    -0.647 OA
ENDBRANCH  16  17
ENDBRANCH  15  16
ENDBRANCH  14  15
END_RES GLU D 570
ENDMDL
MODEL 8
REMARK VINA RESULT:      -4.8      3.601     14.066
REMARK WARNING: 32 MAX_TORS EXCEEDED!!!
REMARK  72 active torsions:
REMARK  status: ('A' for Active; 'I' for Inactive)
REMARK    1  A    between atoms: C_2  and  C_4 
REMARK    2  A    between atoms: C_4  and  C_5 
REMARK    3  A    between atoms: C_5  and  C_6 
REMARK    4  A    between atoms: C_6  and  C_7 
REMARK    5  A    between atoms: C_7  and  C_8 
REMARK    6  A    between atoms: C_8  and  C_9 
REMARK    7  A    between atoms: C_9  and  C_10 
REMARK    8  A    between atoms: C_10  and  C_11 
REMARK    9  A    between atoms: C_11  and  C_12 
REMARK   10  A    between atoms: C_12  and  C_13 
REMARK   11  A    between atoms: C_13  and  C_14 
REMARK   12  A    between atoms: C_14  and  C_15 
REMARK   13  A    between atoms: C_15  and  C_16 
REMARK   14  A    between atoms: C_16  and  C_17 
REMARK   15  A    between atoms: C_17  and  C_18 
REMARK   16  A    between atoms: C_18  and  O_20 
REMARK   17  A    between atoms: O_20  and  C_21 
REMARK   18  A    between atoms: C_21  and  C_22 
REMARK   19  A    between atoms: C_22  and  C_23 
REMARK   20  A    between atoms: C_22  and  C_44 
REMARK   21  A    between atoms: C_22  and  C_65 
REMARK   22  A    between atoms: C_23  and  O_24 
REMARK   23  A    between atoms: O_24  and  C_25 
REMARK   24  A    between atoms: C_25  and  C_27 
REMARK   25  A    between atoms: C_27  and  C_28 
REMARK   26  A    between atoms: C_28  and  C_29 
REMARK   27  A    between atoms: C_29  and  C_30 
REMARK   28  A    between atoms: C_30  and  C_31 
REMARK   29  A    between atoms: C_31  and  C_32 
REMARK   30  A    between atoms: C_32  and  C_33 
REMARK   31  A    between atoms: C_33  and  C_34 
REMARK   32  A    between atoms: C_34  and  C_35 
REMARK   33  A    between atoms: C_35  and  C_36 
REMARK   34  A    between atoms: C_36  and  C_37 
REMARK   35  A    between atoms: C_37  and  C_38 
REMARK   36  A    between atoms: C_38  and  C_39 
REMARK   37  A    between atoms: C_39  and  C_40 
REMARK   38  A    between atoms: C_40  and  C_41 
REMARK   39  A    between atoms: C_44  and  O_45 
REMARK   40  A    between atoms: O_45  and  C_46 
REMARK   41  A    between atoms: C_46  and  C_48 
REMARK   42  A    between atoms: C_48  and  C_49 
REMARK   43  A    between atoms: C_49  and  C_50 
REMARK   44  A    between atoms: C_50  and  C_51 
REMARK   45  A    between atoms: C_51  and  C_52 
REMARK   46  A    between atoms: C_52  and  C_53 
REMARK   47  A    between atoms: C_53  and  C_54 
REMARK   48  A    between atoms: C_54  and  C_55 
REMARK   49  A    between atoms: C_55  and  C_56 
REMARK   50  A    between atoms: C_56  and  C_57 
REMARK   51  A    between atoms: C_57  and  C_58 
REMARK   52  A    between atoms: C_58  and  C_59 
REMARK   53  A    between atoms: C_59  and  C_60 
REMARK   54  A    between atoms: C_60  and  C_61 
REMARK   55  A    between atoms: C_61  and  C_62 
REMARK   56  A    between atoms: C_65  and  O_66 
REMARK   57  A    between atoms: O_66  and  C_67 
REMARK   58  A    between atoms: C_67  and  C_69 
REMARK   59  A    between atoms: C_69  and  C_70 
REMARK   60  A    between atoms: C_70  and  C_71 
REMARK   61  A    between atoms: C_71  and  C_72 
REMARK   62  A    between atoms: C_72  and  C_73 
REMARK   63  A    between atoms: C_73  and  C_74 
REMARK   64  A    between atoms: C_74  and  C_75 
REMARK   65  A    between atoms: C_75  and  C_76 
REMARK   66  A    between atoms: C_76  and  C_77 
REMARK   67  A    between atoms: C_77  and  C_78 
REMARK   68  A    between atoms: C_78  and  C_79 
REMARK   69  A    between atoms: C_79  and  C_80 
REMARK   70  A    between atoms: C_80  and  C_81 
REMARK   71  A    between atoms: C_81  and  C_82 
REMARK   72  A    between atoms: C_82  and  C_83 
ROOT
HETATM    1  C   UNL     1     -22.078  -4.575  -8.360  1.00  0.00     0.048 C 
ENDROOT
BRANCH   1   2
HETATM    2  C   UNL     1     -23.331  -3.726  -8.679  1.00  0.00     0.195 C 
BRANCH   2   3
HETATM    3  O   UNL     1     -24.093  -4.293  -9.771  1.00  0.00    -0.320 OA
BRANCH   3   4
HETATM    4  C   UNL     1     -25.040  -3.483 -10.329  1.00  0.00     0.258 C 
HETATM    5  O   UNL     1     -26.109  -3.173  -9.812  1.00  0.00    -0.265 OA
BRANCH   4   6
HETATM    6  C   UNL     1     -24.599  -2.974 -11.685  1.00  0.00     0.111 C 
BRANCH   6   7
HETATM    7  C   UNL     1     -25.413  -3.660 -12.771  1.00  0.00     0.010 C 
BRANCH   7   8
HETATM    8  C   UNL     1     -26.064  -2.669 -13.726  1.00  0.00     0.000 C 
BRANCH   8   9
HETATM    9  C   UNL     1     -25.917  -3.165 -15.160  1.00  0.00     0.000 C 
BRANCH   9  10
HETATM   10  C   UNL     1     -27.256  -3.653 -15.687  1.00  0.00     0.000 C 
BRANCH  10  11
HETATM   11  C   UNL     1     -27.934  -2.558 -16.493  1.00  0.00     0.000 C 
BRANCH  11  12
HETATM   12  C   UNL     1     -28.986  -3.165 -17.403  1.00  0.00     0.000 C 
BRANCH  12  13
HETATM   13  C   UNL     1     -30.190  -3.594 -16.586  1.00  0.00     0.000 C 
BRANCH  13  14
HETATM   14  C   UNL     1     -31.239  -4.202 -17.497  1.00  0.00     0.000 C 
BRANCH  14  15
HETATM   15  C   UNL     1     -32.282  -4.920 -16.663  1.00  0.00     0.000 C 
BRANCH  15  16
HETATM   16  C   UNL     1     -33.264  -3.917 -16.093  1.00  0.00     0.000 C 
BRANCH  16  17
HETATM   17  C   UNL     1     -34.085  -4.575 -15.000  1.00  0.00     0.000 C 
BRANCH  17  18
HETATM   18  C   UNL     1     -33.951  -3.770 -13.726  1.00  0.00     0.000 C 
BRANCH  18  19
HETATM   19  C   UNL     1     -32.862  -4.350 -12.836  1.00  0.00     0.004 C 
BRANCH  19  20
HETATM   20  C   UNL     1     -33.103  -4.000 -11.365  1.00  0.00    -0.023 C 
HETATM   21  C   UNL     1     -33.538  -2.543 -11.250  1.00  0.00     0.009 C 
HETATM   22  C   UNL     1     -34.169  -4.906 -10.749  1.00  0.00     0.009 C 
ENDBRANCH  19  20
ENDBRANCH  18  19
ENDBRANCH  17  18
ENDBRANCH  16  17
ENDBRANCH  15  16
ENDBRANCH  14  15
ENDBRANCH  13  14
ENDBRANCH  12  13
ENDBRANCH  11  12
ENDBRANCH  10  11
ENDBRANCH   9  10
ENDBRANCH   8   9
ENDBRANCH   7   8
ENDBRANCH   6   7
ENDBRANCH   4   6
ENDBRANCH   3   4
ENDBRANCH   2   3
ENDBRANCH   1   2
BRANCH   1  23
HETATM   23  C   UNL     1     -21.004  -3.678  -7.704  1.00  0.00     0.195 C 
BRANCH  23  24
HETATM   24  O   UNL     1     -19.696  -4.289  -7.701  1.00  0.00    -0.320 OA
BRANCH  24  25
HETATM   25  C   UNL     1     -19.369  -4.946  -6.549  1.00  0.00     0.258 C 
HETATM   26  O   UNL     1     -19.504  -4.495  -5.418  1.00  0.00    -0.265 OA
BRANCH  25  27
HETATM   27  C   UNL     1     -18.923  -6.362  -6.840  1.00  0.00     0.111 C 
BRANCH  27  28
HETATM   28  C   UNL     1     -19.612  -7.343  -5.897  1.00  0.00     0.010 C 
BRANCH  28  29
HETATM   29  C   UNL     1     -18.881  -8.679  -5.822  1.00  0.00     0.000 C 
BRANCH  29  30
HETATM   30  C   UNL     1     -19.508  -9.568  -4.757  1.00  0.00     0.000 C 
BRANCH  30  31
HETATM   31  C   UNL     1     -19.218  -9.012  -3.374  1.00  0.00     0.000 C 
BRANCH  31  32
HETATM   32  C   UNL     1     -18.303  -9.959  -2.617  1.00  0.00     0.000 C 
BRANCH  32  33
HETATM   33  C   UNL     1     -16.857  -9.565  -2.846  1.00  0.00     0.000 C 
BRANCH  33  34
HETATM   34  C   UNL     1     -15.936 -10.666  -2.356  1.00  0.00     0.000 C 
BRANCH  34  35
HETATM   35  C   UNL     1     -15.650 -11.641  -3.481  1.00  0.00     0.000 C 
BRANCH  35  36
HETATM   36  C   UNL     1     -15.417 -10.880  -4.772  1.00  0.00     0.000 C 
BRANCH  36  37
HETATM   37  C   UNL     1     -14.674 -11.757  -5.759  1.00  0.00     0.000 C 
BRANCH  37  38
HETATM   38  C   UNL     1     -15.622 -12.202  -6.857  1.00  0.00     0.000 C 
BRANCH  38  39
HETATM   39  C   UNL     1     -17.034 -11.807  -6.485  1.00  0.00     0.000 C 
BRANCH  39  40
HETATM   40  C   UNL     1     -18.019 -12.257  -7.555  1.00  0.00     0.004 C 
BRANCH  40  41
HETATM   41  C   UNL     1     -19.422 -12.443  -6.972  1.00  0.00    -0.023 C 
HETATM   42  C   UNL     1     -20.302 -13.275  -7.906  1.00  0.00     0.009 C 
HETATM   43  C   UNL     1     -19.323 -13.130  -5.613  1.00  0.00     0.009 C 
ENDBRANCH  40  41
ENDBRANCH  39  40
ENDBRANCH  38  39
ENDBRANCH  37  38
ENDBRANCH  36  37
ENDBRANCH  35  36
ENDBRANCH  34  35
ENDBRANCH  33  34
ENDBRANCH  32  33
ENDBRANCH  31  32
ENDBRANCH  30  31
ENDBRANCH  29  30
ENDBRANCH  28  29
ENDBRANCH  27  28
ENDBRANCH  25  27
ENDBRANCH  24  25
ENDBRANCH  23  24
ENDBRANCH   1  23
BRANCH   1  44
HETATM   44  C   UNL     1     -22.452  -5.716  -7.382  1.00  0.00     0.195 C 
BRANCH  44  45
HETATM   45  O   UNL     1     -22.524  -5.276  -6.006  1.00  0.00    -0.320 OA
BRANCH  45  46
HETATM   46  C   UNL     1     -23.321  -6.009  -5.184  1.00  0.00     0.258 C 
HETATM   47  O   UNL     1     -24.564  -6.004  -5.186  1.00  0.00    -0.265 OA
BRANCH  46  48
HETATM   48  C   UNL     1     -22.497  -6.941  -4.315  1.00  0.00     0.111 C 
BRANCH  48  49
HETATM   49  C   UNL     1     -21.549  -6.152  -3.431  1.00  0.00     0.010 C 
BRANCH  49  50
HETATM   50  C   UNL     1     -22.034  -6.079  -1.987  1.00  0.00     0.000 C 
BRANCH  50  51
HETATM   51  C   UNL     1     -22.314  -7.480  -1.464  1.00  0.00     0.000 C 
BRANCH  51  52
HETATM   52  C   UNL     1     -21.132  -7.986  -0.659  1.00  0.00     0.000 C 
BRANCH  52  53
HETATM   53  C   UNL     1     -21.523  -8.158   0.799  1.00  0.00     0.000 C 
BRANCH  53  54
HETATM   54  C   UNL     1     -20.996  -9.482   1.320  1.00  0.00     0.000 C 
BRANCH  54  55
HETATM   55  C   UNL     1     -20.979 -10.507   0.202  1.00  0.00     0.000 C 
BRANCH  55  56
HETATM   56  C   UNL     1     -22.108 -11.500   0.397  1.00  0.00     0.000 C 
BRANCH  56  57
HETATM   57  C   UNL     1     -23.391 -10.934  -0.177  1.00  0.00     0.000 C 
BRANCH  57  58
HETATM   58  C   UNL     1     -23.677 -11.571  -1.521  1.00  0.00     0.000 C 
BRANCH  58  59
HETATM   59  C   UNL     1     -22.810 -10.923  -2.585  1.00  0.00     0.000 C 
BRANCH  59  60
HETATM   60  C   UNL     1     -22.174 -12.003  -3.432  1.00  0.00     0.000 C 
BRANCH  60  61
HETATM   61  C   UNL     1     -22.551 -13.383  -2.914  1.00  0.00     0.004 C 
BRANCH  61  62
HETATM   62  C   UNL     1     -21.320 -14.138  -2.402  1.00  0.00    -0.023 C 
HETATM   63  C   UNL     1     -20.131 -13.194  -2.217  1.00  0.00     0.009 C 
HETATM   64  C   UNL     1     -21.651 -14.815  -1.077  1.00  0.00     0.009 C 
ENDBRANCH  61  62
ENDBRANCH  60  61
ENDBRANCH  59  60
ENDBRANCH  58  59
ENDBRANCH  57  58
ENDBRANCH  56  57
ENDBRANCH  55  56
ENDBRANCH  54  55
ENDBRANCH  53  54
ENDBRANCH  52  53
ENDBRANCH  51  52
ENDBRANCH  50  51
ENDBRANCH  49  50
ENDBRANCH  48  49
ENDBRANCH  46  48
ENDBRANCH  45  46
ENDBRANCH  44  45
ENDBRANCH   1  44
BRANCH   1  65
HETATM   65  C   UNL     1     -21.487  -5.189  -9.655  1.00  0.00     0.195 C 
BRANCH  65  66
HETATM   66  O   UNL     1     -20.645  -4.279 -10.398  1.00  0.00    -0.320 OA
BRANCH  66  67
HETATM   67  C   UNL     1     -21.241  -3.647 -11.449  1.00  0.00     0.258 C 
HETATM   68  O   UNL     1     -21.258  -2.432 -11.613  1.00  0.00    -0.265 OA
BRANCH  67  69
HETATM   69  C   UNL     1     -21.845  -4.659 -12.403  1.00  0.00     0.111 C 
BRANCH  69  70
HETATM   70  C   UNL     1     -21.763  -4.129 -13.834  1.00  0.00     0.010 C 
BRANCH  70  71
HETATM   71  C   UNL     1     -22.713  -4.849 -14.781  1.00  0.00     0.000 C 
BRANCH  71  72
HETATM   72  C   UNL     1     -23.393  -6.009 -14.060  1.00  0.00     0.000 C 
BRANCH  72  73
HETATM   73  C   UNL     1     -24.471  -6.616 -14.944  1.00  0.00     0.000 C 
BRANCH  73  74
HETATM   74  C   UNL     1     -23.840  -7.318 -16.133  1.00  0.00     0.000 C 
BRANCH  74  75
HETATM   75  C   UNL     1     -24.652  -7.044 -17.385  1.00  0.00     0.000 C 
BRANCH  75  76
HETATM   76  C   UNL     1     -23.768  -7.167 -18.611  1.00  0.00     0.000 C 
BRANCH  76  77
HETATM   77  C   UNL     1     -24.506  -6.653 -19.831  1.00  0.00     0.000 C 
BRANCH  77  78
HETATM   78  C   UNL     1     -25.078  -7.820 -20.611  1.00  0.00     0.000 C 
BRANCH  78  79
HETATM   79  C   UNL     1     -26.573  -7.650 -20.769  1.00  0.00     0.000 C 
BRANCH  79  80
HETATM   80  C   UNL     1     -26.999  -6.315 -20.187  1.00  0.00     0.000 C 
BRANCH  80  81
HETATM   81  C   UNL     1     -28.152  -6.533 -19.233  1.00  0.00     0.000 C 
BRANCH  81  82
HETATM   82  C   UNL     1     -27.717  -6.276 -17.797  1.00  0.00     0.004 C 
BRANCH  82  83
HETATM   83  C   UNL     1     -28.783  -6.748 -16.804  1.00  0.00    -0.023 C 
HETATM   84  C   UNL     1     -29.745  -7.742 -17.455  1.00  0.00     0.009 C 
HETATM   85  C   UNL     1     -28.107  -7.400 -15.602  1.00  0.00     0.009 C 
ENDBRANCH  82  83
ENDBRANCH  81  82
ENDBRANCH  80  81
ENDBRANCH  79  80
ENDBRANCH  78  79
ENDBRANCH  77  78
ENDBRANCH  76  77
ENDBRANCH  75  76
ENDBRANCH  74  75
ENDBRANCH  73  74
ENDBRANCH  72  73
ENDBRANCH  71  72
ENDBRANCH  70  71
ENDBRANCH  69  70
ENDBRANCH  67  69
ENDBRANCH  66  67
ENDBRANCH  65  66
ENDBRANCH   1  65
TORSDOF 72
BEGIN_RES ARG D 557
REMARK  4 active torsions:
REMARK  status: ('A' for Active; 'I' for Inactive)
REMARK    1  A    between atoms: CA   and  CB  
REMARK    2  A    between atoms: CB   and  CG  
REMARK    3  A    between atoms: CG   and  CD  
REMARK    4  A    between atoms: CD   and  NE  
REMARK       I    between atoms: NE   and  CZ  
REMARK       I    between atoms: CZ   and  NH1 
REMARK       I    between atoms: CZ   and  NH2 
ROOT
ATOM      1  CA  ARG D 557     -26.217   2.705 -17.014  1.00 35.49     0.159 C 
ENDROOT
BRANCH   1   2
ATOM      2  CB  ARG D 557     -26.789   1.319 -17.183  1.00 35.49     0.034 C 
BRANCH   2   3
ATOM      3  CG  ARG D 557     -25.862   0.195 -17.003  1.00 35.49     0.027 C 
BRANCH   3   4
ATOM      4  CD  ARG D 557     -24.514   0.638 -16.578  1.00 35.49     0.116 C 
BRANCH   4   5
ATOM      5  NE  ARG D 557     -24.161   0.130 -15.279  1.00 35.49    -0.212 N 
ATOM      6  CZ  ARG D 557     -23.258  -0.794 -15.035  1.00 35.49     0.666 C 
ATOM      7  NH1 ARG D 557     -22.569  -1.382 -15.994  1.00 35.49    -0.235 N 
ATOM      8  NH2 ARG D 557     -23.052  -1.117 -13.791  1.00 35.49    -0.235 N 
ATOM      9  HH  ARG D 557     -22.686  -1.183 -16.819  1.00 35.49     0.174 HD
ATOM     10  HH  ARG D 557     -21.991  -1.976 -15.774  1.00 35.49     0.174 HD
ATOM     11  HH  ARG D 557     -23.507  -0.715 -13.192  1.00 35.49     0.174 HD
ATOM     12  HH  ARG D 557     -22.475  -1.706 -13.594  1.00 35.49     0.174 HD
ATOM     13  HE  ARG D 557     -24.608   0.403 -14.609  1.00 35.49     0.178 HD
ENDBRANCH   4   5
ENDBRANCH   3   4
ENDBRANCH   2   3
ENDBRANCH   1   2
END_RES ARG D 557
BEGIN_RES GLU D 570
REMARK  3 active torsions:
REMARK  status: ('A' for Active; 'I' for Inactive)
REMARK    5  A    between atoms: CA   and  CB  
REMARK    6  A    between atoms: CB   and  CG  
REMARK    7  A    between atoms: CG   and  CD  
ROOT
ATOM     14  CA  GLU D 570     -18.033  -6.348 -13.375  1.00 32.92     0.160 C 
ENDROOT
BRANCH  14  15
ATOM     15  CB  GLU D 570     -19.500  -6.345 -13.794  1.00 32.92     0.043 C 
BRANCH  15  16
ATOM     16  CG  GLU D 570     -20.099  -7.643 -14.199  1.00 32.92     0.100 C 
BRANCH  16  17
ATOM     17  CD  GLU D 570     -20.422  -7.709 -15.673  1.00 32.92     0.185 C 
ATOM     18  OE1 GLU D 570     -20.624  -8.820 -16.200  1.00 32.92    -0.647 OA
ATOM     19  OE2 GLU D 570     -20.457  -6.639 -16.312  1.00 32.92    -0.647 OA
ENDBRANCH  16  17
ENDBRANCH  15  16
ENDBRANCH  14  15
END_RES GLU D 570
ENDMDL
MODEL 9
REMARK VINA RESULT:      -4.8      3.249     14.393
REMARK WARNING: 32 MAX_TORS EXCEEDED!!!
REMARK  72 active torsions:
REMARK  status: ('A' for Active; 'I' for Inactive)
REMARK    1  A    between atoms: C_2  and  C_4 
REMARK    2  A    between atoms: C_4  and  C_5 
REMARK    3  A    between atoms: C_5  and  C_6 
REMARK    4  A    between atoms: C_6  and  C_7 
REMARK    5  A    between atoms: C_7  and  C_8 
REMARK    6  A    between atoms: C_8  and  C_9 
REMARK    7  A    between atoms: C_9  and  C_10 
REMARK    8  A    between atoms: C_10  and  C_11 
REMARK    9  A    between atoms: C_11  and  C_12 
REMARK   10  A    between atoms: C_12  and  C_13 
REMARK   11  A    between atoms: C_13  and  C_14 
REMARK   12  A    between atoms: C_14  and  C_15 
REMARK   13  A    between atoms: C_15  and  C_16 
REMARK   14  A    between atoms: C_16  and  C_17 
REMARK   15  A    between atoms: C_17  and  C_18 
REMARK   16  A    between atoms: C_18  and  O_20 
REMARK   17  A    between atoms: O_20  and  C_21 
REMARK   18  A    between atoms: C_21  and  C_22 
REMARK   19  A    between atoms: C_22  and  C_23 
REMARK   20  A    between atoms: C_22  and  C_44 
REMARK   21  A    between atoms: C_22  and  C_65 
REMARK   22  A    between atoms: C_23  and  O_24 
REMARK   23  A    between atoms: O_24  and  C_25 
REMARK   24  A    between atoms: C_25  and  C_27 
REMARK   25  A    between atoms: C_27  and  C_28 
REMARK   26  A    between atoms: C_28  and  C_29 
REMARK   27  A    between atoms: C_29  and  C_30 
REMARK   28  A    between atoms: C_30  and  C_31 
REMARK   29  A    between atoms: C_31  and  C_32 
REMARK   30  A    between atoms: C_32  and  C_33 
REMARK   31  A    between atoms: C_33  and  C_34 
REMARK   32  A    between atoms: C_34  and  C_35 
REMARK   33  A    between atoms: C_35  and  C_36 
REMARK   34  A    between atoms: C_36  and  C_37 
REMARK   35  A    between atoms: C_37  and  C_38 
REMARK   36  A    between atoms: C_38  and  C_39 
REMARK   37  A    between atoms: C_39  and  C_40 
REMARK   38  A    between atoms: C_40  and  C_41 
REMARK   39  A    between atoms: C_44  and  O_45 
REMARK   40  A    between atoms: O_45  and  C_46 
REMARK   41  A    between atoms: C_46  and  C_48 
REMARK   42  A    between atoms: C_48  and  C_49 
REMARK   43  A    between atoms: C_49  and  C_50 
REMARK   44  A    between atoms: C_50  and  C_51 
REMARK   45  A    between atoms: C_51  and  C_52 
REMARK   46  A    between atoms: C_52  and  C_53 
REMARK   47  A    between atoms: C_53  and  C_54 
REMARK   48  A    between atoms: C_54  and  C_55 
REMARK   49  A    between atoms: C_55  and  C_56 
REMARK   50  A    between atoms: C_56  and  C_57 
REMARK   51  A    between atoms: C_57  and  C_58 
REMARK   52  A    between atoms: C_58  and  C_59 
REMARK   53  A    between atoms: C_59  and  C_60 
REMARK   54  A    between atoms: C_60  and  C_61 
REMARK   55  A    between atoms: C_61  and  C_62 
REMARK   56  A    between atoms: C_65  and  O_66 
REMARK   57  A    between atoms: O_66  and  C_67 
REMARK   58  A    between atoms: C_67  and  C_69 
REMARK   59  A    between atoms: C_69  and  C_70 
REMARK   60  A    between atoms: C_70  and  C_71 
REMARK   61  A    between atoms: C_71  and  C_72 
REMARK   62  A    between atoms: C_72  and  C_73 
REMARK   63  A    between atoms: C_73  and  C_74 
REMARK   64  A    between atoms: C_74  and  C_75 
REMARK   65  A    between atoms: C_75  and  C_76 
REMARK   66  A    between atoms: C_76  and  C_77 
REMARK   67  A    between atoms: C_77  and  C_78 
REMARK   68  A    between atoms: C_78  and  C_79 
REMARK   69  A    between atoms: C_79  and  C_80 
REMARK   70  A    between atoms: C_80  and  C_81 
REMARK   71  A    between atoms: C_81  and  C_82 
REMARK   72  A    between atoms: C_82  and  C_83 
ROOT
HETATM    1  C   UNL     1     -22.158  -4.366  -8.185  1.00  0.00     0.048 C 
ENDROOT
BRANCH   1   2
HETATM    2  C   UNL     1     -23.304  -3.488  -8.742  1.00  0.00     0.195 C 
BRANCH   2   3
HETATM    3  O   UNL     1     -23.860  -4.048  -9.955  1.00  0.00    -0.320 OA
BRANCH   3   4
HETATM    4  C   UNL     1     -24.923  -3.380 -10.494  1.00  0.00     0.258 C 
HETATM    5  O   UNL     1     -25.970  -3.115  -9.910  1.00  0.00    -0.265 OA
BRANCH   4   6
HETATM    6  C   UNL     1     -24.646  -2.966 -11.924  1.00  0.00     0.111 C 
BRANCH   6   7
HETATM    7  C   UNL     1     -25.784  -3.437 -12.814  1.00  0.00     0.010 C 
BRANCH   7   8
HETATM    8  C   UNL     1     -25.951  -2.572 -14.056  1.00  0.00     0.000 C 
BRANCH   8   9
HETATM    9  C   UNL     1     -26.483  -3.418 -15.206  1.00  0.00     0.000 C 
BRANCH   9  10
HETATM   10  C   UNL     1     -27.400  -2.588 -16.088  1.00  0.00     0.000 C 
BRANCH  10  11
HETATM   11  C   UNL     1     -28.321  -3.494 -16.887  1.00  0.00     0.000 C 
BRANCH  11  12
HETATM   12  C   UNL     1     -29.599  -2.753 -17.235  1.00  0.00     0.000 C 
BRANCH  12  13
HETATM   13  C   UNL     1     -30.596  -3.708 -17.862  1.00  0.00     0.000 C 
BRANCH  13  14
HETATM   14  C   UNL     1     -31.361  -4.440 -16.776  1.00  0.00     0.000 C 
BRANCH  14  15
HETATM   15  C   UNL     1     -32.824  -4.043 -16.828  1.00  0.00     0.000 C 
BRANCH  15  16
HETATM   16  C   UNL     1     -33.582  -4.730 -15.711  1.00  0.00     0.000 C 
BRANCH  16  17
HETATM   17  C   UNL     1     -34.049  -3.697 -14.703  1.00  0.00     0.000 C 
BRANCH  17  18
HETATM   18  C   UNL     1     -34.221  -4.361 -13.355  1.00  0.00     0.000 C 
BRANCH  18  19
HETATM   19  C   UNL     1     -33.063  -4.014 -12.432  1.00  0.00     0.004 C 
BRANCH  19  20
HETATM   20  C   UNL     1     -33.551  -3.753 -11.004  1.00  0.00    -0.023 C 
HETATM   21  C   UNL     1     -33.514  -2.255 -10.716  1.00  0.00     0.009 C 
HETATM   22  C   UNL     1     -34.970  -4.282 -10.798  1.00  0.00     0.009 C 
ENDBRANCH  19  20
ENDBRANCH  18  19
ENDBRANCH  17  18
ENDBRANCH  16  17
ENDBRANCH  15  16
ENDBRANCH  14  15
ENDBRANCH  13  14
ENDBRANCH  12  13
ENDBRANCH  11  12
ENDBRANCH  10  11
ENDBRANCH   9  10
ENDBRANCH   8   9
ENDBRANCH   7   8
ENDBRANCH   6   7
ENDBRANCH   4   6
ENDBRANCH   3   4
ENDBRANCH   2   3
ENDBRANCH   1   2
BRANCH   1  23
HETATM   23  C   UNL     1     -21.210  -3.493  -7.334  1.00  0.00     0.195 C 
BRANCH  23  24
HETATM   24  O   UNL     1     -19.883  -4.053  -7.228  1.00  0.00    -0.320 OA
BRANCH  24  25
HETATM   25  C   UNL     1     -19.677  -4.846  -6.135  1.00  0.00     0.258 C 
HETATM   26  O   UNL     1     -19.845  -4.502  -4.971  1.00  0.00    -0.265 OA
BRANCH  25  27
HETATM   27  C   UNL     1     -19.326  -6.258  -6.549  1.00  0.00     0.111 C 
BRANCH  27  28
HETATM   28  C   UNL     1     -20.010  -7.270  -5.634  1.00  0.00     0.010 C 
BRANCH  28  29
HETATM   29  C   UNL     1     -19.104  -8.450  -5.301  1.00  0.00     0.000 C 
BRANCH  29  30
HETATM   30  C   UNL     1     -19.870  -9.500  -4.509  1.00  0.00     0.000 C 
BRANCH  30  31
HETATM   31  C   UNL     1     -21.061  -9.996  -5.311  1.00  0.00     0.000 C 
BRANCH  31  32
HETATM   32  C   UNL     1     -21.519 -11.342  -4.778  1.00  0.00     0.000 C 
BRANCH  32  33
HETATM   33  C   UNL     1     -20.697 -11.716  -3.561  1.00  0.00     0.000 C 
BRANCH  33  34
HETATM   34  C   UNL     1     -19.990 -13.037  -3.799  1.00  0.00     0.000 C 
BRANCH  34  35
HETATM   35  C   UNL     1     -18.488 -12.828  -3.799  1.00  0.00     0.000 C 
BRANCH  35  36
HETATM   36  C   UNL     1     -17.871 -13.543  -4.986  1.00  0.00     0.000 C 
BRANCH  36  37
HETATM   37  C   UNL     1     -18.518 -13.063  -6.269  1.00  0.00     0.000 C 
BRANCH  37  38
HETATM   38  C   UNL     1     -17.934 -11.717  -6.660  1.00  0.00     0.000 C 
BRANCH  38  39
HETATM   39  C   UNL     1     -16.460 -11.700  -6.326  1.00  0.00     0.000 C 
BRANCH  39  40
HETATM   40  C   UNL     1     -16.022 -10.308  -5.891  1.00  0.00     0.004 C 
BRANCH  40  41
HETATM   41  C   UNL     1     -15.347 -10.344  -4.517  1.00  0.00    -0.023 C 
HETATM   42  C   UNL     1     -16.286  -9.829  -3.426  1.00  0.00     0.009 C 
HETATM   43  C   UNL     1     -14.919 -11.772  -4.195  1.00  0.00     0.009 C 
ENDBRANCH  40  41
ENDBRANCH  39  40
ENDBRANCH  38  39
ENDBRANCH  37  38
ENDBRANCH  36  37
ENDBRANCH  35  36
ENDBRANCH  34  35
ENDBRANCH  33  34
ENDBRANCH  32  33
ENDBRANCH  31  32
ENDBRANCH  30  31
ENDBRANCH  29  30
ENDBRANCH  28  29
ENDBRANCH  27  28
ENDBRANCH  25  27
ENDBRANCH  24  25
ENDBRANCH  23  24
ENDBRANCH   1  23
BRANCH   1  44
HETATM   44  C   UNL     1     -22.743  -5.494  -7.299  1.00  0.00     0.195 C 
BRANCH  44  45
HETATM   45  O   UNL     1     -22.834  -5.122  -5.904  1.00  0.00    -0.320 OA
BRANCH  45  46
HETATM   46  C   UNL     1     -23.471  -6.004  -5.090  1.00  0.00     0.258 C 
HETATM   47  O   UNL     1     -24.701  -6.175  -5.026  1.00  0.00    -0.265 OA
BRANCH  46  48
HETATM   48  C   UNL     1     -22.475  -6.858  -4.327  1.00  0.00     0.111 C 
BRANCH  48  49
HETATM   49  C   UNL     1     -22.223  -6.282  -2.945  1.00  0.00     0.010 C 
BRANCH  49  50
HETATM   50  C   UNL     1     -21.684  -7.327  -1.975  1.00  0.00     0.000 C 
BRANCH  50  51
HETATM   51  C   UNL     1     -22.332  -7.148  -0.610  1.00  0.00     0.000 C 
BRANCH  51  52
HETATM   52  C   UNL     1     -22.667  -8.501  -0.008  1.00  0.00     0.000 C 
BRANCH  52  53
HETATM   53  C   UNL     1     -22.130  -9.616  -0.889  1.00  0.00     0.000 C 
BRANCH  53  54
HETATM   54  C   UNL     1     -23.277 -10.481  -1.379  1.00  0.00     0.000 C 
BRANCH  54  55
HETATM   55  C   UNL     1     -23.957 -11.151  -0.201  1.00  0.00     0.000 C 
BRANCH  55  56
HETATM   56  C   UNL     1     -23.693 -12.644  -0.236  1.00  0.00     0.000 C 
BRANCH  56  57
HETATM   57  C   UNL     1     -23.186 -13.104   1.117  1.00  0.00     0.000 C 
BRANCH  57  58
HETATM   58  C   UNL     1     -21.695 -12.856   1.218  1.00  0.00     0.000 C 
BRANCH  58  59
HETATM   59  C   UNL     1     -21.034 -13.187  -0.107  1.00  0.00     0.000 C 
BRANCH  59  60
HETATM   60  C   UNL     1     -19.597 -12.714  -0.077  1.00  0.00     0.000 C 
BRANCH  60  61
HETATM   61  C   UNL     1     -18.642 -13.897  -0.084  1.00  0.00     0.004 C 
BRANCH  61  62
HETATM   62  C   UNL     1     -17.183 -13.432  -0.113  1.00  0.00    -0.023 C 
HETATM   63  C   UNL     1     -16.379 -14.197  -1.165  1.00  0.00     0.009 C 
HETATM   64  C   UNL     1     -17.129 -11.938  -0.412  1.00  0.00     0.009 C 
ENDBRANCH  61  62
ENDBRANCH  60  61
ENDBRANCH  59  60
ENDBRANCH  58  59
ENDBRANCH  57  58
ENDBRANCH  56  57
ENDBRANCH  55  56
ENDBRANCH  54  55
ENDBRANCH  53  54
ENDBRANCH  52  53
ENDBRANCH  51  52
ENDBRANCH  50  51
ENDBRANCH  49  50
ENDBRANCH  48  49
ENDBRANCH  46  48
ENDBRANCH  45  46
ENDBRANCH  44  45
ENDBRANCH   1  44
BRANCH   1  65
HETATM   65  C   UNL     1     -21.343  -5.001  -9.341  1.00  0.00     0.195 C 
BRANCH  65  66
HETATM   66  O   UNL     1     -20.534  -4.050 -10.071  1.00  0.00    -0.320 OA
BRANCH  66  67
HETATM   67  C   UNL     1     -21.018  -3.675 -11.290  1.00  0.00     0.258 C 
HETATM   68  O   UNL     1     -21.193  -2.514 -11.642  1.00  0.00    -0.265 OA
BRANCH  67  69
HETATM   69  C   UNL     1     -21.272  -4.892 -12.157  1.00  0.00     0.111 C 
BRANCH  69  70
HETATM   70  C   UNL     1     -22.335  -4.563 -13.205  1.00  0.00     0.010 C 
BRANCH  70  71
HETATM   71  C   UNL     1     -23.180  -5.773 -13.581  1.00  0.00     0.000 C 
BRANCH  71  72
HETATM   72  C   UNL     1     -23.691  -5.632 -15.011  1.00  0.00     0.000 C 
BRANCH  72  73
HETATM   73  C   UNL     1     -24.740  -6.694 -15.300  1.00  0.00     0.000 C 
BRANCH  73  74
HETATM   74  C   UNL     1     -24.288  -7.578 -16.449  1.00  0.00     0.000 C 
BRANCH  74  75
HETATM   75  C   UNL     1     -23.840  -6.719 -17.616  1.00  0.00     0.000 C 
BRANCH  75  76
HETATM   76  C   UNL     1     -23.835  -7.541 -18.891  1.00  0.00     0.000 C 
BRANCH  76  77
HETATM   77  C   UNL     1     -24.559  -6.789 -19.991  1.00  0.00     0.000 C 
BRANCH  77  78
HETATM   78  C   UNL     1     -25.316  -7.769 -20.865  1.00  0.00     0.000 C 
BRANCH  78  79
HETATM   79  C   UNL     1     -26.805  -7.601 -20.656  1.00  0.00     0.000 C 
BRANCH  79  80
HETATM   80  C   UNL     1     -27.091  -6.211 -20.121  1.00  0.00     0.000 C 
BRANCH  80  81
HETATM   81  C   UNL     1     -28.170  -6.297 -19.065  1.00  0.00     0.000 C 
BRANCH  81  82
HETATM   82  C   UNL     1     -27.557  -6.342 -17.673  1.00  0.00     0.004 C 
BRANCH  82  83
HETATM   83  C   UNL     1     -28.376  -7.233 -16.735  1.00  0.00    -0.023 C 
HETATM   84  C   UNL     1     -28.561  -6.575 -15.368  1.00  0.00     0.009 C 
HETATM   85  C   UNL     1     -29.740  -7.512 -17.358  1.00  0.00     0.009 C 
ENDBRANCH  82  83
ENDBRANCH  81  82
ENDBRANCH  80  81
ENDBRANCH  79  80
ENDBRANCH  78  79
ENDBRANCH  77  78
ENDBRANCH  76  77
ENDBRANCH  75  76
ENDBRANCH  74  75
ENDBRANCH  73  74
ENDBRANCH  72  73
ENDBRANCH  71  72
ENDBRANCH  70  71
ENDBRANCH  69  70
ENDBRANCH  67  69
ENDBRANCH  66  67
ENDBRANCH  65  66
ENDBRANCH   1  65
TORSDOF 72
BEGIN_RES ARG D 557
REMARK  4 active torsions:
REMARK  status: ('A' for Active; 'I' for Inactive)
REMARK    1  A    between atoms: CA   and  CB  
REMARK    2  A    between atoms: CB   and  CG  
REMARK    3  A    between atoms: CG   and  CD  
REMARK    4  A    between atoms: CD   and  NE  
REMARK       I    between atoms: NE   and  CZ  
REMARK       I    between atoms: CZ   and  NH1 
REMARK       I    between atoms: CZ   and  NH2 
ROOT
ATOM      1  CA  ARG D 557     -26.217   2.705 -17.014  1.00 35.49     0.159 C 
ENDROOT
BRANCH   1   2
ATOM      2  CB  ARG D 557     -26.789   1.319 -17.183  1.00 35.49     0.034 C 
BRANCH   2   3
ATOM      3  CG  ARG D 557     -26.041   0.216 -16.567  1.00 35.49     0.027 C 
BRANCH   3   4
ATOM      4  CD  ARG D 557     -24.672   0.616 -16.168  1.00 35.49     0.116 C 
BRANCH   4   5
ATOM      5  NE  ARG D 557     -23.729  -0.462 -16.311  1.00 35.49    -0.212 N 
ATOM      6  CZ  ARG D 557     -23.181  -1.139 -15.327  1.00 35.49     0.666 C 
ATOM      7  NH1 ARG D 557     -23.439  -0.880 -14.058  1.00 35.49    -0.235 N 
ATOM      8  NH2 ARG D 557     -22.362  -2.099 -15.643  1.00 35.49    -0.235 N 
ATOM      9  HH  ARG D 557     -23.976  -0.253 -13.828  1.00 35.49     0.174 HD
ATOM     10  HH  ARG D 557     -23.054  -1.356 -13.459  1.00 35.49     0.174 HD
ATOM     11  HH  ARG D 557     -22.220  -2.249 -16.470  1.00 35.49     0.174 HD
ATOM     12  HH  ARG D 557     -21.992  -2.561 -15.035  1.00 35.49     0.174 HD
ATOM     13  HE  ARG D 557     -23.451  -0.648 -17.093  1.00 35.49     0.178 HD
ENDBRANCH   4   5
ENDBRANCH   3   4
ENDBRANCH   2   3
ENDBRANCH   1   2
END_RES ARG D 557
BEGIN_RES GLU D 570
REMARK  3 active torsions:
REMARK  status: ('A' for Active; 'I' for Inactive)
REMARK    5  A    between atoms: CA   and  CB  
REMARK    6  A    between atoms: CB   and  CG  
REMARK    7  A    between atoms: CG   and  CD  
ROOT
ATOM     14  CA  GLU D 570     -18.033  -6.348 -13.375  1.00 32.92     0.160 C 
ENDROOT
BRANCH  14  15
ATOM     15  CB  GLU D 570     -19.500  -6.345 -13.794  1.00 32.92     0.043 C 
BRANCH  15  16
ATOM     16  CG  GLU D 570     -20.085  -7.633 -14.248  1.00 32.92     0.100 C 
BRANCH  16  17
ATOM     17  CD  GLU D 570     -20.591  -7.581 -15.671  1.00 32.92     0.185 C 
ATOM     18  OE1 GLU D 570     -20.571  -6.495 -16.281  1.00 32.92    -0.647 OA
ATOM     19  OE2 GLU D 570     -21.029  -8.635 -16.174  1.00 32.92    -0.647 OA
ENDBRANCH  16  17
ENDBRANCH  15  16
ENDBRANCH  14  15
END_RES GLU D 570
ENDMDL
