MODEL 1
REMARK VINA RESULT:      -6.9      0.000      0.000
REMARK  14 active torsions:
REMARK  status: ('A' for Active; 'I' for Inactive)
REMARK    1  A    between atoms: C_2  and  C_3 
REMARK    2  A    between atoms: C_3  and  C_4 
REMARK    3  A    between atoms: C_4  and  C_5 
REMARK    4  A    between atoms: C_5  and  C_6 
REMARK    5  A    between atoms: C_6  and  C_7 
REMARK    6  A    between atoms: C_7  and  C_8 
REMARK    7  A    between atoms: C_8  and  C_9 
REMARK    8  A    between atoms: C_9  and  C_10 
REMARK    9  A    between atoms: C_10  and  C_11 
REMARK   10  A    between atoms: C_11  and  C_12 
REMARK   11  A    between atoms: C_12  and  C_13 
REMARK   12  A    between atoms: C_13  and  C_14 
REMARK   13  A    between atoms: C_14  and  O_16 
REMARK   14  A    between atoms: O_16  and  C_17 
ROOT
HETATM    1  C   UNL     1     -21.194  -3.655  -7.474  1.00  0.00     0.000 C 
ENDROOT
BRANCH   1   2
HETATM    2  C   UNL     1     -20.478  -4.644  -6.565  1.00  0.00     0.000 C 
BRANCH   2   3
HETATM    3  C   UNL     1     -21.484  -5.510  -5.816  1.00  0.00     0.000 C 
BRANCH   3   4
HETATM    4  C   UNL     1     -20.949  -5.878  -4.438  1.00  0.00     0.000 C 
BRANCH   4   5
HETATM    5  C   UNL     1     -21.969  -6.710  -3.670  1.00  0.00     0.000 C 
BRANCH   5   6
HETATM    6  C   UNL     1     -21.386  -7.167  -2.338  1.00  0.00     0.000 C 
BRANCH   6   7
HETATM    7  C   UNL     1     -22.263  -6.703  -1.180  1.00  0.00     0.000 C 
BRANCH   7   8
HETATM    8  C   UNL     1     -22.037  -7.579   0.047  1.00  0.00    -0.000 C 
BRANCH   8   9
HETATM    9  C   UNL     1     -23.275  -8.410   0.363  1.00  0.00    -0.005 C 
HETATM   10  C   UNL     1     -23.136  -9.819  -0.184  1.00  0.00     0.005 C 
ENDBRANCH   8   9
ENDBRANCH   7   8
ENDBRANCH   6   7
ENDBRANCH   5   6
ENDBRANCH   4   5
ENDBRANCH   3   4
ENDBRANCH   2   3
ENDBRANCH   1   2
BRANCH   1  11
HETATM   11  C   UNL     1     -21.169  -4.126  -8.926  1.00  0.00     0.000 C 
BRANCH  11  12
HETATM   12  C   UNL     1     -22.524  -4.710  -9.305  1.00  0.00     0.010 C 
BRANCH  12  13
HETATM   13  C   UNL     1     -23.691  -3.847  -8.831  1.00  0.00     0.111 C 
BRANCH  13  14
HETATM   14  C   UNL     1     -24.637  -3.593  -9.980  1.00  0.00     0.259 C 
HETATM   15  O   UNL     1     -25.770  -3.140  -9.863  1.00  0.00    -0.265 OA
BRANCH  14  16
HETATM   16  O   UNL     1     -24.061  -3.944 -11.164  1.00  0.00    -0.317 OA
BRANCH  16  17
HETATM   17  C   UNL     1     -23.834  -2.848 -12.071  1.00  0.00     0.123 C 
HETATM   18  C   UNL     1     -22.383  -2.854 -12.542  1.00  0.00     0.040 C 
HETATM   19  C   UNL     1     -24.776  -3.016 -13.257  1.00  0.00     0.040 C 
ENDBRANCH  16  17
ENDBRANCH  14  16
ENDBRANCH  13  14
ENDBRANCH  12  13
ENDBRANCH  11  12
ENDBRANCH   1  11
TORSDOF 14
BEGIN_RES ARG D 557
REMARK  4 active torsions:
REMARK  status: ('A' for Active; 'I' for Inactive)
REMARK    1  A    between atoms: CA   and  CB  
REMARK    2  A    between atoms: CB   and  CG  
REMARK    3  A    between atoms: CG   and  CD  
REMARK    4  A    between atoms: CD   and  NE  
REMARK       I    between atoms: NE   and  CZ  
REMARK       I    between atoms: CZ   and  NH1 
REMARK       I    between atoms: CZ   and  NH2 
ROOT
ATOM      1  CA  ARG D 557     -26.217   2.705 -17.014  1.00 35.49     0.159 C 
ENDROOT
BRANCH   1   2
ATOM      2  CB  ARG D 557     -26.789   1.319 -17.183  1.00 35.49     0.034 C 
BRANCH   2   3
ATOM      3  CG  ARG D 557     -25.963   0.201 -16.711  1.00 35.49     0.027 C 
BRANCH   3   4
ATOM      4  CD  ARG D 557     -26.762  -0.844 -16.031  1.00 35.49     0.116 C 
BRANCH   4   5
ATOM      5  NE  ARG D 557     -28.015  -1.087 -16.697  1.00 35.49    -0.212 N 
ATOM      6  CZ  ARG D 557     -28.539  -2.267 -16.941  1.00 35.49     0.666 C 
ATOM      7  NH1 ARG D 557     -27.940  -3.393 -16.600  1.00 35.49    -0.235 N 
ATOM      8  NH2 ARG D 557     -29.696  -2.299 -17.537  1.00 35.49    -0.235 N 
ATOM      9  HH  ARG D 557     -27.179  -3.396 -16.205  1.00 35.49     0.174 HD
ATOM     10  HH  ARG D 557     -28.331  -4.133 -16.782  1.00 35.49     0.174 HD
ATOM     11  HH  ARG D 557     -30.062  -1.556 -17.739  1.00 35.49     0.174 HD
ATOM     12  HH  ARG D 557     -30.067  -3.042 -17.707  1.00 35.49     0.174 HD
ATOM     13  HE  ARG D 557     -28.434  -0.419 -17.016  1.00 35.49     0.178 HD
ENDBRANCH   4   5
ENDBRANCH   3   4
ENDBRANCH   2   3
ENDBRANCH   1   2
END_RES ARG D 557
BEGIN_RES GLU D 570
REMARK  3 active torsions:
REMARK  status: ('A' for Active; 'I' for Inactive)
REMARK    5  A    between atoms: CA   and  CB  
REMARK    6  A    between atoms: CB   and  CG  
REMARK    7  A    between atoms: CG   and  CD  
ROOT
ATOM     14  CA  GLU D 570     -18.033  -6.348 -13.375  1.00 32.92     0.160 C 
ENDROOT
BRANCH  14  15
ATOM     15  CB  GLU D 570     -19.500  -6.345 -13.794  1.00 32.92     0.043 C 
BRANCH  15  16
ATOM     16  CG  GLU D 570     -19.813  -5.942 -15.189  1.00 32.92     0.100 C 
BRANCH  16  17
ATOM     17  CD  GLU D 570     -21.251  -5.516 -15.372  1.00 32.92     0.185 C 
ATOM     18  OE1 GLU D 570     -21.570  -4.888 -16.399  1.00 32.92    -0.647 OA
ATOM     19  OE2 GLU D 570     -22.063  -5.798 -14.469  1.00 32.92    -0.647 OA
ENDBRANCH  16  17
ENDBRANCH  15  16
ENDBRANCH  14  15
END_RES GLU D 570
ENDMDL
MODEL 2
REMARK VINA RESULT:      -6.8      3.805      8.236
REMARK  14 active torsions:
REMARK  status: ('A' for Active; 'I' for Inactive)
REMARK    1  A    between atoms: C_2  and  C_3 
REMARK    2  A    between atoms: C_3  and  C_4 
REMARK    3  A    between atoms: C_4  and  C_5 
REMARK    4  A    between atoms: C_5  and  C_6 
REMARK    5  A    between atoms: C_6  and  C_7 
REMARK    6  A    between atoms: C_7  and  C_8 
REMARK    7  A    between atoms: C_8  and  C_9 
REMARK    8  A    between atoms: C_9  and  C_10 
REMARK    9  A    between atoms: C_10  and  C_11 
REMARK   10  A    between atoms: C_11  and  C_12 
REMARK   11  A    between atoms: C_12  and  C_13 
REMARK   12  A    between atoms: C_13  and  C_14 
REMARK   13  A    between atoms: C_14  and  O_16 
REMARK   14  A    between atoms: O_16  and  C_17 
ROOT
HETATM    1  C   UNL     1     -21.439  -6.968  -3.698  1.00  0.00     0.000 C 
ENDROOT
BRANCH   1   2
HETATM    2  C   UNL     1     -22.199  -6.546  -4.947  1.00  0.00     0.000 C 
BRANCH   2   3
HETATM    3  C   UNL     1     -21.245  -6.378  -6.124  1.00  0.00     0.000 C 
BRANCH   3   4
HETATM    4  C   UNL     1     -20.228  -5.282  -5.835  1.00  0.00     0.000 C 
BRANCH   4   5
HETATM    5  C   UNL     1     -19.481  -4.893  -7.105  1.00  0.00     0.000 C 
BRANCH   5   6
HETATM    6  C   UNL     1     -20.295  -3.891  -7.916  1.00  0.00     0.000 C 
BRANCH   6   7
HETATM    7  C   UNL     1     -20.405  -4.339  -9.369  1.00  0.00     0.000 C 
BRANCH   7   8
HETATM    8  C   UNL     1     -21.776  -3.983  -9.935  1.00  0.00    -0.000 C 
BRANCH   8   9
HETATM    9  C   UNL     1     -22.824  -3.918  -8.832  1.00  0.00    -0.005 C 
HETATM   10  C   UNL     1     -24.198  -3.619  -9.406  1.00  0.00     0.005 C 
ENDBRANCH   8   9
ENDBRANCH   7   8
ENDBRANCH   6   7
ENDBRANCH   5   6
ENDBRANCH   4   5
ENDBRANCH   3   4
ENDBRANCH   2   3
ENDBRANCH   1   2
BRANCH   1  11
HETATM   11  C   UNL     1     -21.660  -5.974  -2.559  1.00  0.00     0.000 C 
BRANCH  11  12
HETATM   12  C   UNL     1     -22.306  -6.681  -1.374  1.00  0.00     0.010 C 
BRANCH  12  13
HETATM   13  C   UNL     1     -21.638  -8.014  -1.048  1.00  0.00     0.111 C 
BRANCH  13  14
HETATM   14  C   UNL     1     -22.145  -8.526   0.280  1.00  0.00     0.259 C 
HETATM   15  O   UNL     1     -21.692  -8.199   1.371  1.00  0.00    -0.265 OA
BRANCH  14  16
HETATM   16  O   UNL     1     -23.169  -9.407   0.097  1.00  0.00    -0.317 OA
BRANCH  16  17
HETATM   17  C   UNL     1     -22.801 -10.627  -0.575  1.00  0.00     0.123 C 
HETATM   18  C   UNL     1     -21.965 -11.502   0.354  1.00  0.00     0.040 C 
HETATM   19  C   UNL     1     -24.083 -11.350  -0.971  1.00  0.00     0.040 C 
ENDBRANCH  16  17
ENDBRANCH  14  16
ENDBRANCH  13  14
ENDBRANCH  12  13
ENDBRANCH  11  12
ENDBRANCH   1  11
TORSDOF 14
BEGIN_RES ARG D 557
REMARK  4 active torsions:
REMARK  status: ('A' for Active; 'I' for Inactive)
REMARK    1  A    between atoms: CA   and  CB  
REMARK    2  A    between atoms: CB   and  CG  
REMARK    3  A    between atoms: CG   and  CD  
REMARK    4  A    between atoms: CD   and  NE  
REMARK       I    between atoms: NE   and  CZ  
REMARK       I    between atoms: CZ   and  NH1 
REMARK       I    between atoms: CZ   and  NH2 
ROOT
ATOM      1  CA  ARG D 557     -26.217   2.705 -17.014  1.00 35.49     0.159 C 
ENDROOT
BRANCH   1   2
ATOM      2  CB  ARG D 557     -26.789   1.319 -17.183  1.00 35.49     0.034 C 
BRANCH   2   3
ATOM      3  CG  ARG D 557     -25.837   0.202 -17.148  1.00 35.49     0.027 C 
BRANCH   3   4
ATOM      4  CD  ARG D 557     -24.761   0.409 -16.151  1.00 35.49     0.116 C 
BRANCH   4   5
ATOM      5  NE  ARG D 557     -24.910  -0.451 -15.007  1.00 35.49    -0.212 N 
ATOM      6  CZ  ARG D 557     -24.088  -1.416 -14.659  1.00 35.49     0.666 C 
ATOM      7  NH1 ARG D 557     -23.008  -1.713 -15.358  1.00 35.49    -0.235 N 
ATOM      8  NH2 ARG D 557     -24.368  -2.082 -13.577  1.00 35.49    -0.235 N 
ATOM      9  HH  ARG D 557     -22.803  -1.286 -16.072  1.00 35.49     0.174 HD
ATOM     10  HH  ARG D 557     -22.507  -2.351 -15.081  1.00 35.49     0.174 HD
ATOM     11  HH  ARG D 557     -25.068  -1.863 -13.142  1.00 35.49     0.174 HD
ATOM     12  HH  ARG D 557     -23.859  -2.709 -13.318  1.00 35.49     0.174 HD
ATOM     13  HE  ARG D 557     -25.617  -0.377 -14.541  1.00 35.49     0.178 HD
ENDBRANCH   4   5
ENDBRANCH   3   4
ENDBRANCH   2   3
ENDBRANCH   1   2
END_RES ARG D 557
BEGIN_RES GLU D 570
REMARK  3 active torsions:
REMARK  status: ('A' for Active; 'I' for Inactive)
REMARK    5  A    between atoms: CA   and  CB  
REMARK    6  A    between atoms: CB   and  CG  
REMARK    7  A    between atoms: CG   and  CD  
ROOT
ATOM     14  CA  GLU D 570     -18.033  -6.348 -13.375  1.00 32.92     0.160 C 
ENDROOT
BRANCH  14  15
ATOM     15  CB  GLU D 570     -19.500  -6.345 -13.794  1.00 32.92     0.043 C 
BRANCH  15  16
ATOM     16  CG  GLU D 570     -20.437  -5.509 -13.000  1.00 32.92     0.100 C 
BRANCH  16  17
ATOM     17  CD  GLU D 570     -21.717  -5.195 -13.738  1.00 32.92     0.185 C 
ATOM     18  OE1 GLU D 570     -22.335  -4.150 -13.462  1.00 32.92    -0.647 OA
ATOM     19  OE2 GLU D 570     -22.116  -6.013 -14.591  1.00 32.92    -0.647 OA
ENDBRANCH  16  17
ENDBRANCH  15  16
ENDBRANCH  14  15
END_RES GLU D 570
ENDMDL
MODEL 3
REMARK VINA RESULT:      -6.6      7.632     11.871
REMARK  14 active torsions:
REMARK  status: ('A' for Active; 'I' for Inactive)
REMARK    1  A    between atoms: C_2  and  C_3 
REMARK    2  A    between atoms: C_3  and  C_4 
REMARK    3  A    between atoms: C_4  and  C_5 
REMARK    4  A    between atoms: C_5  and  C_6 
REMARK    5  A    between atoms: C_6  and  C_7 
REMARK    6  A    between atoms: C_7  and  C_8 
REMARK    7  A    between atoms: C_8  and  C_9 
REMARK    8  A    between atoms: C_9  and  C_10 
REMARK    9  A    between atoms: C_10  and  C_11 
REMARK   10  A    between atoms: C_11  and  C_12 
REMARK   11  A    between atoms: C_12  and  C_13 
REMARK   12  A    between atoms: C_13  and  C_14 
REMARK   13  A    between atoms: C_14  and  O_16 
REMARK   14  A    between atoms: O_16  and  C_17 
ROOT
HETATM    1  C   UNL     1     -36.210  -1.005  -9.851  1.00  0.00     0.000 C 
ENDROOT
BRANCH   1   2
HETATM    2  C   UNL     1     -35.540  -2.152 -10.595  1.00  0.00     0.000 C 
BRANCH   2   3
HETATM    3  C   UNL     1     -34.038  -2.153 -10.340  1.00  0.00     0.000 C 
BRANCH   3   4
HETATM    4  C   UNL     1     -33.329  -3.067 -11.331  1.00  0.00     0.000 C 
BRANCH   4   5
HETATM    5  C   UNL     1     -34.300  -3.559 -12.398  1.00  0.00     0.000 C 
BRANCH   5   6
HETATM    6  C   UNL     1     -34.619  -5.034 -12.186  1.00  0.00     0.000 C 
BRANCH   6   7
HETATM    7  C   UNL     1     -33.709  -5.633 -11.120  1.00  0.00     0.000 C 
BRANCH   7   8
HETATM    8  C   UNL     1     -34.535  -6.251  -9.996  1.00  0.00    -0.000 C 
BRANCH   8   9
HETATM    9  C   UNL     1     -34.918  -7.689 -10.325  1.00  0.00    -0.005 C 
HETATM   10  C   UNL     1     -33.878  -8.661  -9.798  1.00  0.00     0.005 C 
ENDBRANCH   8   9
ENDBRANCH   7   8
ENDBRANCH   6   7
ENDBRANCH   5   6
ENDBRANCH   4   5
ENDBRANCH   3   4
ENDBRANCH   2   3
ENDBRANCH   1   2
BRANCH   1  11
HETATM   11  C   UNL     1     -37.030  -0.137 -10.803  1.00  0.00     0.000 C 
BRANCH  11  12
HETATM   12  C   UNL     1     -36.633  -0.432 -12.244  1.00  0.00     0.010 C 
BRANCH  12  13
HETATM   13  C   UNL     1     -35.436   0.394 -12.706  1.00  0.00     0.111 C 
BRANCH  13  14
HETATM   14  C   UNL     1     -35.173   0.136 -14.171  1.00  0.00     0.259 C 
HETATM   15  O   UNL     1     -34.257   0.637 -14.814  1.00  0.00    -0.265 OA
BRANCH  14  16
HETATM   16  O   UNL     1     -36.097  -0.726 -14.681  1.00  0.00    -0.317 OA
BRANCH  16  17
HETATM   17  C   UNL     1     -36.529  -0.421 -16.021  1.00  0.00     0.123 C 
HETATM   18  C   UNL     1     -35.880  -1.384 -17.010  1.00  0.00     0.040 C 
HETATM   19  C   UNL     1     -38.046  -0.557 -16.068  1.00  0.00     0.040 C 
ENDBRANCH  16  17
ENDBRANCH  14  16
ENDBRANCH  13  14
ENDBRANCH  12  13
ENDBRANCH  11  12
ENDBRANCH   1  11
TORSDOF 14
BEGIN_RES ARG D 557
REMARK  4 active torsions:
REMARK  status: ('A' for Active; 'I' for Inactive)
REMARK    1  A    between atoms: CA   and  CB  
REMARK    2  A    between atoms: CB   and  CG  
REMARK    3  A    between atoms: CG   and  CD  
REMARK    4  A    between atoms: CD   and  NE  
REMARK       I    between atoms: NE   and  CZ  
REMARK       I    between atoms: CZ   and  NH1 
REMARK       I    between atoms: CZ   and  NH2 
ROOT
ATOM      1  CA  ARG D 557     -26.217   2.705 -17.014  1.00 35.49     0.159 C 
ENDROOT
BRANCH   1   2
ATOM      2  CB  ARG D 557     -26.789   1.319 -17.183  1.00 35.49     0.034 C 
BRANCH   2   3
ATOM      3  CG  ARG D 557     -25.938   0.198 -16.767  1.00 35.49     0.027 C 
BRANCH   3   4
ATOM      4  CD  ARG D 557     -26.696  -0.849 -16.044  1.00 35.49     0.116 C 
BRANCH   4   5
ATOM      5  NE  ARG D 557     -25.879  -1.546 -15.086  1.00 35.49    -0.212 N 
ATOM      6  CZ  ARG D 557     -25.939  -2.830 -14.815  1.00 35.49     0.666 C 
ATOM      7  NH1 ARG D 557     -26.797  -3.640 -15.408  1.00 35.49    -0.235 N 
ATOM      8  NH2 ARG D 557     -25.107  -3.297 -13.931  1.00 35.49    -0.235 N 
ATOM      9  HH  ARG D 557     -27.353  -3.355 -15.994  1.00 35.49     0.174 HD
ATOM     10  HH  ARG D 557     -26.789  -4.470 -15.193  1.00 35.49     0.174 HD
ATOM     11  HH  ARG D 557     -24.559  -2.752 -13.570  1.00 35.49     0.174 HD
ATOM     12  HH  ARG D 557     -25.113  -4.121 -13.733  1.00 35.49     0.174 HD
ATOM     13  HE  ARG D 557     -25.348  -1.087 -14.605  1.00 35.49     0.178 HD
ENDBRANCH   4   5
ENDBRANCH   3   4
ENDBRANCH   2   3
ENDBRANCH   1   2
END_RES ARG D 557
BEGIN_RES GLU D 570
REMARK  3 active torsions:
REMARK  status: ('A' for Active; 'I' for Inactive)
REMARK    5  A    between atoms: CA   and  CB  
REMARK    6  A    between atoms: CB   and  CG  
REMARK    7  A    between atoms: CG   and  CD  
ROOT
ATOM     14  CA  GLU D 570     -18.033  -6.348 -13.375  1.00 32.92     0.160 C 
ENDROOT
BRANCH  14  15
ATOM     15  CB  GLU D 570     -19.500  -6.345 -13.794  1.00 32.92     0.043 C 
BRANCH  15  16
ATOM     16  CG  GLU D 570     -20.453  -5.583 -12.946  1.00 32.92     0.100 C 
BRANCH  16  17
ATOM     17  CD  GLU D 570     -21.701  -5.167 -13.689  1.00 32.92     0.185 C 
ATOM     18  OE1 GLU D 570     -21.743  -5.306 -14.927  1.00 32.92    -0.647 OA
ATOM     19  OE2 GLU D 570     -22.640  -4.681 -13.029  1.00 32.92    -0.647 OA
ENDBRANCH  16  17
ENDBRANCH  15  16
ENDBRANCH  14  15
END_RES GLU D 570
ENDMDL
MODEL 4
REMARK VINA RESULT:      -6.6      1.389      2.062
REMARK  14 active torsions:
REMARK  status: ('A' for Active; 'I' for Inactive)
REMARK    1  A    between atoms: C_2  and  C_3 
REMARK    2  A    between atoms: C_3  and  C_4 
REMARK    3  A    between atoms: C_4  and  C_5 
REMARK    4  A    between atoms: C_5  and  C_6 
REMARK    5  A    between atoms: C_6  and  C_7 
REMARK    6  A    between atoms: C_7  and  C_8 
REMARK    7  A    between atoms: C_8  and  C_9 
REMARK    8  A    between atoms: C_9  and  C_10 
REMARK    9  A    between atoms: C_10  and  C_11 
REMARK   10  A    between atoms: C_11  and  C_12 
REMARK   11  A    between atoms: C_12  and  C_13 
REMARK   12  A    between atoms: C_13  and  C_14 
REMARK   13  A    between atoms: C_14  and  O_16 
REMARK   14  A    between atoms: O_16  and  C_17 
ROOT
HETATM    1  C   UNL     1     -20.611  -6.043  -6.538  1.00  0.00     0.000 C 
ENDROOT
BRANCH   1   2
HETATM    2  C   UNL     1     -20.265  -6.841  -5.288  1.00  0.00     0.000 C 
BRANCH   2   3
HETATM    3  C   UNL     1     -21.513  -7.489  -4.702  1.00  0.00     0.000 C 
BRANCH   3   4
HETATM    4  C   UNL     1     -22.335  -6.464  -3.933  1.00  0.00     0.000 C 
BRANCH   4   5
HETATM    5  C   UNL     1     -21.872  -6.381  -2.483  1.00  0.00     0.000 C 
BRANCH   5   6
HETATM    6  C   UNL     1     -21.572  -7.773  -1.941  1.00  0.00     0.000 C 
BRANCH   6   7
HETATM    7  C   UNL     1     -21.648  -7.784  -0.418  1.00  0.00     0.000 C 
BRANCH   7   8
HETATM    8  C   UNL     1     -22.835  -8.618   0.052  1.00  0.00    -0.000 C 
BRANCH   8   9
HETATM    9  C   UNL     1     -22.910  -9.939  -0.705  1.00  0.00    -0.005 C 
HETATM   10  C   UNL     1     -23.966 -10.849  -0.103  1.00  0.00     0.005 C 
ENDBRANCH   8   9
ENDBRANCH   7   8
ENDBRANCH   6   7
ENDBRANCH   5   6
ENDBRANCH   4   5
ENDBRANCH   3   4
ENDBRANCH   2   3
ENDBRANCH   1   2
BRANCH   1  11
HETATM   11  C   UNL     1     -20.380  -4.550  -6.316  1.00  0.00     0.000 C 
BRANCH  11  12
HETATM   12  C   UNL     1     -21.309  -3.744  -7.214  1.00  0.00     0.010 C 
BRANCH  12  13
HETATM   13  C   UNL     1     -22.662  -4.420  -7.421  1.00  0.00     0.111 C 
BRANCH  13  14
HETATM   14  C   UNL     1     -23.164  -4.138  -8.818  1.00  0.00     0.259 C 
HETATM   15  O   UNL     1     -24.149  -3.457  -9.080  1.00  0.00    -0.265 OA
BRANCH  14  16
HETATM   16  O   UNL     1     -22.376  -4.752  -9.745  1.00  0.00    -0.317 OA
BRANCH  16  17
HETATM   17  C   UNL     1     -21.945  -3.901 -10.825  1.00  0.00     0.123 C 
HETATM   18  C   UNL     1     -20.420  -3.857 -10.876  1.00  0.00     0.040 C 
HETATM   19  C   UNL     1     -22.501  -4.472 -12.124  1.00  0.00     0.040 C 
ENDBRANCH  16  17
ENDBRANCH  14  16
ENDBRANCH  13  14
ENDBRANCH  12  13
ENDBRANCH  11  12
ENDBRANCH   1  11
TORSDOF 14
BEGIN_RES ARG D 557
REMARK  4 active torsions:
REMARK  status: ('A' for Active; 'I' for Inactive)
REMARK    1  A    between atoms: CA   and  CB  
REMARK    2  A    between atoms: CB   and  CG  
REMARK    3  A    between atoms: CG   and  CD  
REMARK    4  A    between atoms: CD   and  NE  
REMARK       I    between atoms: NE   and  CZ  
REMARK       I    between atoms: CZ   and  NH1 
REMARK       I    between atoms: CZ   and  NH2 
ROOT
ATOM      1  CA  ARG D 557     -26.217   2.705 -17.014  1.00 35.49     0.159 C 
ENDROOT
BRANCH   1   2
ATOM      2  CB  ARG D 557     -26.789   1.319 -17.183  1.00 35.49     0.034 C 
BRANCH   2   3
ATOM      3  CG  ARG D 557     -28.233   1.169 -16.966  1.00 35.49     0.027 C 
BRANCH   3   4
ATOM      4  CD  ARG D 557     -28.625  -0.239 -16.730  1.00 35.49     0.116 C 
BRANCH   4   5
ATOM      5  NE  ARG D 557     -27.619  -0.967 -16.002  1.00 35.49    -0.212 N 
ATOM      6  CZ  ARG D 557     -27.409  -2.263 -16.069  1.00 35.49     0.666 C 
ATOM      7  NH1 ARG D 557     -28.137  -3.060 -16.830  1.00 35.49    -0.235 N 
ATOM      8  NH2 ARG D 557     -26.438  -2.752 -15.355  1.00 35.49    -0.235 N 
ATOM      9  HH  ARG D 557     -28.780  -2.760 -17.310  1.00 35.49     0.174 HD
ATOM     10  HH  ARG D 557     -27.952  -3.897 -16.835  1.00 35.49     0.174 HD
ATOM     11  HH  ARG D 557     -25.980  -2.212 -14.879  1.00 35.49     0.174 HD
ATOM     12  HH  ARG D 557     -26.270  -3.582 -15.375  1.00 35.49     0.174 HD
ATOM     13  HE  ARG D 557     -27.152  -0.542 -15.432  1.00 35.49     0.178 HD
ENDBRANCH   4   5
ENDBRANCH   3   4
ENDBRANCH   2   3
ENDBRANCH   1   2
END_RES ARG D 557
BEGIN_RES GLU D 570
REMARK  3 active torsions:
REMARK  status: ('A' for Active; 'I' for Inactive)
REMARK    5  A    between atoms: CA   and  CB  
REMARK    6  A    between atoms: CB   and  CG  
REMARK    7  A    between atoms: CG   and  CD  
ROOT
ATOM     14  CA  GLU D 570     -18.033  -6.348 -13.375  1.00 32.92     0.160 C 
ENDROOT
BRANCH  14  15
ATOM     15  CB  GLU D 570     -19.500  -6.345 -13.794  1.00 32.92     0.043 C 
BRANCH  15  16
ATOM     16  CG  GLU D 570     -19.806  -6.026 -15.212  1.00 32.92     0.100 C 
BRANCH  16  17
ATOM     17  CD  GLU D 570     -21.278  -5.789 -15.459  1.00 32.92     0.185 C 
ATOM     18  OE1 GLU D 570     -22.102  -6.631 -15.055  1.00 32.92    -0.647 OA
ATOM     19  OE2 GLU D 570     -21.609  -4.758 -16.077  1.00 32.92    -0.647 OA
ENDBRANCH  16  17
ENDBRANCH  15  16
ENDBRANCH  14  15
END_RES GLU D 570
ENDMDL
MODEL 5
REMARK VINA RESULT:      -6.6      1.556      1.992
REMARK  14 active torsions:
REMARK  status: ('A' for Active; 'I' for Inactive)
REMARK    1  A    between atoms: C_2  and  C_3 
REMARK    2  A    between atoms: C_3  and  C_4 
REMARK    3  A    between atoms: C_4  and  C_5 
REMARK    4  A    between atoms: C_5  and  C_6 
REMARK    5  A    between atoms: C_6  and  C_7 
REMARK    6  A    between atoms: C_7  and  C_8 
REMARK    7  A    between atoms: C_8  and  C_9 
REMARK    8  A    between atoms: C_9  and  C_10 
REMARK    9  A    between atoms: C_10  and  C_11 
REMARK   10  A    between atoms: C_11  and  C_12 
REMARK   11  A    between atoms: C_12  and  C_13 
REMARK   12  A    between atoms: C_13  and  C_14 
REMARK   13  A    between atoms: C_14  and  O_16 
REMARK   14  A    between atoms: O_16  and  C_17 
ROOT
HETATM    1  C   UNL     1     -20.459  -5.149  -7.678  1.00  0.00     0.000 C 
ENDROOT
BRANCH   1   2
HETATM    2  C   UNL     1     -20.590  -4.564  -6.279  1.00  0.00     0.000 C 
BRANCH   2   3
HETATM    3  C   UNL     1     -20.728  -5.673  -5.244  1.00  0.00     0.000 C 
BRANCH   3   4
HETATM    4  C   UNL     1     -21.102  -6.988  -5.918  1.00  0.00     0.000 C 
BRANCH   4   5
HETATM    5  C   UNL     1     -21.323  -8.081  -4.879  1.00  0.00     0.000 C 
BRANCH   5   6
HETATM    6  C   UNL     1     -19.990  -8.547  -4.306  1.00  0.00     0.000 C 
BRANCH   6   7
HETATM    7  C   UNL     1     -20.041  -8.580  -2.783  1.00  0.00     0.000 C 
BRANCH   7   8
HETATM    8  C   UNL     1     -21.486  -8.566  -2.296  1.00  0.00    -0.000 C 
BRANCH   8   9
HETATM    9  C   UNL     1     -21.692  -7.507  -1.220  1.00  0.00    -0.005 C 
HETATM   10  C   UNL     1     -22.208  -6.213  -1.824  1.00  0.00     0.005 C 
ENDBRANCH   8   9
ENDBRANCH   7   8
ENDBRANCH   6   7
ENDBRANCH   5   6
ENDBRANCH   4   5
ENDBRANCH   3   4
ENDBRANCH   2   3
ENDBRANCH   1   2
BRANCH   1  11
HETATM   11  C   UNL     1     -20.846  -4.121  -8.741  1.00  0.00     0.000 C 
BRANCH  11  12
HETATM   12  C   UNL     1     -22.276  -3.650  -8.510  1.00  0.00     0.010 C 
BRANCH  12  13
HETATM   13  C   UNL     1     -23.311  -4.586  -9.128  1.00  0.00     0.111 C 
BRANCH  13  14
HETATM   14  C   UNL     1     -24.293  -3.786  -9.951  1.00  0.00     0.259 C 
HETATM   15  O   UNL     1     -24.965  -2.855  -9.523  1.00  0.00    -0.265 OA
BRANCH  14  16
HETATM   16  O   UNL     1     -24.334  -4.247 -11.233  1.00  0.00    -0.317 OA
BRANCH  16  17
HETATM   17  C   UNL     1     -23.071  -4.212 -11.926  1.00  0.00     0.123 C 
HETATM   18  C   UNL     1     -23.134  -5.094 -13.169  1.00  0.00     0.040 C 
HETATM   19  C   UNL     1     -22.788  -2.767 -12.316  1.00  0.00     0.040 C 
ENDBRANCH  16  17
ENDBRANCH  14  16
ENDBRANCH  13  14
ENDBRANCH  12  13
ENDBRANCH  11  12
ENDBRANCH   1  11
TORSDOF 14
BEGIN_RES ARG D 557
REMARK  4 active torsions:
REMARK  status: ('A' for Active; 'I' for Inactive)
REMARK    1  A    between atoms: CA   and  CB  
REMARK    2  A    between atoms: CB   and  CG  
REMARK    3  A    between atoms: CG   and  CD  
REMARK    4  A    between atoms: CD   and  NE  
REMARK       I    between atoms: NE   and  CZ  
REMARK       I    between atoms: CZ   and  NH1 
REMARK       I    between atoms: CZ   and  NH2 
ROOT
ATOM      1  CA  ARG D 557     -26.217   2.705 -17.014  1.00 35.49     0.159 C 
ENDROOT
BRANCH   1   2
ATOM      2  CB  ARG D 557     -26.789   1.319 -17.183  1.00 35.49     0.034 C 
BRANCH   2   3
ATOM      3  CG  ARG D 557     -28.231   1.226 -17.440  1.00 35.49     0.027 C 
BRANCH   3   4
ATOM      4  CD  ARG D 557     -28.913   0.303 -16.503  1.00 35.49     0.116 C 
BRANCH   4   5
ATOM      5  NE  ARG D 557     -29.322  -0.918 -17.147  1.00 35.49    -0.212 N 
ATOM      6  CZ  ARG D 557     -28.706  -2.075 -17.059  1.00 35.49     0.666 C 
ATOM      7  NH1 ARG D 557     -27.600  -2.239 -16.356  1.00 35.49    -0.235 N 
ATOM      8  NH2 ARG D 557     -29.231  -3.084 -17.693  1.00 35.49    -0.235 N 
ATOM      9  HH  ARG D 557     -27.239  -1.590 -15.929  1.00 35.49     0.174 HD
ATOM     10  HH  ARG D 557     -27.245  -3.018 -16.333  1.00 35.49     0.174 HD
ATOM     11  HH  ARG D 557     -29.949  -2.950 -18.132  1.00 35.49     0.174 HD
ATOM     12  HH  ARG D 557     -28.864  -3.848 -17.656  1.00 35.49     0.174 HD
ATOM     13  HE  ARG D 557     -29.984  -0.886 -17.679  1.00 35.49     0.178 HD
ENDBRANCH   4   5
ENDBRANCH   3   4
ENDBRANCH   2   3
ENDBRANCH   1   2
END_RES ARG D 557
BEGIN_RES GLU D 570
REMARK  3 active torsions:
REMARK  status: ('A' for Active; 'I' for Inactive)
REMARK    5  A    between atoms: CA   and  CB  
REMARK    6  A    between atoms: CB   and  CG  
REMARK    7  A    between atoms: CG   and  CD  
ROOT
ATOM     14  CA  GLU D 570     -18.033  -6.348 -13.375  1.00 32.92     0.160 C 
ENDROOT
BRANCH  14  15
ATOM     15  CB  GLU D 570     -19.500  -6.345 -13.794  1.00 32.92     0.043 C 
BRANCH  15  16
ATOM     16  CG  GLU D 570     -19.797  -6.246 -15.246  1.00 32.92     0.100 C 
BRANCH  16  17
ATOM     17  CD  GLU D 570     -20.850  -7.230 -15.701  1.00 32.92     0.185 C 
ATOM     18  OE1 GLU D 570     -20.645  -8.449 -15.549  1.00 32.92    -0.647 OA
ATOM     19  OE2 GLU D 570     -21.884  -6.776 -16.231  1.00 32.92    -0.647 OA
ENDBRANCH  16  17
ENDBRANCH  15  16
ENDBRANCH  14  15
END_RES GLU D 570
ENDMDL
MODEL 6
REMARK VINA RESULT:      -6.6      1.828      3.331
REMARK  14 active torsions:
REMARK  status: ('A' for Active; 'I' for Inactive)
REMARK    1  A    between atoms: C_2  and  C_3 
REMARK    2  A    between atoms: C_3  and  C_4 
REMARK    3  A    between atoms: C_4  and  C_5 
REMARK    4  A    between atoms: C_5  and  C_6 
REMARK    5  A    between atoms: C_6  and  C_7 
REMARK    6  A    between atoms: C_7  and  C_8 
REMARK    7  A    between atoms: C_8  and  C_9 
REMARK    8  A    between atoms: C_9  and  C_10 
REMARK    9  A    between atoms: C_10  and  C_11 
REMARK   10  A    between atoms: C_11  and  C_12 
REMARK   11  A    between atoms: C_12  and  C_13 
REMARK   12  A    between atoms: C_13  and  C_14 
REMARK   13  A    between atoms: C_14  and  O_16 
REMARK   14  A    between atoms: O_16  and  C_17 
ROOT
HETATM    1  C   UNL     1     -20.450  -8.057  -4.212  1.00  0.00     0.000 C 
ENDROOT
BRANCH   1   2
HETATM    2  C   UNL     1     -20.780  -7.772  -2.754  1.00  0.00     0.000 C 
BRANCH   2   3
HETATM    3  C   UNL     1     -21.661  -6.534  -2.635  1.00  0.00     0.000 C 
BRANCH   3   4
HETATM    4  C   UNL     1     -22.343  -6.494  -1.273  1.00  0.00     0.000 C 
BRANCH   4   5
HETATM    5  C   UNL     1     -22.007  -7.742  -0.466  1.00  0.00     0.000 C 
BRANCH   5   6
HETATM    6  C   UNL     1     -23.168  -8.112   0.449  1.00  0.00     0.000 C 
BRANCH   6   7
HETATM    7  C   UNL     1     -23.574  -9.566   0.241  1.00  0.00     0.000 C 
BRANCH   7   8
HETATM    8  C   UNL     1     -22.614 -10.257  -0.722  1.00  0.00    -0.000 C 
BRANCH   8   9
HETATM    9  C   UNL     1     -23.371 -11.102  -1.739  1.00  0.00    -0.005 C 
HETATM   10  C   UNL     1     -22.736 -10.996  -3.114  1.00  0.00     0.005 C 
ENDBRANCH   8   9
ENDBRANCH   7   8
ENDBRANCH   6   7
ENDBRANCH   5   6
ENDBRANCH   4   5
ENDBRANCH   3   4
ENDBRANCH   2   3
ENDBRANCH   1   2
BRANCH   1  11
HETATM   11  C   UNL     1     -21.263  -7.160  -5.144  1.00  0.00     0.000 C 
BRANCH  11  12
HETATM   12  C   UNL     1     -20.325  -6.342  -6.022  1.00  0.00     0.010 C 
BRANCH  12  13
HETATM   13  C   UNL     1     -20.793  -4.900  -6.200  1.00  0.00     0.111 C 
BRANCH  13  14
HETATM   14  C   UNL     1     -22.042  -4.870  -7.048  1.00  0.00     0.259 C 
HETATM   15  O   UNL     1     -23.159  -4.581  -6.633  1.00  0.00    -0.265 OA
BRANCH  14  16
HETATM   16  O   UNL     1     -21.760  -5.217  -8.335  1.00  0.00    -0.317 OA
BRANCH  16  17
HETATM   17  C   UNL     1     -21.545  -4.104  -9.224  1.00  0.00     0.123 C 
HETATM   18  C   UNL     1     -20.339  -4.377 -10.119  1.00  0.00     0.040 C 
HETATM   19  C   UNL     1     -22.801  -3.928 -10.069  1.00  0.00     0.040 C 
ENDBRANCH  16  17
ENDBRANCH  14  16
ENDBRANCH  13  14
ENDBRANCH  12  13
ENDBRANCH  11  12
ENDBRANCH   1  11
TORSDOF 14
BEGIN_RES ARG D 557
REMARK  4 active torsions:
REMARK  status: ('A' for Active; 'I' for Inactive)
REMARK    1  A    between atoms: CA   and  CB  
REMARK    2  A    between atoms: CB   and  CG  
REMARK    3  A    between atoms: CG   and  CD  
REMARK    4  A    between atoms: CD   and  NE  
REMARK       I    between atoms: NE   and  CZ  
REMARK       I    between atoms: CZ   and  NH1 
REMARK       I    between atoms: CZ   and  NH2 
ROOT
ATOM      1  CA  ARG D 557     -26.217   2.705 -17.014  1.00 35.49     0.159 C 
ENDROOT
BRANCH   1   2
ATOM      2  CB  ARG D 557     -26.789   1.319 -17.183  1.00 35.49     0.034 C 
BRANCH   2   3
ATOM      3  CG  ARG D 557     -28.232   1.226 -17.437  1.00 35.49     0.027 C 
BRANCH   3   4
ATOM      4  CD  ARG D 557     -28.911   0.301 -16.501  1.00 35.49     0.116 C 
BRANCH   4   5
ATOM      5  NE  ARG D 557     -29.296  -0.930 -17.139  1.00 35.49    -0.212 N 
ATOM      6  CZ  ARG D 557     -28.663  -2.078 -17.039  1.00 35.49     0.666 C 
ATOM      7  NH1 ARG D 557     -27.561  -2.220 -16.327  1.00 35.49    -0.235 N 
ATOM      8  NH2 ARG D 557     -29.168  -3.098 -17.671  1.00 35.49    -0.235 N 
ATOM      9  HH  ARG D 557     -27.213  -1.563 -15.902  1.00 35.49     0.174 HD
ATOM     10  HH  ARG D 557     -27.193  -2.993 -16.297  1.00 35.49     0.174 HD
ATOM     11  HH  ARG D 557     -29.885  -2.978 -18.116  1.00 35.49     0.174 HD
ATOM     12  HH  ARG D 557     -28.790  -3.856 -17.627  1.00 35.49     0.174 HD
ATOM     13  HE  ARG D 557     -29.955  -0.912 -17.676  1.00 35.49     0.178 HD
ENDBRANCH   4   5
ENDBRANCH   3   4
ENDBRANCH   2   3
ENDBRANCH   1   2
END_RES ARG D 557
BEGIN_RES GLU D 570
REMARK  3 active torsions:
REMARK  status: ('A' for Active; 'I' for Inactive)
REMARK    5  A    between atoms: CA   and  CB  
REMARK    6  A    between atoms: CB   and  CG  
REMARK    7  A    between atoms: CG   and  CD  
ROOT
ATOM     14  CA  GLU D 570     -18.033  -6.348 -13.375  1.00 32.92     0.160 C 
ENDROOT
BRANCH  14  15
ATOM     15  CB  GLU D 570     -19.500  -6.345 -13.794  1.00 32.92     0.043 C 
BRANCH  15  16
ATOM     16  CG  GLU D 570     -19.808  -5.993 -15.204  1.00 32.92     0.100 C 
BRANCH  16  17
ATOM     17  CD  GLU D 570     -21.284  -5.784 -15.450  1.00 32.92     0.185 C 
ATOM     18  OE1 GLU D 570     -22.099  -6.597 -14.972  1.00 32.92    -0.647 OA
ATOM     19  OE2 GLU D 570     -21.629  -4.806 -16.142  1.00 32.92    -0.647 OA
ENDBRANCH  16  17
ENDBRANCH  15  16
ENDBRANCH  14  15
END_RES GLU D 570
ENDMDL
MODEL 7
REMARK VINA RESULT:      -6.4      1.854      2.540
REMARK  14 active torsions:
REMARK  status: ('A' for Active; 'I' for Inactive)
REMARK    1  A    between atoms: C_2  and  C_3 
REMARK    2  A    between atoms: C_3  and  C_4 
REMARK    3  A    between atoms: C_4  and  C_5 
REMARK    4  A    between atoms: C_5  and  C_6 
REMARK    5  A    between atoms: C_6  and  C_7 
REMARK    6  A    between atoms: C_7  and  C_8 
REMARK    7  A    between atoms: C_8  and  C_9 
REMARK    8  A    between atoms: C_9  and  C_10 
REMARK    9  A    between atoms: C_10  and  C_11 
REMARK   10  A    between atoms: C_11  and  C_12 
REMARK   11  A    between atoms: C_12  and  C_13 
REMARK   12  A    between atoms: C_13  and  C_14 
REMARK   13  A    between atoms: C_14  and  O_16 
REMARK   14  A    between atoms: O_16  and  C_17 
ROOT
HETATM    1  C   UNL     1     -20.763  -4.065  -9.755  1.00  0.00     0.000 C 
ENDROOT
BRANCH   1   2
HETATM    2  C   UNL     1     -21.367  -4.933  -8.660  1.00  0.00     0.000 C 
BRANCH   2   3
HETATM    3  C   UNL     1     -20.294  -5.380  -7.676  1.00  0.00     0.000 C 
BRANCH   3   4
HETATM    4  C   UNL     1     -20.892  -6.289  -6.610  1.00  0.00     0.000 C 
BRANCH   4   5
HETATM    5  C   UNL     1     -20.963  -5.571  -5.268  1.00  0.00     0.000 C 
BRANCH   5   6
HETATM    6  C   UNL     1     -21.581  -6.479  -4.211  1.00  0.00     0.000 C 
BRANCH   6   7
HETATM    7  C   UNL     1     -21.230  -5.989  -2.811  1.00  0.00     0.000 C 
BRANCH   7   8
HETATM    8  C   UNL     1     -22.310  -6.400  -1.815  1.00  0.00    -0.000 C 
BRANCH   8   9
HETATM    9  C   UNL     1     -21.996  -7.757  -1.196  1.00  0.00    -0.005 C 
HETATM   10  C   UNL     1     -22.397  -7.791   0.268  1.00  0.00     0.005 C 
ENDBRANCH   8   9
ENDBRANCH   7   8
ENDBRANCH   6   7
ENDBRANCH   5   6
ENDBRANCH   4   5
ENDBRANCH   3   4
ENDBRANCH   2   3
ENDBRANCH   1   2
BRANCH   1  11
HETATM   11  C   UNL     1     -21.851  -3.475 -10.651  1.00  0.00     0.000 C 
BRANCH  11  12
HETATM   12  C   UNL     1     -22.499  -4.581 -11.474  1.00  0.00     0.010 C 
BRANCH  12  13
HETATM   13  C   UNL     1     -22.201  -4.457 -12.966  1.00  0.00     0.111 C 
BRANCH  13  14
HETATM   14  C   UNL     1     -23.381  -4.956 -13.765  1.00  0.00     0.259 C 
HETATM   15  O   UNL     1     -23.891  -6.064 -13.636  1.00  0.00    -0.265 OA
BRANCH  14  16
HETATM   16  O   UNL     1     -23.797  -4.010 -14.652  1.00  0.00    -0.317 OA
BRANCH  16  17
HETATM   17  C   UNL     1     -24.269  -2.788 -14.052  1.00  0.00     0.123 C 
HETATM   18  C   UNL     1     -23.711  -1.587 -14.809  1.00  0.00     0.040 C 
HETATM   19  C   UNL     1     -25.791  -2.791 -14.113  1.00  0.00     0.040 C 
ENDBRANCH  16  17
ENDBRANCH  14  16
ENDBRANCH  13  14
ENDBRANCH  12  13
ENDBRANCH  11  12
ENDBRANCH   1  11
TORSDOF 14
BEGIN_RES ARG D 557
REMARK  4 active torsions:
REMARK  status: ('A' for Active; 'I' for Inactive)
REMARK    1  A    between atoms: CA   and  CB  
REMARK    2  A    between atoms: CB   and  CG  
REMARK    3  A    between atoms: CG   and  CD  
REMARK    4  A    between atoms: CD   and  NE  
REMARK       I    between atoms: NE   and  CZ  
REMARK       I    between atoms: CZ   and  NH1 
REMARK       I    between atoms: CZ   and  NH2 
ROOT
ATOM      1  CA  ARG D 557     -26.217   2.705 -17.014  1.00 35.49     0.159 C 
ENDROOT
BRANCH   1   2
ATOM      2  CB  ARG D 557     -26.789   1.319 -17.183  1.00 35.49     0.034 C 
BRANCH   2   3
ATOM      3  CG  ARG D 557     -28.134   1.088 -16.641  1.00 35.49     0.027 C 
BRANCH   3   4
ATOM      4  CD  ARG D 557     -28.812  -0.060 -17.283  1.00 35.49     0.116 C 
BRANCH   4   5
ATOM      5  NE  ARG D 557     -28.221  -1.318 -16.909  1.00 35.49    -0.212 N 
ATOM      6  CZ  ARG D 557     -28.755  -2.504 -17.095  1.00 35.49     0.666 C 
ATOM      7  NH1 ARG D 557     -29.940  -2.668 -17.654  1.00 35.49    -0.235 N 
ATOM      8  NH2 ARG D 557     -28.067  -3.540 -16.712  1.00 35.49    -0.235 N 
ATOM      9  HH  ARG D 557     -30.409  -2.000 -17.916  1.00 35.49     0.174 HD
ATOM     10  HH  ARG D 557     -30.237  -3.465 -17.753  1.00 35.49     0.174 HD
ATOM     11  HH  ARG D 557     -27.301  -3.404 -16.361  1.00 35.49     0.174 HD
ATOM     12  HH  ARG D 557     -28.377  -4.321 -16.819  1.00 35.49     0.174 HD
ATOM     13  HE  ARG D 557     -27.488  -1.302 -16.476  1.00 35.49     0.178 HD
ENDBRANCH   4   5
ENDBRANCH   3   4
ENDBRANCH   2   3
ENDBRANCH   1   2
END_RES ARG D 557
BEGIN_RES GLU D 570
REMARK  3 active torsions:
REMARK  status: ('A' for Active; 'I' for Inactive)
REMARK    5  A    between atoms: CA   and  CB  
REMARK    6  A    between atoms: CB   and  CG  
REMARK    7  A    between atoms: CG   and  CD  
ROOT
ATOM     14  CA  GLU D 570     -18.033  -6.348 -13.375  1.00 32.92     0.160 C 
ENDROOT
BRANCH  14  15
ATOM     15  CB  GLU D 570     -19.500  -6.345 -13.794  1.00 32.92     0.043 C 
BRANCH  15  16
ATOM     16  CG  GLU D 570     -19.797  -6.256 -15.247  1.00 32.92     0.100 C 
BRANCH  16  17
ATOM     17  CD  GLU D 570     -20.832  -7.259 -15.700  1.00 32.92     0.185 C 
ATOM     18  OE1 GLU D 570     -21.844  -6.854 -16.304  1.00 32.92    -0.647 OA
ATOM     19  OE2 GLU D 570     -20.638  -8.461 -15.432  1.00 32.92    -0.647 OA
ENDBRANCH  16  17
ENDBRANCH  15  16
ENDBRANCH  14  15
END_RES GLU D 570
ENDMDL
MODEL 8
REMARK VINA RESULT:      -6.4      1.980      2.982
REMARK  14 active torsions:
REMARK  status: ('A' for Active; 'I' for Inactive)
REMARK    1  A    between atoms: C_2  and  C_3 
REMARK    2  A    between atoms: C_3  and  C_4 
REMARK    3  A    between atoms: C_4  and  C_5 
REMARK    4  A    between atoms: C_5  and  C_6 
REMARK    5  A    between atoms: C_6  and  C_7 
REMARK    6  A    between atoms: C_7  and  C_8 
REMARK    7  A    between atoms: C_8  and  C_9 
REMARK    8  A    between atoms: C_9  and  C_10 
REMARK    9  A    between atoms: C_10  and  C_11 
REMARK   10  A    between atoms: C_11  and  C_12 
REMARK   11  A    between atoms: C_12  and  C_13 
REMARK   12  A    between atoms: C_13  and  C_14 
REMARK   13  A    between atoms: C_14  and  O_16 
REMARK   14  A    between atoms: O_16  and  C_17 
ROOT
HETATM    1  C   UNL     1     -20.681  -5.058  -5.773  1.00  0.00     0.000 C 
ENDROOT
BRANCH   1   2
HETATM    2  C   UNL     1     -20.749  -6.374  -5.011  1.00  0.00     0.000 C 
BRANCH   2   3
HETATM    3  C   UNL     1     -21.841  -6.324  -3.950  1.00  0.00     0.000 C 
BRANCH   3   4
HETATM    4  C   UNL     1     -21.292  -6.763  -2.598  1.00  0.00     0.000 C 
BRANCH   4   5
HETATM    5  C   UNL     1     -22.317  -6.522  -1.497  1.00  0.00     0.000 C 
BRANCH   5   6
HETATM    6  C   UNL     1     -22.037  -7.426  -0.303  1.00  0.00     0.000 C 
BRANCH   6   7
HETATM    7  C   UNL     1     -21.135  -8.586  -0.707  1.00  0.00     0.000 C 
BRANCH   7   8
HETATM    8  C   UNL     1     -21.765  -9.917  -0.311  1.00  0.00    -0.000 C 
BRANCH   8   9
HETATM    9  C   UNL     1     -23.257  -9.758  -0.042  1.00  0.00    -0.005 C 
HETATM   10  C   UNL     1     -24.013 -11.021  -0.415  1.00  0.00     0.005 C 
ENDBRANCH   8   9
ENDBRANCH   7   8
ENDBRANCH   6   7
ENDBRANCH   5   6
ENDBRANCH   4   5
ENDBRANCH   3   4
ENDBRANCH   2   3
ENDBRANCH   1   2
BRANCH   1  11
HETATM   11  C   UNL     1     -19.648  -5.127  -6.896  1.00  0.00     0.000 C 
BRANCH  11  12
HETATM   12  C   UNL     1     -19.917  -4.026  -7.914  1.00  0.00     0.010 C 
BRANCH  12  13
HETATM   13  C   UNL     1     -20.291  -4.574  -9.289  1.00  0.00     0.111 C 
BRANCH  13  14
HETATM   14  C   UNL     1     -21.223  -3.610  -9.985  1.00  0.00     0.259 C 
HETATM   15  O   UNL     1     -20.932  -2.956 -10.980  1.00  0.00    -0.265 OA
BRANCH  14  16
HETATM   16  O   UNL     1     -22.428  -3.563  -9.351  1.00  0.00    -0.317 OA
BRANCH  16  17
HETATM   17  C   UNL     1     -23.567  -3.767 -10.208  1.00  0.00     0.123 C 
HETATM   18  C   UNL     1     -23.778  -5.259 -10.448  1.00  0.00     0.040 C 
HETATM   19  C   UNL     1     -24.787  -3.166  -9.520  1.00  0.00     0.040 C 
ENDBRANCH  16  17
ENDBRANCH  14  16
ENDBRANCH  13  14
ENDBRANCH  12  13
ENDBRANCH  11  12
ENDBRANCH   1  11
TORSDOF 14
BEGIN_RES ARG D 557
REMARK  4 active torsions:
REMARK  status: ('A' for Active; 'I' for Inactive)
REMARK    1  A    between atoms: CA   and  CB  
REMARK    2  A    between atoms: CB   and  CG  
REMARK    3  A    between atoms: CG   and  CD  
REMARK    4  A    between atoms: CD   and  NE  
REMARK       I    between atoms: NE   and  CZ  
REMARK       I    between atoms: CZ   and  NH1 
REMARK       I    between atoms: CZ   and  NH2 
ROOT
ATOM      1  CA  ARG D 557     -26.217   2.705 -17.014  1.00 35.49     0.159 C 
ENDROOT
BRANCH   1   2
ATOM      2  CB  ARG D 557     -26.789   1.319 -17.183  1.00 35.49     0.034 C 
BRANCH   2   3
ATOM      3  CG  ARG D 557     -25.859   0.196 -17.018  1.00 35.49     0.027 C 
BRANCH   3   4
ATOM      4  CD  ARG D 557     -26.246  -0.699 -15.904  1.00 35.49     0.116 C 
BRANCH   4   5
ATOM      5  NE  ARG D 557     -25.198  -0.834 -14.927  1.00 35.49    -0.212 N 
ATOM      6  CZ  ARG D 557     -24.824  -1.955 -14.351  1.00 35.49     0.666 C 
ATOM      7  NH1 ARG D 557     -25.403  -3.113 -14.610  1.00 35.49    -0.235 N 
ATOM      8  NH2 ARG D 557     -23.839  -1.895 -13.503  1.00 35.49    -0.235 N 
ATOM      9  HH  ARG D 557     -26.052  -3.176 -15.166  1.00 35.49     0.174 HD
ATOM     10  HH  ARG D 557     -25.115  -3.811 -14.206  1.00 35.49     0.174 HD
ATOM     11  HH  ARG D 557     -23.478  -1.135 -13.361  1.00 35.49     0.174 HD
ATOM     12  HH  ARG D 557     -23.567  -2.597 -13.115  1.00 35.49     0.174 HD
ATOM     13  HE  ARG D 557     -24.819  -0.126 -14.647  1.00 35.49     0.178 HD
ENDBRANCH   4   5
ENDBRANCH   3   4
ENDBRANCH   2   3
ENDBRANCH   1   2
END_RES ARG D 557
BEGIN_RES GLU D 570
REMARK  3 active torsions:
REMARK  status: ('A' for Active; 'I' for Inactive)
REMARK    5  A    between atoms: CA   and  CB  
REMARK    6  A    between atoms: CB   and  CG  
REMARK    7  A    between atoms: CG   and  CD  
ROOT
ATOM     14  CA  GLU D 570     -18.033  -6.348 -13.375  1.00 32.92     0.160 C 
ENDROOT
BRANCH  14  15
ATOM     15  CB  GLU D 570     -19.500  -6.345 -13.794  1.00 32.92     0.043 C 
BRANCH  15  16
ATOM     16  CG  GLU D 570     -20.405  -5.386 -13.110  1.00 32.92     0.100 C 
BRANCH  16  17
ATOM     17  CD  GLU D 570     -21.556  -4.938 -13.980  1.00 32.92     0.185 C 
ATOM     18  OE1 GLU D 570     -22.615  -4.567 -13.439  1.00 32.92    -0.647 OA
ATOM     19  OE2 GLU D 570     -21.402  -4.974 -15.217  1.00 32.92    -0.647 OA
ENDBRANCH  16  17
ENDBRANCH  15  16
ENDBRANCH  14  15
END_RES GLU D 570
ENDMDL
MODEL 9
REMARK VINA RESULT:      -6.4      3.511      5.729
REMARK  14 active torsions:
REMARK  status: ('A' for Active; 'I' for Inactive)
REMARK    1  A    between atoms: C_2  and  C_3 
REMARK    2  A    between atoms: C_3  and  C_4 
REMARK    3  A    between atoms: C_4  and  C_5 
REMARK    4  A    between atoms: C_5  and  C_6 
REMARK    5  A    between atoms: C_6  and  C_7 
REMARK    6  A    between atoms: C_7  and  C_8 
REMARK    7  A    between atoms: C_8  and  C_9 
REMARK    8  A    between atoms: C_9  and  C_10 
REMARK    9  A    between atoms: C_10  and  C_11 
REMARK   10  A    between atoms: C_11  and  C_12 
REMARK   11  A    between atoms: C_12  and  C_13 
REMARK   12  A    between atoms: C_13  and  C_14 
REMARK   13  A    between atoms: C_14  and  O_16 
REMARK   14  A    between atoms: O_16  and  C_17 
ROOT
HETATM    1  C   UNL     1     -23.166  -4.769 -12.731  1.00  0.00     0.000 C 
ENDROOT
BRANCH   1   2
HETATM    2  C   UNL     1     -21.809  -4.407 -12.143  1.00  0.00     0.000 C 
BRANCH   2   3
HETATM    3  C   UNL     1     -21.935  -3.225 -11.190  1.00  0.00     0.000 C 
BRANCH   3   4
HETATM    4  C   UNL     1     -22.818  -3.588 -10.003  1.00  0.00     0.000 C 
BRANCH   4   5
HETATM    5  C   UNL     1     -22.174  -4.691  -9.171  1.00  0.00     0.000 C 
BRANCH   5   6
HETATM    6  C   UNL     1     -20.892  -4.185  -8.521  1.00  0.00     0.000 C 
BRANCH   6   7
HETATM    7  C   UNL     1     -21.131  -3.847  -7.054  1.00  0.00     0.000 C 
BRANCH   7   8
HETATM    8  C   UNL     1     -20.146  -4.599  -6.164  1.00  0.00    -0.000 C 
BRANCH   8   9
HETATM    9  C   UNL     1     -20.054  -6.065  -6.567  1.00  0.00    -0.005 C 
HETATM   10  C   UNL     1     -20.993  -6.917  -5.733  1.00  0.00     0.005 C 
ENDBRANCH   8   9
ENDBRANCH   7   8
ENDBRANCH   6   7
ENDBRANCH   5   6
ENDBRANCH   4   5
ENDBRANCH   3   4
ENDBRANCH   2   3
ENDBRANCH   1   2
BRANCH   1  11
HETATM   11  C   UNL     1     -23.025  -5.278 -14.164  1.00  0.00     0.000 C 
BRANCH  11  12
HETATM   12  C   UNL     1     -24.046  -6.378 -14.426  1.00  0.00     0.010 C 
BRANCH  12  13
HETATM   13  C   UNL     1     -24.007  -6.888 -15.864  1.00  0.00     0.111 C 
BRANCH  13  14
HETATM   14  C   UNL     1     -25.285  -6.507 -16.573  1.00  0.00     0.259 C 
HETATM   15  O   UNL     1     -25.421  -6.468 -17.791  1.00  0.00    -0.265 OA
BRANCH  14  16
HETATM   16  O   UNL     1     -26.264  -6.208 -15.674  1.00  0.00    -0.317 OA
BRANCH  16  17
HETATM   17  C   UNL     1     -27.196  -5.200 -16.112  1.00  0.00     0.123 C 
HETATM   18  C   UNL     1     -28.611  -5.577 -15.684  1.00  0.00     0.040 C 
HETATM   19  C   UNL     1     -26.787  -3.876 -15.479  1.00  0.00     0.040 C 
ENDBRANCH  16  17
ENDBRANCH  14  16
ENDBRANCH  13  14
ENDBRANCH  12  13
ENDBRANCH  11  12
ENDBRANCH   1  11
TORSDOF 14
BEGIN_RES ARG D 557
REMARK  4 active torsions:
REMARK  status: ('A' for Active; 'I' for Inactive)
REMARK    1  A    between atoms: CA   and  CB  
REMARK    2  A    between atoms: CB   and  CG  
REMARK    3  A    between atoms: CG   and  CD  
REMARK    4  A    between atoms: CD   and  NE  
REMARK       I    between atoms: NE   and  CZ  
REMARK       I    between atoms: CZ   and  NH1 
REMARK       I    between atoms: CZ   and  NH2 
ROOT
ATOM      1  CA  ARG D 557     -26.217   2.705 -17.014  1.00 35.49     0.159 C 
ENDROOT
BRANCH   1   2
ATOM      2  CB  ARG D 557     -26.789   1.319 -17.183  1.00 35.49     0.034 C 
BRANCH   2   3
ATOM      3  CG  ARG D 557     -25.831   0.207 -17.206  1.00 35.49     0.027 C 
BRANCH   3   4
ATOM      4  CD  ARG D 557     -24.703   0.414 -16.269  1.00 35.49     0.116 C 
BRANCH   4   5
ATOM      5  NE  ARG D 557     -24.849  -0.361 -15.065  1.00 35.49    -0.212 N 
ATOM      6  CZ  ARG D 557     -24.058  -1.338 -14.681  1.00 35.49     0.666 C 
ATOM      7  NH1 ARG D 557     -23.019  -1.731 -15.393  1.00 35.49    -0.235 N 
ATOM      8  NH2 ARG D 557     -24.328  -1.919 -13.548  1.00 35.49    -0.235 N 
ATOM      9  HH  ARG D 557     -22.821  -1.362 -16.141  1.00 35.49     0.174 HD
ATOM     10  HH  ARG D 557     -22.537  -2.372 -15.091  1.00 35.49     0.174 HD
ATOM     11  HH  ARG D 557     -25.002  -1.639 -13.105  1.00 35.49     0.174 HD
ATOM     12  HH  ARG D 557     -23.839  -2.550 -13.265  1.00 35.49     0.174 HD
ATOM     13  HE  ARG D 557     -25.535  -0.224 -14.582  1.00 35.49     0.178 HD
ENDBRANCH   4   5
ENDBRANCH   3   4
ENDBRANCH   2   3
ENDBRANCH   1   2
END_RES ARG D 557
BEGIN_RES GLU D 570
REMARK  3 active torsions:
REMARK  status: ('A' for Active; 'I' for Inactive)
REMARK    5  A    between atoms: CA   and  CB  
REMARK    6  A    between atoms: CB   and  CG  
REMARK    7  A    between atoms: CG   and  CD  
ROOT
ATOM     14  CA  GLU D 570     -18.033  -6.348 -13.375  1.00 32.92     0.160 C 
ENDROOT
BRANCH  14  15
ATOM     15  CB  GLU D 570     -19.500  -6.345 -13.794  1.00 32.92     0.043 C 
BRANCH  15  16
ATOM     16  CG  GLU D 570     -20.092  -7.639 -14.223  1.00 32.92     0.100 C 
BRANCH  16  17
ATOM     17  CD  GLU D 570     -20.486  -7.652 -15.681  1.00 32.92     0.185 C 
ATOM     18  OE1 GLU D 570     -20.750  -8.740 -16.227  1.00 32.92    -0.647 OA
ATOM     19  OE2 GLU D 570     -20.513  -6.564 -16.289  1.00 32.92    -0.647 OA
ENDBRANCH  16  17
ENDBRANCH  15  16
ENDBRANCH  14  15
END_RES GLU D 570
ENDMDL
