MODEL 1
REMARK VINA RESULT:      -8.2      0.000      0.000
REMARK  10 active torsions:
REMARK  status: ('A' for Active; 'I' for Inactive)
REMARK    1  A    between atoms: C_2  and  C_3 
REMARK    2  A    between atoms: C_3  and  C_4 
REMARK    3  A    between atoms: C_4  and  C_5 
REMARK    4  A    between atoms: C_5  and  C_6 
REMARK    5  A    between atoms: C_5  and  C_8 
REMARK    6  A    between atoms: C_8  and  O_9 
REMARK    7  A    between atoms: O_9  and  C_10 
REMARK    8  A    between atoms: C_10  and  C_12 
REMARK    9  A    between atoms: C_13  and  C_14 
REMARK   10  A    between atoms: C_17  and  O_20 
ROOT
HETATM    1  C   UNL     1     -23.561  -5.519 -14.449  1.00  0.00     0.282 C 
HETATM    2  O   UNL     1     -23.030  -4.877 -15.339  1.00  0.00    -0.260 OA
ENDROOT
BRANCH   1   3
HETATM    3  O   UNL     1     -24.676  -6.285 -14.558  1.00  0.00    -0.318 OA
BRANCH   3   4
HETATM    4  C   UNL     1     -25.192  -6.439 -15.889  1.00  0.00     0.183 C 
BRANCH   4   5
HETATM    5  C   UNL     1     -26.582  -5.812 -16.096  1.00  0.00     0.010 C 
BRANCH   5   6
HETATM    6  C   UNL     1     -27.712  -6.838 -15.838  1.00  0.00     0.007 C 
BRANCH   6   7
HETATM    7  C   UNL     1     -28.993  -6.512 -16.617  1.00  0.00     0.000 C 
BRANCH   7   8
HETATM    8  C   UNL     1     -28.721  -6.207 -18.089  1.00  0.00    -0.005 C 
HETATM    9  C   UNL     1     -29.316  -4.862 -18.479  1.00  0.00     0.005 C 
ENDBRANCH   7   8
ENDBRANCH   6   7
ENDBRANCH   5   6
BRANCH   5  10
HETATM   10  C   UNL     1     -26.705  -4.514 -15.266  1.00  0.00     0.002 C 
HETATM   11  C   UNL     1     -27.228  -3.302 -16.026  1.00  0.00     0.005 C 
ENDBRANCH   5  10
ENDBRANCH   4   5
ENDBRANCH   3   4
ENDBRANCH   1   3
BRANCH   1  12
HETATM   12  C   UNL     1     -23.153  -5.501 -13.035  1.00  0.00     0.083 C 
HETATM   13  C   UNL     1     -22.388  -4.499 -12.568  1.00  0.00     0.017 C 
BRANCH  13  14
HETATM   14  C   UNL     1     -22.001  -4.338 -11.160  1.00  0.00    -0.036 A 
HETATM   15  C   UNL     1     -20.670  -4.373 -10.732  1.00  0.00     0.014 A 
HETATM   16  C   UNL     1     -20.343  -4.208  -9.379  1.00  0.00     0.037 A 
HETATM   17  C   UNL     1     -21.345  -3.991  -8.435  1.00  0.00     0.068 A 
HETATM   18  C   UNL     1     -22.673  -3.936  -8.855  1.00  0.00     0.037 A 
HETATM   19  C   UNL     1     -23.002  -4.101 -10.206  1.00  0.00     0.014 A 
BRANCH  17  20
HETATM   20  O   UNL     1     -21.154  -3.823  -7.090  1.00  0.00    -0.356 OA
HETATM   21  C   UNL     1     -20.174  -4.653  -6.476  1.00  0.00     0.210 C 
ENDBRANCH  17  20
ENDBRANCH  13  14
ENDBRANCH   1  12
TORSDOF 10
BEGIN_RES ARG D 557
REMARK  4 active torsions:
REMARK  status: ('A' for Active; 'I' for Inactive)
REMARK    1  A    between atoms: CA   and  CB  
REMARK    2  A    between atoms: CB   and  CG  
REMARK    3  A    between atoms: CG   and  CD  
REMARK    4  A    between atoms: CD   and  NE  
REMARK       I    between atoms: NE   and  CZ  
REMARK       I    between atoms: CZ   and  NH1 
REMARK       I    between atoms: CZ   and  NH2 
ROOT
ATOM      1  CA  ARG D 557     -26.217   2.705 -17.014  1.00 35.49     0.159 C 
ENDROOT
BRANCH   1   2
ATOM      2  CB  ARG D 557     -26.789   1.319 -17.183  1.00 35.49     0.034 C 
BRANCH   2   3
ATOM      3  CG  ARG D 557     -25.832   0.206 -17.191  1.00 35.49     0.027 C 
BRANCH   3   4
ATOM      4  CD  ARG D 557     -24.770   0.368 -16.172  1.00 35.49     0.116 C 
BRANCH   4   5
ATOM      5  NE  ARG D 557     -24.989  -0.470 -15.022  1.00 35.49    -0.212 N 
ATOM      6  CZ  ARG D 557     -24.220  -1.464 -14.639  1.00 35.49     0.666 C 
ATOM      7  NH1 ARG D 557     -23.135  -1.819 -15.302  1.00 35.49    -0.235 N 
ATOM      8  NH2 ARG D 557     -24.560  -2.103 -13.557  1.00 35.49    -0.235 N 
ATOM      9  HH  ARG D 557     -22.891  -1.411 -16.016  1.00 35.49     0.174 HD
ATOM     10  HH  ARG D 557     -22.671  -2.474 -15.003  1.00 35.49     0.174 HD
ATOM     11  HH  ARG D 557     -25.262  -1.847 -13.145  1.00 35.49     0.174 HD
ATOM     12  HH  ARG D 557     -24.087  -2.748 -13.276  1.00 35.49     0.174 HD
ATOM     13  HE  ARG D 557     -25.705  -0.358 -14.578  1.00 35.49     0.178 HD
ENDBRANCH   4   5
ENDBRANCH   3   4
ENDBRANCH   2   3
ENDBRANCH   1   2
END_RES ARG D 557
BEGIN_RES GLU D 570
REMARK  3 active torsions:
REMARK  status: ('A' for Active; 'I' for Inactive)
REMARK    5  A    between atoms: CA   and  CB  
REMARK    6  A    between atoms: CB   and  CG  
REMARK    7  A    between atoms: CG   and  CD  
ROOT
ATOM     14  CA  GLU D 570     -18.033  -6.348 -13.375  1.00 32.92     0.160 C 
ENDROOT
BRANCH  14  15
ATOM     15  CB  GLU D 570     -19.500  -6.345 -13.794  1.00 32.92     0.043 C 
BRANCH  15  16
ATOM     16  CG  GLU D 570     -20.094  -7.640 -14.217  1.00 32.92     0.100 C 
BRANCH  16  17
ATOM     17  CD  GLU D 570     -20.670  -7.596 -15.613  1.00 32.92     0.185 C 
ATOM     18  OE1 GLU D 570     -20.478  -6.585 -16.315  1.00 32.92    -0.647 OA
ATOM     19  OE2 GLU D 570     -21.335  -8.576 -16.002  1.00 32.92    -0.647 OA
ENDBRANCH  16  17
ENDBRANCH  15  16
ENDBRANCH  14  15
END_RES GLU D 570
ENDMDL
MODEL 2
REMARK VINA RESULT:      -8.0      3.465      9.549
REMARK  10 active torsions:
REMARK  status: ('A' for Active; 'I' for Inactive)
REMARK    1  A    between atoms: C_2  and  C_3 
REMARK    2  A    between atoms: C_3  and  C_4 
REMARK    3  A    between atoms: C_4  and  C_5 
REMARK    4  A    between atoms: C_5  and  C_6 
REMARK    5  A    between atoms: C_5  and  C_8 
REMARK    6  A    between atoms: C_8  and  O_9 
REMARK    7  A    between atoms: O_9  and  C_10 
REMARK    8  A    between atoms: C_10  and  C_12 
REMARK    9  A    between atoms: C_13  and  C_14 
REMARK   10  A    between atoms: C_17  and  O_20 
ROOT
HETATM    1  C   UNL     1     -20.735  -5.445  -5.547  1.00  0.00     0.282 C 
HETATM    2  O   UNL     1     -20.058  -4.544  -5.084  1.00  0.00    -0.260 OA
ENDROOT
BRANCH   1   3
HETATM    3  O   UNL     1     -21.085  -6.599  -4.924  1.00  0.00    -0.318 OA
BRANCH   3   4
HETATM    4  C   UNL     1     -21.924  -6.447  -3.769  1.00  0.00     0.183 C 
BRANCH   4   5
HETATM    5  C   UNL     1     -21.311  -7.011  -2.475  1.00  0.00     0.010 C 
BRANCH   5   6
HETATM    6  C   UNL     1     -22.195  -6.699  -1.244  1.00  0.00     0.007 C 
BRANCH   6   7
HETATM    7  C   UNL     1     -22.561  -7.958  -0.447  1.00  0.00     0.000 C 
BRANCH   7   8
HETATM    8  C   UNL     1     -22.062  -7.904   0.995  1.00  0.00    -0.005 C 
HETATM    9  C   UNL     1     -21.019  -8.984   1.246  1.00  0.00     0.005 C 
ENDBRANCH   7   8
ENDBRANCH   6   7
ENDBRANCH   5   6
BRANCH   5  10
HETATM   10  C   UNL     1     -20.983  -8.511  -2.655  1.00  0.00     0.002 C 
HETATM   11  C   UNL     1     -19.535  -8.898  -2.382  1.00  0.00     0.005 C 
ENDBRANCH   5  10
ENDBRANCH   4   5
ENDBRANCH   3   4
ENDBRANCH   1   3
BRANCH   1  12
HETATM   12  C   UNL     1     -21.225  -5.506  -6.934  1.00  0.00     0.083 C 
HETATM   13  C   UNL     1     -21.172  -4.413  -7.715  1.00  0.00     0.017 C 
BRANCH  13  14
HETATM   14  C   UNL     1     -21.549  -4.389  -9.135  1.00  0.00    -0.036 A 
HETATM   15  C   UNL     1     -22.857  -4.612  -9.575  1.00  0.00     0.014 A 
HETATM   16  C   UNL     1     -23.176  -4.573 -10.939  1.00  0.00     0.037 A 
HETATM   17  C   UNL     1     -22.191  -4.297 -11.884  1.00  0.00     0.068 A 
HETATM   18  C   UNL     1     -20.887  -4.056 -11.453  1.00  0.00     0.037 A 
HETATM   19  C   UNL     1     -20.566  -4.094 -10.091  1.00  0.00     0.014 A 
BRANCH  17  20
HETATM   20  O   UNL     1     -22.375  -4.239 -13.238  1.00  0.00    -0.356 OA
HETATM   21  C   UNL     1     -23.104  -5.308 -13.830  1.00  0.00     0.210 C 
ENDBRANCH  17  20
ENDBRANCH  13  14
ENDBRANCH   1  12
TORSDOF 10
BEGIN_RES ARG D 557
REMARK  4 active torsions:
REMARK  status: ('A' for Active; 'I' for Inactive)
REMARK    1  A    between atoms: CA   and  CB  
REMARK    2  A    between atoms: CB   and  CG  
REMARK    3  A    between atoms: CG   and  CD  
REMARK    4  A    between atoms: CD   and  NE  
REMARK       I    between atoms: NE   and  CZ  
REMARK       I    between atoms: CZ   and  NH1 
REMARK       I    between atoms: CZ   and  NH2 
ROOT
ATOM      1  CA  ARG D 557     -26.217   2.705 -17.014  1.00 35.49     0.159 C 
ENDROOT
BRANCH   1   2
ATOM      2  CB  ARG D 557     -26.789   1.319 -17.183  1.00 35.49     0.034 C 
BRANCH   2   3
ATOM      3  CG  ARG D 557     -25.834   0.204 -17.175  1.00 35.49     0.027 C 
BRANCH   3   4
ATOM      4  CD  ARG D 557     -24.770   0.380 -16.160  1.00 35.49     0.116 C 
BRANCH   4   5
ATOM      5  NE  ARG D 557     -24.971  -0.466 -15.013  1.00 35.49    -0.212 N 
ATOM      6  CZ  ARG D 557     -24.184  -1.449 -14.636  1.00 35.49     0.666 C 
ATOM      7  NH1 ARG D 557     -23.096  -1.783 -15.306  1.00 35.49    -0.235 N 
ATOM      8  NH2 ARG D 557     -24.509  -2.098 -13.556  1.00 35.49    -0.235 N 
ATOM      9  HH  ARG D 557     -22.862  -1.368 -16.018  1.00 35.49     0.174 HD
ATOM     10  HH  ARG D 557     -22.620  -2.431 -15.011  1.00 35.49     0.174 HD
ATOM     11  HH  ARG D 557     -25.213  -1.856 -13.140  1.00 35.49     0.174 HD
ATOM     12  HH  ARG D 557     -24.024  -2.736 -13.280  1.00 35.49     0.174 HD
ATOM     13  HE  ARG D 557     -25.687  -0.368 -14.565  1.00 35.49     0.178 HD
ENDBRANCH   4   5
ENDBRANCH   3   4
ENDBRANCH   2   3
ENDBRANCH   1   2
END_RES ARG D 557
BEGIN_RES GLU D 570
REMARK  3 active torsions:
REMARK  status: ('A' for Active; 'I' for Inactive)
REMARK    5  A    between atoms: CA   and  CB  
REMARK    6  A    between atoms: CB   and  CG  
REMARK    7  A    between atoms: CG   and  CD  
ROOT
ATOM     14  CA  GLU D 570     -18.033  -6.348 -13.375  1.00 32.92     0.160 C 
ENDROOT
BRANCH  14  15
ATOM     15  CB  GLU D 570     -19.500  -6.345 -13.794  1.00 32.92     0.043 C 
BRANCH  15  16
ATOM     16  CG  GLU D 570     -20.068  -7.618 -14.308  1.00 32.92     0.100 C 
BRANCH  16  17
ATOM     17  CD  GLU D 570     -20.749  -7.461 -15.647  1.00 32.92     0.185 C 
ATOM     18  OE1 GLU D 570     -21.516  -8.359 -16.045  1.00 32.92    -0.647 OA
ATOM     19  OE2 GLU D 570     -20.500  -6.437 -16.314  1.00 32.92    -0.647 OA
ENDBRANCH  16  17
ENDBRANCH  15  16
ENDBRANCH  14  15
END_RES GLU D 570
ENDMDL
MODEL 3
REMARK VINA RESULT:      -7.8      1.218      1.961
REMARK  10 active torsions:
REMARK  status: ('A' for Active; 'I' for Inactive)
REMARK    1  A    between atoms: C_2  and  C_3 
REMARK    2  A    between atoms: C_3  and  C_4 
REMARK    3  A    between atoms: C_4  and  C_5 
REMARK    4  A    between atoms: C_5  and  C_6 
REMARK    5  A    between atoms: C_5  and  C_8 
REMARK    6  A    between atoms: C_8  and  O_9 
REMARK    7  A    between atoms: O_9  and  C_10 
REMARK    8  A    between atoms: C_10  and  C_12 
REMARK    9  A    between atoms: C_13  and  C_14 
REMARK   10  A    between atoms: C_17  and  O_20 
ROOT
HETATM    1  C   UNL     1     -22.855  -4.520 -14.667  1.00  0.00     0.282 C 
HETATM    2  O   UNL     1     -22.176  -3.824 -15.402  1.00  0.00    -0.260 OA
ENDROOT
BRANCH   1   3
HETATM    3  O   UNL     1     -24.032  -5.119 -14.978  1.00  0.00    -0.318 OA
BRANCH   3   4
HETATM    4  C   UNL     1     -24.022  -6.555 -14.947  1.00  0.00     0.183 C 
BRANCH   4   5
HETATM    5  C   UNL     1     -24.775  -7.209 -16.119  1.00  0.00     0.010 C 
BRANCH   5   6
HETATM    6  C   UNL     1     -26.113  -6.488 -16.409  1.00  0.00     0.007 C 
BRANCH   6   7
HETATM    7  C   UNL     1     -27.307  -7.161 -15.720  1.00  0.00     0.000 C 
BRANCH   7   8
HETATM    8  C   UNL     1     -28.623  -6.908 -16.451  1.00  0.00    -0.005 C 
HETATM    9  C   UNL     1     -28.379  -6.174 -17.762  1.00  0.00     0.005 C 
ENDBRANCH   7   8
ENDBRANCH   6   7
ENDBRANCH   5   6
BRANCH   5  10
HETATM   10  C   UNL     1     -23.842  -7.328 -17.346  1.00  0.00     0.002 C 
HETATM   11  C   UNL     1     -24.494  -7.036 -18.691  1.00  0.00     0.005 C 
ENDBRANCH   5  10
ENDBRANCH   4   5
ENDBRANCH   3   4
ENDBRANCH   1   3
BRANCH   1  12
HETATM   12  C   UNL     1     -22.579  -4.764 -13.242  1.00  0.00     0.083 C 
HETATM   13  C   UNL     1     -21.990  -3.811 -12.499  1.00  0.00     0.017 C 
BRANCH  13  14
HETATM   14  C   UNL     1     -21.752  -3.917 -11.052  1.00  0.00    -0.036 A 
HETATM   15  C   UNL     1     -20.490  -4.172 -10.509  1.00  0.00     0.014 A 
HETATM   16  C   UNL     1     -20.305  -4.258  -9.122  1.00  0.00     0.037 A 
HETATM   17  C   UNL     1     -21.381  -4.075  -8.257  1.00  0.00     0.068 A 
HETATM   18  C   UNL     1     -22.641  -3.802  -8.789  1.00  0.00     0.037 A 
HETATM   19  C   UNL     1     -22.827  -3.716 -10.174  1.00  0.00     0.014 A 
BRANCH  17  20
HETATM   20  O   UNL     1     -21.330  -4.141  -6.891  1.00  0.00    -0.356 OA
HETATM   21  C   UNL     1     -20.474  -5.131  -6.332  1.00  0.00     0.210 C 
ENDBRANCH  17  20
ENDBRANCH  13  14
ENDBRANCH   1  12
TORSDOF 10
BEGIN_RES ARG D 557
REMARK  4 active torsions:
REMARK  status: ('A' for Active; 'I' for Inactive)
REMARK    1  A    between atoms: CA   and  CB  
REMARK    2  A    between atoms: CB   and  CG  
REMARK    3  A    between atoms: CG   and  CD  
REMARK    4  A    between atoms: CD   and  NE  
REMARK       I    between atoms: NE   and  CZ  
REMARK       I    between atoms: CZ   and  NH1 
REMARK       I    between atoms: CZ   and  NH2 
ROOT
ATOM      1  CA  ARG D 557     -26.217   2.705 -17.014  1.00 35.49     0.159 C 
ENDROOT
BRANCH   1   2
ATOM      2  CB  ARG D 557     -26.789   1.319 -17.183  1.00 35.49     0.034 C 
BRANCH   2   3
ATOM      3  CG  ARG D 557     -25.947   0.199 -16.745  1.00 35.49     0.027 C 
BRANCH   3   4
ATOM      4  CD  ARG D 557     -26.741  -0.921 -16.190  1.00 35.49     0.116 C 
BRANCH   4   5
ATOM      5  NE  ARG D 557     -26.192  -1.416 -14.956  1.00 35.49    -0.212 N 
ATOM      6  CZ  ARG D 557     -26.202  -2.668 -14.558  1.00 35.49     0.666 C 
ATOM      7  NH1 ARG D 557     -26.751  -3.634 -15.271  1.00 35.49    -0.235 N 
ATOM      8  NH2 ARG D 557     -25.637  -2.941 -13.418  1.00 35.49    -0.235 N 
ATOM      9  HH  ARG D 557     -27.126  -3.478 -16.025  1.00 35.49     0.174 HD
ATOM     10  HH  ARG D 557     -26.725  -4.433 -14.962  1.00 35.49     0.174 HD
ATOM     11  HH  ARG D 557     -25.284  -2.298 -12.982  1.00 35.49     0.174 HD
ATOM     12  HH  ARG D 557     -25.620  -3.738 -13.130  1.00 35.49     0.174 HD
ATOM     13  HE  ARG D 557     -25.882  -0.850 -14.401  1.00 35.49     0.178 HD
ENDBRANCH   4   5
ENDBRANCH   3   4
ENDBRANCH   2   3
ENDBRANCH   1   2
END_RES ARG D 557
BEGIN_RES GLU D 570
REMARK  3 active torsions:
REMARK  status: ('A' for Active; 'I' for Inactive)
REMARK    5  A    between atoms: CA   and  CB  
REMARK    6  A    between atoms: CB   and  CG  
REMARK    7  A    between atoms: CG   and  CD  
ROOT
ATOM     14  CA  GLU D 570     -18.033  -6.348 -13.375  1.00 32.92     0.160 C 
ENDROOT
BRANCH  14  15
ATOM     15  CB  GLU D 570     -19.500  -6.345 -13.794  1.00 32.92     0.043 C 
BRANCH  15  16
ATOM     16  CG  GLU D 570     -20.098  -7.643 -14.201  1.00 32.92     0.100 C 
BRANCH  16  17
ATOM     17  CD  GLU D 570     -20.518  -7.668 -15.653  1.00 32.92     0.185 C 
ATOM     18  OE1 GLU D 570     -20.784  -8.762 -16.186  1.00 32.92    -0.647 OA
ATOM     19  OE2 GLU D 570     -20.565  -6.584 -16.267  1.00 32.92    -0.647 OA
ENDBRANCH  16  17
ENDBRANCH  15  16
ENDBRANCH  14  15
END_RES GLU D 570
ENDMDL
MODEL 4
REMARK VINA RESULT:      -7.8      3.766      9.398
REMARK  10 active torsions:
REMARK  status: ('A' for Active; 'I' for Inactive)
REMARK    1  A    between atoms: C_2  and  C_3 
REMARK    2  A    between atoms: C_3  and  C_4 
REMARK    3  A    between atoms: C_4  and  C_5 
REMARK    4  A    between atoms: C_5  and  C_6 
REMARK    5  A    between atoms: C_5  and  C_8 
REMARK    6  A    between atoms: C_8  and  O_9 
REMARK    7  A    between atoms: O_9  and  C_10 
REMARK    8  A    between atoms: C_10  and  C_12 
REMARK    9  A    between atoms: C_13  and  C_14 
REMARK   10  A    between atoms: C_17  and  O_20 
ROOT
HETATM    1  C   UNL     1     -21.004  -5.883  -6.104  1.00  0.00     0.282 C 
HETATM    2  O   UNL     1     -20.181  -6.750  -6.347  1.00  0.00    -0.260 OA
ENDROOT
BRANCH   1   3
HETATM    3  O   UNL     1     -21.403  -5.467  -4.876  1.00  0.00    -0.318 OA
BRANCH   3   4
HETATM    4  C   UNL     1     -22.028  -6.469  -4.058  1.00  0.00     0.183 C 
BRANCH   4   5
HETATM    5  C   UNL     1     -21.314  -6.712  -2.716  1.00  0.00     0.010 C 
BRANCH   5   6
HETATM    6  C   UNL     1     -22.272  -6.510  -1.518  1.00  0.00     0.007 C 
BRANCH   6   7
HETATM    7  C   UNL     1     -21.944  -7.434  -0.338  1.00  0.00     0.000 C 
BRANCH   7   8
HETATM    8  C   UNL     1     -23.189  -8.087   0.258  1.00  0.00    -0.005 C 
HETATM    9  C   UNL     1     -23.223  -9.575  -0.060  1.00  0.00     0.005 C 
ENDBRANCH   7   8
ENDBRANCH   6   7
ENDBRANCH   5   6
BRANCH   5  10
HETATM   10  C   UNL     1     -20.606  -8.086  -2.736  1.00  0.00     0.002 C 
HETATM   11  C   UNL     1     -21.137  -9.078  -3.763  1.00  0.00     0.005 C 
ENDBRANCH   5  10
ENDBRANCH   4   5
ENDBRANCH   3   4
ENDBRANCH   1   3
BRANCH   1  12
HETATM   12  C   UNL     1     -21.816  -5.183  -7.113  1.00  0.00     0.083 C 
HETATM   13  C   UNL     1     -21.302  -4.921  -8.326  1.00  0.00     0.017 C 
BRANCH  13  14
HETATM   14  C   UNL     1     -22.054  -4.310  -9.431  1.00  0.00    -0.036 A 
HETATM   15  C   UNL     1     -23.389  -3.913  -9.310  1.00  0.00     0.014 A 
HETATM   16  C   UNL     1     -24.068  -3.327 -10.387  1.00  0.00     0.037 A 
HETATM   17  C   UNL     1     -23.415  -3.117 -11.600  1.00  0.00     0.068 A 
HETATM   18  C   UNL     1     -22.079  -3.493 -11.724  1.00  0.00     0.037 A 
HETATM   19  C   UNL     1     -21.398  -4.079 -10.649  1.00  0.00     0.014 A 
BRANCH  17  20
HETATM   20  O   UNL     1     -23.970  -2.563 -12.721  1.00  0.00    -0.356 OA
HETATM   21  C   UNL     1     -23.216  -2.663 -13.923  1.00  0.00     0.210 C 
ENDBRANCH  17  20
ENDBRANCH  13  14
ENDBRANCH   1  12
TORSDOF 10
BEGIN_RES ARG D 557
REMARK  4 active torsions:
REMARK  status: ('A' for Active; 'I' for Inactive)
REMARK    1  A    between atoms: CA   and  CB  
REMARK    2  A    between atoms: CB   and  CG  
REMARK    3  A    between atoms: CG   and  CD  
REMARK    4  A    between atoms: CD   and  NE  
REMARK       I    between atoms: NE   and  CZ  
REMARK       I    between atoms: CZ   and  NH1 
REMARK       I    between atoms: CZ   and  NH2 
ROOT
ATOM      1  CA  ARG D 557     -26.217   2.705 -17.014  1.00 35.49     0.159 C 
ENDROOT
BRANCH   1   2
ATOM      2  CB  ARG D 557     -26.789   1.319 -17.183  1.00 35.49     0.034 C 
BRANCH   2   3
ATOM      3  CG  ARG D 557     -28.230   1.227 -17.448  1.00 35.49     0.027 C 
BRANCH   3   4
ATOM      4  CD  ARG D 557     -28.904   0.246 -16.568  1.00 35.49     0.116 C 
BRANCH   4   5
ATOM      5  NE  ARG D 557     -28.031  -0.834 -16.189  1.00 35.49    -0.212 N 
ATOM      6  CZ  ARG D 557     -28.135  -2.082 -16.588  1.00 35.49     0.666 C 
ATOM      7  NH1 ARG D 557     -29.097  -2.491 -17.394  1.00 35.49    -0.235 N 
ATOM      8  NH2 ARG D 557     -27.241  -2.925 -16.161  1.00 35.49    -0.235 N 
ATOM      9  HH  ARG D 557     -29.695  -1.952 -17.689  1.00 35.49     0.174 HD
ATOM     10  HH  ARG D 557     -29.113  -3.316 -17.623  1.00 35.49     0.174 HD
ATOM     11  HH  ARG D 557     -26.627  -2.631 -15.647  1.00 35.49     0.174 HD
ATOM     12  HH  ARG D 557     -27.273  -3.738 -16.399  1.00 35.49     0.174 HD
ATOM     13  HE  ARG D 557     -27.426  -0.675 -15.614  1.00 35.49     0.178 HD
ENDBRANCH   4   5
ENDBRANCH   3   4
ENDBRANCH   2   3
ENDBRANCH   1   2
END_RES ARG D 557
BEGIN_RES GLU D 570
REMARK  3 active torsions:
REMARK  status: ('A' for Active; 'I' for Inactive)
REMARK    5  A    between atoms: CA   and  CB  
REMARK    6  A    between atoms: CB   and  CG  
REMARK    7  A    between atoms: CG   and  CD  
ROOT
ATOM     14  CA  GLU D 570     -18.033  -6.348 -13.375  1.00 32.92     0.160 C 
ENDROOT
BRANCH  14  15
ATOM     15  CB  GLU D 570     -19.500  -6.345 -13.794  1.00 32.92     0.043 C 
BRANCH  15  16
ATOM     16  CG  GLU D 570     -19.812  -5.943 -15.190  1.00 32.92     0.100 C 
BRANCH  16  17
ATOM     17  CD  GLU D 570     -21.264  -5.570 -15.385  1.00 32.92     0.185 C 
ATOM     18  OE1 GLU D 570     -22.106  -5.964 -14.556  1.00 32.92    -0.647 OA
ATOM     19  OE2 GLU D 570     -21.563  -4.890 -16.386  1.00 32.92    -0.647 OA
ENDBRANCH  16  17
ENDBRANCH  15  16
ENDBRANCH  14  15
END_RES GLU D 570
ENDMDL
MODEL 5
REMARK VINA RESULT:      -7.8      1.417      2.160
REMARK  10 active torsions:
REMARK  status: ('A' for Active; 'I' for Inactive)
REMARK    1  A    between atoms: C_2  and  C_3 
REMARK    2  A    between atoms: C_3  and  C_4 
REMARK    3  A    between atoms: C_4  and  C_5 
REMARK    4  A    between atoms: C_5  and  C_6 
REMARK    5  A    between atoms: C_5  and  C_8 
REMARK    6  A    between atoms: C_8  and  O_9 
REMARK    7  A    between atoms: O_9  and  C_10 
REMARK    8  A    between atoms: C_10  and  C_12 
REMARK    9  A    between atoms: C_13  and  C_14 
REMARK   10  A    between atoms: C_17  and  O_20 
ROOT
HETATM    1  C   UNL     1     -23.504  -5.543 -14.218  1.00  0.00     0.282 C 
HETATM    2  O   UNL     1     -23.116  -4.750 -15.058  1.00  0.00    -0.260 OA
ENDROOT
BRANCH   1   3
HETATM    3  O   UNL     1     -24.326  -6.603 -14.423  1.00  0.00    -0.318 OA
BRANCH   3   4
HETATM    4  C   UNL     1     -24.524  -6.974 -15.796  1.00  0.00     0.183 C 
BRANCH   4   5
HETATM    5  C   UNL     1     -25.832  -6.437 -16.405  1.00  0.00     0.010 C 
BRANCH   5   6
HETATM    6  C   UNL     1     -25.840  -6.576 -17.946  1.00  0.00     0.007 C 
BRANCH   6   7
HETATM    7  C   UNL     1     -24.480  -7.013 -18.506  1.00  0.00     0.000 C 
BRANCH   7   8
HETATM    8  C   UNL     1     -24.552  -7.398 -19.982  1.00  0.00    -0.005 C 
HETATM    9  C   UNL     1     -25.906  -7.029 -20.570  1.00  0.00     0.005 C 
ENDBRANCH   7   8
ENDBRANCH   6   7
ENDBRANCH   5   6
BRANCH   5  10
HETATM   10  C   UNL     1     -27.047  -7.087 -15.704  1.00  0.00     0.002 C 
HETATM   11  C   UNL     1     -28.324  -6.255 -15.710  1.00  0.00     0.005 C 
ENDBRANCH   5  10
ENDBRANCH   4   5
ENDBRANCH   3   4
ENDBRANCH   1   3
BRANCH   1  12
HETATM   12  C   UNL     1     -23.239  -5.441 -12.773  1.00  0.00     0.083 C 
HETATM   13  C   UNL     1     -22.274  -4.621 -12.323  1.00  0.00     0.017 C 
BRANCH  13  14
HETATM   14  C   UNL     1     -21.989  -4.378 -10.902  1.00  0.00    -0.036 A 
HETATM   15  C   UNL     1     -22.995  -4.196  -9.948  1.00  0.00     0.014 A 
HETATM   16  C   UNL     1     -22.681  -3.973  -8.601  1.00  0.00     0.037 A 
HETATM   17  C   UNL     1     -21.351  -3.943  -8.185  1.00  0.00     0.068 A 
HETATM   18  C   UNL     1     -20.342  -4.142  -9.125  1.00  0.00     0.037 A 
HETATM   19  C   UNL     1     -20.654  -4.364 -10.472  1.00  0.00     0.014 A 
BRANCH  17  20
HETATM   20  O   UNL     1     -20.918  -3.729  -6.905  1.00  0.00    -0.356 OA
HETATM   21  C   UNL     1     -20.121  -4.751  -6.320  1.00  0.00     0.210 C 
ENDBRANCH  17  20
ENDBRANCH  13  14
ENDBRANCH   1  12
TORSDOF 10
BEGIN_RES ARG D 557
REMARK  4 active torsions:
REMARK  status: ('A' for Active; 'I' for Inactive)
REMARK    1  A    between atoms: CA   and  CB  
REMARK    2  A    between atoms: CB   and  CG  
REMARK    3  A    between atoms: CG   and  CD  
REMARK    4  A    between atoms: CD   and  NE  
REMARK       I    between atoms: NE   and  CZ  
REMARK       I    between atoms: CZ   and  NH1 
REMARK       I    between atoms: CZ   and  NH2 
ROOT
ATOM      1  CA  ARG D 557     -26.217   2.705 -17.014  1.00 35.49     0.159 C 
ENDROOT
BRANCH   1   2
ATOM      2  CB  ARG D 557     -26.789   1.319 -17.183  1.00 35.49     0.034 C 
BRANCH   2   3
ATOM      3  CG  ARG D 557     -25.863   0.195 -16.998  1.00 35.49     0.027 C 
BRANCH   3   4
ATOM      4  CD  ARG D 557     -26.309  -0.735 -15.936  1.00 35.49     0.116 C 
BRANCH   4   5
ATOM      5  NE  ARG D 557     -25.293  -0.946 -14.939  1.00 35.49    -0.212 N 
ATOM      6  CZ  ARG D 557     -25.087  -2.063 -14.277  1.00 35.49     0.666 C 
ATOM      7  NH1 ARG D 557     -25.828  -3.141 -14.456  1.00 35.49    -0.235 N 
ATOM      8  NH2 ARG D 557     -24.104  -2.082 -13.424  1.00 35.49    -0.235 N 
ATOM      9  HH  ARG D 557     -26.478  -3.151 -15.014  1.00 35.49     0.174 HD
ATOM     10  HH  ARG D 557     -25.645  -3.841 -13.998  1.00 35.49     0.174 HD
ATOM     11  HH  ARG D 557     -23.638  -1.374 -13.334  1.00 35.49     0.174 HD
ATOM     12  HH  ARG D 557     -23.938  -2.786 -12.981  1.00 35.49     0.174 HD
ATOM     13  HE  ARG D 557     -24.815  -0.282 -14.708  1.00 35.49     0.178 HD
ENDBRANCH   4   5
ENDBRANCH   3   4
ENDBRANCH   2   3
ENDBRANCH   1   2
END_RES ARG D 557
BEGIN_RES GLU D 570
REMARK  3 active torsions:
REMARK  status: ('A' for Active; 'I' for Inactive)
REMARK    5  A    between atoms: CA   and  CB  
REMARK    6  A    between atoms: CB   and  CG  
REMARK    7  A    between atoms: CG   and  CD  
ROOT
ATOM     14  CA  GLU D 570     -18.033  -6.348 -13.375  1.00 32.92     0.160 C 
ENDROOT
BRANCH  14  15
ATOM     15  CB  GLU D 570     -19.500  -6.345 -13.794  1.00 32.92     0.043 C 
BRANCH  15  16
ATOM     16  CG  GLU D 570     -19.801  -6.110 -15.230  1.00 32.92     0.100 C 
BRANCH  16  17
ATOM     17  CD  GLU D 570     -20.635  -7.209 -15.845  1.00 32.92     0.185 C 
ATOM     18  OE1 GLU D 570     -20.675  -8.323 -15.287  1.00 32.92    -0.647 OA
ATOM     19  OE2 GLU D 570     -21.240  -6.960 -16.906  1.00 32.92    -0.647 OA
ENDBRANCH  16  17
ENDBRANCH  15  16
ENDBRANCH  14  15
END_RES GLU D 570
ENDMDL
MODEL 6
REMARK VINA RESULT:      -7.7      3.920      9.461
REMARK  10 active torsions:
REMARK  status: ('A' for Active; 'I' for Inactive)
REMARK    1  A    between atoms: C_2  and  C_3 
REMARK    2  A    between atoms: C_3  and  C_4 
REMARK    3  A    between atoms: C_4  and  C_5 
REMARK    4  A    between atoms: C_5  and  C_6 
REMARK    5  A    between atoms: C_5  and  C_8 
REMARK    6  A    between atoms: C_8  and  O_9 
REMARK    7  A    between atoms: O_9  and  C_10 
REMARK    8  A    between atoms: C_10  and  C_12 
REMARK    9  A    between atoms: C_13  and  C_14 
REMARK   10  A    between atoms: C_17  and  O_20 
ROOT
HETATM    1  C   UNL     1     -21.142  -6.274  -5.135  1.00  0.00     0.282 C 
HETATM    2  O   UNL     1     -20.199  -7.044  -5.157  1.00  0.00    -0.260 OA
ENDROOT
BRANCH   1   3
HETATM    3  O   UNL     1     -22.018  -6.094  -4.113  1.00  0.00    -0.318 OA
BRANCH   3   4
HETATM    4  C   UNL     1     -21.438  -6.084  -2.799  1.00  0.00     0.183 C 
BRANCH   4   5
HETATM    5  C   UNL     1     -21.690  -7.373  -1.996  1.00  0.00     0.010 C 
BRANCH   5   6
HETATM    6  C   UNL     1     -20.387  -8.186  -1.804  1.00  0.00     0.007 C 
BRANCH   6   7
HETATM    7  C   UNL     1     -20.482  -9.599  -2.393  1.00  0.00     0.000 C 
BRANCH   7   8
HETATM    8  C   UNL     1     -21.665  -9.758  -3.346  1.00  0.00    -0.005 C 
HETATM    9  C   UNL     1     -22.553 -10.917  -2.914  1.00  0.00     0.005 C 
ENDBRANCH   7   8
ENDBRANCH   6   7
ENDBRANCH   5   6
BRANCH   5  10
HETATM   10  C   UNL     1     -22.428  -7.041  -0.680  1.00  0.00     0.002 C 
HETATM   11  C   UNL     1     -22.088  -7.939   0.502  1.00  0.00     0.005 C 
ENDBRANCH   5  10
ENDBRANCH   4   5
ENDBRANCH   3   4
ENDBRANCH   1   3
BRANCH   1  12
HETATM   12  C   UNL     1     -21.590  -5.452  -6.271  1.00  0.00     0.083 C 
HETATM   13  C   UNL     1     -20.887  -5.449  -7.417  1.00  0.00     0.017 C 
BRANCH  13  14
HETATM   14  C   UNL     1     -21.292  -4.738  -8.637  1.00  0.00    -0.036 A 
HETATM   15  C   UNL     1     -22.597  -4.282  -8.849  1.00  0.00     0.014 A 
HETATM   16  C   UNL     1     -22.941  -3.601 -10.025  1.00  0.00     0.037 A 
HETATM   17  C   UNL     1     -21.978  -3.353 -11.001  1.00  0.00     0.068 A 
HETATM   18  C   UNL     1     -20.671  -3.789 -10.790  1.00  0.00     0.037 A 
HETATM   19  C   UNL     1     -20.325  -4.469  -9.616  1.00  0.00     0.014 A 
BRANCH  17  20
HETATM   20  O   UNL     1     -22.192  -2.708 -12.189  1.00  0.00    -0.356 OA
HETATM   21  C   UNL     1     -23.522  -2.721 -12.692  1.00  0.00     0.210 C 
ENDBRANCH  17  20
ENDBRANCH  13  14
ENDBRANCH   1  12
TORSDOF 10
BEGIN_RES ARG D 557
REMARK  4 active torsions:
REMARK  status: ('A' for Active; 'I' for Inactive)
REMARK    1  A    between atoms: CA   and  CB  
REMARK    2  A    between atoms: CB   and  CG  
REMARK    3  A    between atoms: CG   and  CD  
REMARK    4  A    between atoms: CD   and  NE  
REMARK       I    between atoms: NE   and  CZ  
REMARK       I    between atoms: CZ   and  NH1 
REMARK       I    between atoms: CZ   and  NH2 
ROOT
ATOM      1  CA  ARG D 557     -26.217   2.705 -17.014  1.00 35.49     0.159 C 
ENDROOT
BRANCH   1   2
ATOM      2  CB  ARG D 557     -26.789   1.319 -17.183  1.00 35.49     0.034 C 
BRANCH   2   3
ATOM      3  CG  ARG D 557     -28.232   1.226 -17.435  1.00 35.49     0.027 C 
BRANCH   3   4
ATOM      4  CD  ARG D 557     -28.911   0.303 -16.497  1.00 35.49     0.116 C 
BRANCH   4   5
ATOM      5  NE  ARG D 557     -29.299  -0.928 -17.133  1.00 35.49    -0.212 N 
ATOM      6  CZ  ARG D 557     -28.668  -2.077 -17.034  1.00 35.49     0.666 C 
ATOM      7  NH1 ARG D 557     -27.564  -2.220 -16.325  1.00 35.49    -0.235 N 
ATOM      8  NH2 ARG D 557     -29.176  -3.097 -17.663  1.00 35.49    -0.235 N 
ATOM      9  HH  ARG D 557     -27.213  -1.563 -15.902  1.00 35.49     0.174 HD
ATOM     10  HH  ARG D 557     -27.197  -2.994 -16.295  1.00 35.49     0.174 HD
ATOM     11  HH  ARG D 557     -29.894  -2.976 -18.107  1.00 35.49     0.174 HD
ATOM     12  HH  ARG D 557     -28.799  -3.855 -17.620  1.00 35.49     0.174 HD
ATOM     13  HE  ARG D 557     -29.960  -0.910 -17.668  1.00 35.49     0.178 HD
ENDBRANCH   4   5
ENDBRANCH   3   4
ENDBRANCH   2   3
ENDBRANCH   1   2
END_RES ARG D 557
BEGIN_RES GLU D 570
REMARK  3 active torsions:
REMARK  status: ('A' for Active; 'I' for Inactive)
REMARK    5  A    between atoms: CA   and  CB  
REMARK    6  A    between atoms: CB   and  CG  
REMARK    7  A    between atoms: CG   and  CD  
ROOT
ATOM     14  CA  GLU D 570     -18.033  -6.348 -13.375  1.00 32.92     0.160 C 
ENDROOT
BRANCH  14  15
ATOM     15  CB  GLU D 570     -19.500  -6.345 -13.794  1.00 32.92     0.043 C 
BRANCH  15  16
ATOM     16  CG  GLU D 570     -20.112  -7.650 -14.154  1.00 32.92     0.100 C 
BRANCH  16  17
ATOM     17  CD  GLU D 570     -20.682  -7.668 -15.553  1.00 32.92     0.185 C 
ATOM     18  OE1 GLU D 570     -21.173  -6.623 -16.020  1.00 32.92    -0.647 OA
ATOM     19  OE2 GLU D 570     -20.653  -8.744 -16.182  1.00 32.92    -0.647 OA
ENDBRANCH  16  17
ENDBRANCH  15  16
ENDBRANCH  14  15
END_RES GLU D 570
ENDMDL
MODEL 7
REMARK VINA RESULT:      -7.6      3.898      7.419
REMARK  10 active torsions:
REMARK  status: ('A' for Active; 'I' for Inactive)
REMARK    1  A    between atoms: C_2  and  C_3 
REMARK    2  A    between atoms: C_3  and  C_4 
REMARK    3  A    between atoms: C_4  and  C_5 
REMARK    4  A    between atoms: C_5  and  C_6 
REMARK    5  A    between atoms: C_5  and  C_8 
REMARK    6  A    between atoms: C_8  and  O_9 
REMARK    7  A    between atoms: O_9  and  C_10 
REMARK    8  A    between atoms: C_10  and  C_12 
REMARK    9  A    between atoms: C_13  and  C_14 
REMARK   10  A    between atoms: C_17  and  O_20 
ROOT
HETATM    1  C   UNL     1     -20.237  -5.085  -6.446  1.00  0.00     0.282 C 
HETATM    2  O   UNL     1     -19.153  -4.669  -6.816  1.00  0.00    -0.260 OA
ENDROOT
BRANCH   1   3
HETATM    3  O   UNL     1     -21.344  -5.253  -7.212  1.00  0.00    -0.318 OA
BRANCH   3   4
HETATM    4  C   UNL     1     -22.105  -4.062  -7.467  1.00  0.00     0.183 C 
BRANCH   4   5
HETATM    5  C   UNL     1     -22.362  -3.795  -8.961  1.00  0.00     0.010 C 
BRANCH   5   6
HETATM    6  C   UNL     1     -21.194  -4.305  -9.839  1.00  0.00     0.007 C 
BRANCH   6   7
HETATM    7  C   UNL     1     -21.543  -4.324 -11.333  1.00  0.00     0.000 C 
BRANCH   7   8
HETATM    8  C   UNL     1     -21.809  -2.927 -11.889  1.00  0.00    -0.005 C 
HETATM    9  C   UNL     1     -22.837  -2.980 -13.011  1.00  0.00     0.005 C 
ENDBRANCH   7   8
ENDBRANCH   6   7
ENDBRANCH   5   6
BRANCH   5  10
HETATM   10  C   UNL     1     -23.747  -4.350  -9.367  1.00  0.00     0.002 C 
HETATM   11  C   UNL     1     -24.803  -3.298  -9.681  1.00  0.00     0.005 C 
ENDBRANCH   5  10
ENDBRANCH   4   5
ENDBRANCH   3   4
ENDBRANCH   1   3
BRANCH   1  12
HETATM   12  C   UNL     1     -20.594  -5.389  -5.050  1.00  0.00     0.083 C 
HETATM   13  C   UNL     1     -21.145  -6.575  -4.741  1.00  0.00     0.017 C 
BRANCH  13  14
HETATM   14  C   UNL     1     -21.455  -7.014  -3.373  1.00  0.00    -0.036 A 
HETATM   15  C   UNL     1     -22.012  -6.163  -2.413  1.00  0.00     0.014 A 
HETATM   16  C   UNL     1     -22.299  -6.624  -1.121  1.00  0.00     0.037 A 
HETATM   17  C   UNL     1     -22.045  -7.949  -0.774  1.00  0.00     0.068 A 
HETATM   18  C   UNL     1     -21.506  -8.809  -1.729  1.00  0.00     0.037 A 
HETATM   19  C   UNL     1     -21.218  -8.351  -3.021  1.00  0.00     0.014 A 
BRANCH  17  20
HETATM   20  O   UNL     1     -22.274  -8.512   0.452  1.00  0.00    -0.356 OA
HETATM   21  C   UNL     1     -21.156  -8.615   1.326  1.00  0.00     0.210 C 
ENDBRANCH  17  20
ENDBRANCH  13  14
ENDBRANCH   1  12
TORSDOF 10
BEGIN_RES ARG D 557
REMARK  4 active torsions:
REMARK  status: ('A' for Active; 'I' for Inactive)
REMARK    1  A    between atoms: CA   and  CB  
REMARK    2  A    between atoms: CB   and  CG  
REMARK    3  A    between atoms: CG   and  CD  
REMARK    4  A    between atoms: CD   and  NE  
REMARK       I    between atoms: NE   and  CZ  
REMARK       I    between atoms: CZ   and  NH1 
REMARK       I    between atoms: CZ   and  NH2 
ROOT
ATOM      1  CA  ARG D 557     -26.217   2.705 -17.014  1.00 35.49     0.159 C 
ENDROOT
BRANCH   1   2
ATOM      2  CB  ARG D 557     -26.789   1.319 -17.183  1.00 35.49     0.034 C 
BRANCH   2   3
ATOM      3  CG  ARG D 557     -28.228   1.227 -17.456  1.00 35.49     0.027 C 
BRANCH   3   4
ATOM      4  CD  ARG D 557     -28.922   0.309 -16.524  1.00 35.49     0.116 C 
BRANCH   4   5
ATOM      5  NE  ARG D 557     -28.152  -0.877 -16.258  1.00 35.49    -0.212 N 
ATOM      6  CZ  ARG D 557     -28.407  -2.080 -16.723  1.00 35.49     0.666 C 
ATOM      7  NH1 ARG D 557     -29.444  -2.334 -17.500  1.00 35.49    -0.235 N 
ATOM      8  NH2 ARG D 557     -27.588  -3.037 -16.396  1.00 35.49    -0.235 N 
ATOM      9  HH  ARG D 557     -29.994  -1.719 -17.730  1.00 35.49     0.174 HD
ATOM     10  HH  ARG D 557     -29.558  -3.137 -17.776  1.00 35.49     0.174 HD
ATOM     11  HH  ARG D 557     -26.923  -2.842 -15.899  1.00 35.49     0.174 HD
ATOM     12  HH  ARG D 557     -27.718  -3.825 -16.680  1.00 35.49     0.174 HD
ATOM     13  HE  ARG D 557     -27.507  -0.819 -15.707  1.00 35.49     0.178 HD
ENDBRANCH   4   5
ENDBRANCH   3   4
ENDBRANCH   2   3
ENDBRANCH   1   2
END_RES ARG D 557
BEGIN_RES GLU D 570
REMARK  3 active torsions:
REMARK  status: ('A' for Active; 'I' for Inactive)
REMARK    5  A    between atoms: CA   and  CB  
REMARK    6  A    between atoms: CB   and  CG  
REMARK    7  A    between atoms: CG   and  CD  
ROOT
ATOM     14  CA  GLU D 570     -18.033  -6.348 -13.375  1.00 32.92     0.160 C 
ENDROOT
BRANCH  14  15
ATOM     15  CB  GLU D 570     -19.500  -6.345 -13.794  1.00 32.92     0.043 C 
BRANCH  15  16
ATOM     16  CG  GLU D 570     -19.822  -5.846 -15.156  1.00 32.92     0.100 C 
BRANCH  16  17
ATOM     17  CD  GLU D 570     -21.283  -5.503 -15.328  1.00 32.92     0.185 C 
ATOM     18  OE1 GLU D 570     -21.608  -4.639 -16.165  1.00 32.92    -0.647 OA
ATOM     19  OE2 GLU D 570     -22.111  -6.092 -14.605  1.00 32.92    -0.647 OA
ENDBRANCH  16  17
ENDBRANCH  15  16
ENDBRANCH  14  15
END_RES GLU D 570
ENDMDL
MODEL 8
REMARK VINA RESULT:      -7.5      2.528      7.549
REMARK  10 active torsions:
REMARK  status: ('A' for Active; 'I' for Inactive)
REMARK    1  A    between atoms: C_2  and  C_3 
REMARK    2  A    between atoms: C_3  and  C_4 
REMARK    3  A    between atoms: C_4  and  C_5 
REMARK    4  A    between atoms: C_5  and  C_6 
REMARK    5  A    between atoms: C_5  and  C_8 
REMARK    6  A    between atoms: C_8  and  O_9 
REMARK    7  A    between atoms: O_9  and  C_10 
REMARK    8  A    between atoms: C_10  and  C_12 
REMARK    9  A    between atoms: C_13  and  C_14 
REMARK   10  A    between atoms: C_17  and  O_20 
ROOT
HETATM    1  C   UNL     1     -24.417  -7.117 -15.930  1.00  0.00     0.282 C 
HETATM    2  O   UNL     1     -23.878  -8.163 -16.248  1.00  0.00    -0.260 OA
ENDROOT
BRANCH   1   3
HETATM    3  O   UNL     1     -23.800  -5.980 -15.520  1.00  0.00    -0.318 OA
BRANCH   3   4
HETATM    4  C   UNL     1     -23.351  -5.979 -14.156  1.00  0.00     0.183 C 
BRANCH   4   5
HETATM    5  C   UNL     1     -23.628  -4.662 -13.409  1.00  0.00     0.010 C 
BRANCH   5   6
HETATM    6  C   UNL     1     -23.564  -4.854 -11.875  1.00  0.00     0.007 C 
BRANCH   6   7
HETATM    7  C   UNL     1     -22.648  -3.830 -11.190  1.00  0.00     0.000 C 
BRANCH   7   8
HETATM    8  C   UNL     1     -22.954  -3.675  -9.702  1.00  0.00    -0.005 C 
HETATM    9  C   UNL     1     -24.426  -3.349  -9.485  1.00  0.00     0.005 C 
ENDBRANCH   7   8
ENDBRANCH   6   7
ENDBRANCH   5   6
BRANCH   5  10
HETATM   10  C   UNL     1     -22.703  -3.546 -13.946  1.00  0.00     0.002 C 
HETATM   11  C   UNL     1     -23.417  -2.325 -14.513  1.00  0.00     0.005 C 
ENDBRANCH   5  10
ENDBRANCH   4   5
ENDBRANCH   3   4
ENDBRANCH   1   3
BRANCH   1  12
HETATM   12  C   UNL     1     -25.871  -6.913 -15.825  1.00  0.00     0.083 C 
HETATM   13  C   UNL     1     -26.524  -6.222 -16.775  1.00  0.00     0.017 C 
BRANCH  13  14
HETATM   14  C   UNL     1     -27.982  -6.039 -16.813  1.00  0.00    -0.036 A 
HETATM   15  C   UNL     1     -28.731  -5.695 -15.683  1.00  0.00     0.014 A 
HETATM   16  C   UNL     1     -30.119  -5.522 -15.764  1.00  0.00     0.037 A 
HETATM   17  C   UNL     1     -30.778  -5.678 -16.982  1.00  0.00     0.068 A 
HETATM   18  C   UNL     1     -30.036  -6.002 -18.117  1.00  0.00     0.037 A 
HETATM   19  C   UNL     1     -28.649  -6.176 -18.039  1.00  0.00     0.014 A 
BRANCH  17  20
HETATM   20  O   UNL     1     -32.124  -5.543 -17.186  1.00  0.00    -0.356 OA
HETATM   21  C   UNL     1     -32.725  -4.343 -16.712  1.00  0.00     0.210 C 
ENDBRANCH  17  20
ENDBRANCH  13  14
ENDBRANCH   1  12
TORSDOF 10
BEGIN_RES ARG D 557
REMARK  4 active torsions:
REMARK  status: ('A' for Active; 'I' for Inactive)
REMARK    1  A    between atoms: CA   and  CB  
REMARK    2  A    between atoms: CB   and  CG  
REMARK    3  A    between atoms: CG   and  CD  
REMARK    4  A    between atoms: CD   and  NE  
REMARK       I    between atoms: NE   and  CZ  
REMARK       I    between atoms: CZ   and  NH1 
REMARK       I    between atoms: CZ   and  NH2 
ROOT
ATOM      1  CA  ARG D 557     -26.217   2.705 -17.014  1.00 35.49     0.159 C 
ENDROOT
BRANCH   1   2
ATOM      2  CB  ARG D 557     -26.789   1.319 -17.183  1.00 35.49     0.034 C 
BRANCH   2   3
ATOM      3  CG  ARG D 557     -28.238   1.224 -17.400  1.00 35.49     0.027 C 
BRANCH   3   4
ATOM      4  CD  ARG D 557     -28.877   0.223 -16.516  1.00 35.49     0.116 C 
BRANCH   4   5
ATOM      5  NE  ARG D 557     -27.936  -0.754 -16.035  1.00 35.49    -0.212 N 
ATOM      6  CZ  ARG D 557     -27.861  -2.006 -16.427  1.00 35.49     0.666 C 
ATOM      7  NH1 ARG D 557     -28.681  -2.518 -17.327  1.00 35.49    -0.235 N 
ATOM      8  NH2 ARG D 557     -26.930  -2.746 -15.898  1.00 35.49    -0.235 N 
ATOM      9  HH  ARG D 557     -29.299  -2.049 -17.689  1.00 35.49     0.174 HD
ATOM     10  HH  ARG D 557     -28.582  -3.340 -17.546  1.00 35.49     0.174 HD
ATOM     11  HH  ARG D 557     -26.411  -2.387 -15.325  1.00 35.49     0.174 HD
ATOM     12  HH  ARG D 557     -26.848  -3.558 -16.129  1.00 35.49     0.174 HD
ATOM     13  HE  ARG D 557     -27.417  -0.530 -15.400  1.00 35.49     0.178 HD
ENDBRANCH   4   5
ENDBRANCH   3   4
ENDBRANCH   2   3
ENDBRANCH   1   2
END_RES ARG D 557
BEGIN_RES GLU D 570
REMARK  3 active torsions:
REMARK  status: ('A' for Active; 'I' for Inactive)
REMARK    5  A    between atoms: CA   and  CB  
REMARK    6  A    between atoms: CB   and  CG  
REMARK    7  A    between atoms: CG   and  CD  
ROOT
ATOM     14  CA  GLU D 570     -18.033  -6.348 -13.375  1.00 32.92     0.160 C 
ENDROOT
BRANCH  14  15
ATOM     15  CB  GLU D 570     -19.500  -6.345 -13.794  1.00 32.92     0.043 C 
BRANCH  15  16
ATOM     16  CG  GLU D 570     -20.103  -7.645 -14.185  1.00 32.92     0.100 C 
BRANCH  16  17
ATOM     17  CD  GLU D 570     -20.489  -7.701 -15.645  1.00 32.92     0.185 C 
ATOM     18  OE1 GLU D 570     -20.623  -8.812 -16.193  1.00 32.92    -0.647 OA
ATOM     19  OE2 GLU D 570     -20.642  -6.622 -16.250  1.00 32.92    -0.647 OA
ENDBRANCH  16  17
ENDBRANCH  15  16
ENDBRANCH  14  15
END_RES GLU D 570
ENDMDL
MODEL 9
REMARK VINA RESULT:      -7.3      1.833      7.526
REMARK  10 active torsions:
REMARK  status: ('A' for Active; 'I' for Inactive)
REMARK    1  A    between atoms: C_2  and  C_3 
REMARK    2  A    between atoms: C_3  and  C_4 
REMARK    3  A    between atoms: C_4  and  C_5 
REMARK    4  A    between atoms: C_5  and  C_6 
REMARK    5  A    between atoms: C_5  and  C_8 
REMARK    6  A    between atoms: C_8  and  O_9 
REMARK    7  A    between atoms: O_9  and  C_10 
REMARK    8  A    between atoms: C_10  and  C_12 
REMARK    9  A    between atoms: C_13  and  C_14 
REMARK   10  A    between atoms: C_17  and  O_20 
ROOT
HETATM    1  C   UNL     1     -24.203  -5.557 -14.333  1.00  0.00     0.282 C 
HETATM    2  O   UNL     1     -23.997  -6.725 -14.614  1.00  0.00    -0.260 OA
ENDROOT
BRANCH   1   3
HETATM    3  O   UNL     1     -23.498  -4.799 -13.455  1.00  0.00    -0.318 OA
BRANCH   3   4
HETATM    4  C   UNL     1     -23.841  -4.977 -12.072  1.00  0.00     0.183 C 
BRANCH   4   5
HETATM    5  C   UNL     1     -22.752  -4.501 -11.093  1.00  0.00     0.010 C 
BRANCH   5   6
HETATM    6  C   UNL     1     -21.769  -3.518 -11.772  1.00  0.00     0.007 C 
BRANCH   6   7
HETATM    7  C   UNL     1     -20.420  -3.438 -11.046  1.00  0.00     0.000 C 
BRANCH   7   8
HETATM    8  C   UNL     1     -20.048  -4.749 -10.356  1.00  0.00    -0.005 C 
HETATM    9  C   UNL     1     -19.916  -4.548  -8.853  1.00  0.00     0.005 C 
ENDBRANCH   7   8
ENDBRANCH   6   7
ENDBRANCH   5   6
BRANCH   5  10
HETATM   10  C   UNL     1     -23.404  -3.955  -9.802  1.00  0.00     0.002 C 
HETATM   11  C   UNL     1     -24.796  -3.363  -9.976  1.00  0.00     0.005 C 
ENDBRANCH   5  10
ENDBRANCH   4   5
ENDBRANCH   3   4
ENDBRANCH   1   3
BRANCH   1  12
HETATM   12  C   UNL     1     -25.341  -4.759 -14.817  1.00  0.00     0.083 C 
HETATM   13  C   UNL     1     -26.175  -5.268 -15.739  1.00  0.00     0.017 C 
BRANCH  13  14
HETATM   14  C   UNL     1     -27.389  -4.594 -16.223  1.00  0.00    -0.036 A 
HETATM   15  C   UNL     1     -27.479  -3.206 -16.362  1.00  0.00     0.014 A 
HETATM   16  C   UNL     1     -28.652  -2.603 -16.834  1.00  0.00     0.037 A 
HETATM   17  C   UNL     1     -29.751  -3.384 -17.187  1.00  0.00     0.068 A 
HETATM   18  C   UNL     1     -29.664  -4.770 -17.069  1.00  0.00     0.037 A 
HETATM   19  C   UNL     1     -28.492  -5.374 -16.597  1.00  0.00     0.014 A 
BRANCH  17  20
HETATM   20  O   UNL     1     -30.949  -2.914 -17.651  1.00  0.00    -0.356 OA
HETATM   21  C   UNL     1     -32.086  -3.743 -17.436  1.00  0.00     0.210 C 
ENDBRANCH  17  20
ENDBRANCH  13  14
ENDBRANCH   1  12
TORSDOF 10
BEGIN_RES ARG D 557
REMARK  4 active torsions:
REMARK  status: ('A' for Active; 'I' for Inactive)
REMARK    1  A    between atoms: CA   and  CB  
REMARK    2  A    between atoms: CB   and  CG  
REMARK    3  A    between atoms: CG   and  CD  
REMARK    4  A    between atoms: CD   and  NE  
REMARK       I    between atoms: NE   and  CZ  
REMARK       I    between atoms: CZ   and  NH1 
REMARK       I    between atoms: CZ   and  NH2 
ROOT
ATOM      1  CA  ARG D 557     -26.217   2.705 -17.014  1.00 35.49     0.159 C 
ENDROOT
BRANCH   1   2
ATOM      2  CB  ARG D 557     -26.789   1.319 -17.183  1.00 35.49     0.034 C 
BRANCH   2   3
ATOM      3  CG  ARG D 557     -25.832   0.205 -17.187  1.00 35.49     0.027 C 
BRANCH   3   4
ATOM      4  CD  ARG D 557     -24.683   0.446 -16.285  1.00 35.49     0.116 C 
BRANCH   4   5
ATOM      5  NE  ARG D 557     -24.780  -0.315 -15.068  1.00 35.49    -0.212 N 
ATOM      6  CZ  ARG D 557     -23.970  -1.282 -14.700  1.00 35.49     0.666 C 
ATOM      7  NH1 ARG D 557     -22.954  -1.678 -15.445  1.00 35.49    -0.235 N 
ATOM      8  NH2 ARG D 557     -24.195  -1.850 -13.551  1.00 35.49    -0.235 N 
ATOM      9  HH  ARG D 557     -22.786  -1.317 -16.203  1.00 35.49     0.174 HD
ATOM     10  HH  ARG D 557     -22.458  -2.312 -15.152  1.00 35.49     0.174 HD
ATOM     11  HH  ARG D 557     -24.854  -1.569 -13.088  1.00 35.49     0.174 HD
ATOM     12  HH  ARG D 557     -23.692  -2.475 -13.278  1.00 35.49     0.174 HD
ATOM     13  HE  ARG D 557     -25.449  -0.175 -14.562  1.00 35.49     0.178 HD
ENDBRANCH   4   5
ENDBRANCH   3   4
ENDBRANCH   2   3
ENDBRANCH   1   2
END_RES ARG D 557
BEGIN_RES GLU D 570
REMARK  3 active torsions:
REMARK  status: ('A' for Active; 'I' for Inactive)
REMARK    5  A    between atoms: CA   and  CB  
REMARK    6  A    between atoms: CB   and  CG  
REMARK    7  A    between atoms: CG   and  CD  
ROOT
ATOM     14  CA  GLU D 570     -18.033  -6.348 -13.375  1.00 32.92     0.160 C 
ENDROOT
BRANCH  14  15
ATOM     15  CB  GLU D 570     -19.500  -6.345 -13.794  1.00 32.92     0.043 C 
BRANCH  15  16
ATOM     16  CG  GLU D 570     -19.935  -7.377 -14.770  1.00 32.92     0.100 C 
BRANCH  16  17
ATOM     17  CD  GLU D 570     -20.714  -6.800 -15.929  1.00 32.92     0.185 C 
ATOM     18  OE1 GLU D 570     -20.635  -5.579 -16.164  1.00 32.92    -0.647 OA
ATOM     19  OE2 GLU D 570     -21.425  -7.576 -16.600  1.00 32.92    -0.647 OA
ENDBRANCH  16  17
ENDBRANCH  15  16
ENDBRANCH  14  15
END_RES GLU D 570
ENDMDL
