MODEL 1
REMARK VINA RESULT:      -1.3      0.000      0.000
REMARK  12 active torsions:
REMARK  status: ('A' for Active; 'I' for Inactive)
REMARK    1  A    between atoms: C_2  and  C_3 
REMARK    2  A    between atoms: C_3  and  C_4 
REMARK    3  A    between atoms: C_4  and  C_5 
REMARK    4  A    between atoms: C_5  and  C_6 
REMARK    5  A    between atoms: C_6  and  C_7 
REMARK    6  A    between atoms: C_7  and  C_8 
REMARK    7  A    between atoms: C_8  and  C_9 
REMARK    8  A    between atoms: C_9  and  C_10 
REMARK    9  A    between atoms: C_10  and  C_11 
REMARK   10  A    between atoms: C_11  and  C_12 
REMARK       I    between atoms: C_12  and  N_14 
REMARK   11  A    between atoms: N_14  and  C_15 
REMARK   12  A    between atoms: C_15  and  C_16 
ROOT
HETATM    1 NA   UNL     2     -32.339  -8.554   4.540  1.00  0.00     0.000 Na
ENDROOT
TORSDOF 12
BEGIN_RES ARG D 557
REMARK  4 active torsions:
REMARK  status: ('A' for Active; 'I' for Inactive)
REMARK    1  A    between atoms: CA   and  CB  
REMARK    2  A    between atoms: CB   and  CG  
REMARK    3  A    between atoms: CG   and  CD  
REMARK    4  A    between atoms: CD   and  NE  
REMARK       I    between atoms: NE   and  CZ  
REMARK       I    between atoms: CZ   and  NH1 
REMARK       I    between atoms: CZ   and  NH2 
ROOT
ATOM      1  CA  ARG D 557     -26.217   2.705 -17.014  1.00 35.49     0.159 C 
ENDROOT
BRANCH   1   2
ATOM      2  CB  ARG D 557     -26.789   1.319 -17.183  1.00 35.49     0.034 C 
BRANCH   2   3
ATOM      3  CG  ARG D 557     -25.835   0.203 -17.160  1.00 35.49     0.027 C 
BRANCH   3   4
ATOM      4  CD  ARG D 557     -24.749   0.409 -16.175  1.00 35.49     0.116 C 
BRANCH   4   5
ATOM      5  NE  ARG D 557     -24.898  -0.435 -15.019  1.00 35.49    -0.212 N 
ATOM      6  CZ  ARG D 557     -24.086  -1.407 -14.668  1.00 35.49     0.666 C 
ATOM      7  NH1 ARG D 557     -23.018  -1.728 -15.375  1.00 35.49    -0.235 N 
ATOM      8  NH2 ARG D 557     -24.364  -2.057 -13.576  1.00 35.49    -0.235 N 
ATOM      9  HH  ARG D 557     -22.814  -1.313 -16.096  1.00 35.49     0.174 HD
ATOM     10  HH  ARG D 557     -22.523  -2.370 -15.096  1.00 35.49     0.174 HD
ATOM     11  HH  ARG D 557     -25.056  -1.823 -13.136  1.00 35.49     0.174 HD
ATOM     12  HH  ARG D 557     -23.861  -2.688 -13.315  1.00 35.49     0.174 HD
ATOM     13  HE  ARG D 557     -25.599  -0.346 -14.547  1.00 35.49     0.178 HD
ENDBRANCH   4   5
ENDBRANCH   3   4
ENDBRANCH   2   3
ENDBRANCH   1   2
END_RES ARG D 557
BEGIN_RES GLU D 570
REMARK  3 active torsions:
REMARK  status: ('A' for Active; 'I' for Inactive)
REMARK    5  A    between atoms: CA   and  CB  
REMARK    6  A    between atoms: CB   and  CG  
REMARK    7  A    between atoms: CG   and  CD  
ROOT
ATOM     14  CA  GLU D 570     -18.033  -6.348 -13.375  1.00 32.92     0.160 C 
ENDROOT
BRANCH  14  15
ATOM     15  CB  GLU D 570     -19.500  -6.345 -13.794  1.00 32.92     0.043 C 
BRANCH  15  16
ATOM     16  CG  GLU D 570     -20.441  -5.526 -12.986  1.00 32.92     0.100 C 
BRANCH  16  17
ATOM     17  CD  GLU D 570     -21.739  -5.240 -13.705  1.00 32.92     0.185 C 
ATOM     18  OE1 GLU D 570     -22.304  -4.145 -13.520  1.00 32.92    -0.647 OA
ATOM     19  OE2 GLU D 570     -22.204  -6.127 -14.448  1.00 32.92    -0.647 OA
ENDBRANCH  16  17
ENDBRANCH  15  16
ENDBRANCH  14  15
END_RES GLU D 570
ENDMDL
MODEL 2
REMARK VINA RESULT:      -1.2     10.540     10.540
REMARK  12 active torsions:
REMARK  status: ('A' for Active; 'I' for Inactive)
REMARK    1  A    between atoms: C_2  and  C_3 
REMARK    2  A    between atoms: C_3  and  C_4 
REMARK    3  A    between atoms: C_4  and  C_5 
REMARK    4  A    between atoms: C_5  and  C_6 
REMARK    5  A    between atoms: C_6  and  C_7 
REMARK    6  A    between atoms: C_7  and  C_8 
REMARK    7  A    between atoms: C_8  and  C_9 
REMARK    8  A    between atoms: C_9  and  C_10 
REMARK    9  A    between atoms: C_10  and  C_11 
REMARK   10  A    between atoms: C_11  and  C_12 
REMARK       I    between atoms: C_12  and  N_14 
REMARK   11  A    between atoms: N_14  and  C_15 
REMARK   12  A    between atoms: C_15  and  C_16 
ROOT
HETATM    1 NA   UNL     2      -9.093   5.882 -17.214  1.00  0.00     0.000 Na
ENDROOT
TORSDOF 12
BEGIN_RES ARG D 557
REMARK  4 active torsions:
REMARK  status: ('A' for Active; 'I' for Inactive)
REMARK    1  A    between atoms: CA   and  CB  
REMARK    2  A    between atoms: CB   and  CG  
REMARK    3  A    between atoms: CG   and  CD  
REMARK    4  A    between atoms: CD   and  NE  
REMARK       I    between atoms: NE   and  CZ  
REMARK       I    between atoms: CZ   and  NH1 
REMARK       I    between atoms: CZ   and  NH2 
ROOT
ATOM      1  CA  ARG D 557     -26.217   2.705 -17.014  1.00 35.49     0.159 C 
ENDROOT
BRANCH   1   2
ATOM      2  CB  ARG D 557     -26.789   1.319 -17.183  1.00 35.49     0.034 C 
BRANCH   2   3
ATOM      3  CG  ARG D 557     -25.835   0.203 -17.160  1.00 35.49     0.027 C 
BRANCH   3   4
ATOM      4  CD  ARG D 557     -24.755   0.405 -16.167  1.00 35.49     0.116 C 
BRANCH   4   5
ATOM      5  NE  ARG D 557     -24.911  -0.443 -15.015  1.00 35.49    -0.212 N 
ATOM      6  CZ  ARG D 557     -24.101  -1.415 -14.661  1.00 35.49     0.666 C 
ATOM      7  NH1 ARG D 557     -23.027  -1.733 -15.360  1.00 35.49    -0.235 N 
ATOM      8  NH2 ARG D 557     -24.386  -2.068 -13.572  1.00 35.49    -0.235 N 
ATOM      9  HH  ARG D 557     -22.819  -1.315 -16.079  1.00 35.49     0.174 HD
ATOM     10  HH  ARG D 557     -22.534  -2.375 -15.079  1.00 35.49     0.174 HD
ATOM     11  HH  ARG D 557     -25.082  -1.835 -13.136  1.00 35.49     0.174 HD
ATOM     12  HH  ARG D 557     -23.885  -2.699 -13.309  1.00 35.49     0.174 HD
ATOM     13  HE  ARG D 557     -25.616  -0.355 -14.547  1.00 35.49     0.178 HD
ENDBRANCH   4   5
ENDBRANCH   3   4
ENDBRANCH   2   3
ENDBRANCH   1   2
END_RES ARG D 557
BEGIN_RES GLU D 570
REMARK  3 active torsions:
REMARK  status: ('A' for Active; 'I' for Inactive)
REMARK    5  A    between atoms: CA   and  CB  
REMARK    6  A    between atoms: CB   and  CG  
REMARK    7  A    between atoms: CG   and  CD  
ROOT
ATOM     14  CA  GLU D 570     -18.033  -6.348 -13.375  1.00 32.92     0.160 C 
ENDROOT
BRANCH  14  15
ATOM     15  CB  GLU D 570     -19.500  -6.345 -13.794  1.00 32.92     0.043 C 
BRANCH  15  16
ATOM     16  CG  GLU D 570     -20.441  -5.526 -12.987  1.00 32.92     0.100 C 
BRANCH  16  17
ATOM     17  CD  GLU D 570     -21.738  -5.238 -13.706  1.00 32.92     0.185 C 
ATOM     18  OE1 GLU D 570     -22.329  -4.164 -13.482  1.00 32.92    -0.647 OA
ATOM     19  OE2 GLU D 570     -22.176  -6.103 -14.490  1.00 32.92    -0.647 OA
ENDBRANCH  16  17
ENDBRANCH  15  16
ENDBRANCH  14  15
END_RES GLU D 570
ENDMDL
MODEL 3
REMARK VINA RESULT:      -1.1      4.497      4.497
REMARK  12 active torsions:
REMARK  status: ('A' for Active; 'I' for Inactive)
REMARK    1  A    between atoms: C_2  and  C_3 
REMARK    2  A    between atoms: C_3  and  C_4 
REMARK    3  A    between atoms: C_4  and  C_5 
REMARK    4  A    between atoms: C_5  and  C_6 
REMARK    5  A    between atoms: C_6  and  C_7 
REMARK    6  A    between atoms: C_7  and  C_8 
REMARK    7  A    between atoms: C_8  and  C_9 
REMARK    8  A    between atoms: C_9  and  C_10 
REMARK    9  A    between atoms: C_10  and  C_11 
REMARK   10  A    between atoms: C_11  and  C_12 
REMARK       I    between atoms: C_12  and  N_14 
REMARK   11  A    between atoms: N_14  and  C_15 
REMARK   12  A    between atoms: C_15  and  C_16 
ROOT
HETATM    1 NA   UNL     2     -27.303  -5.572  -9.175  1.00  0.00     0.000 Na
ENDROOT
TORSDOF 12
BEGIN_RES ARG D 557
REMARK  4 active torsions:
REMARK  status: ('A' for Active; 'I' for Inactive)
REMARK    1  A    between atoms: CA   and  CB  
REMARK    2  A    between atoms: CB   and  CG  
REMARK    3  A    between atoms: CG   and  CD  
REMARK    4  A    between atoms: CD   and  NE  
REMARK       I    between atoms: NE   and  CZ  
REMARK       I    between atoms: CZ   and  NH1 
REMARK       I    between atoms: CZ   and  NH2 
ROOT
ATOM      1  CA  ARG D 557     -26.217   2.705 -17.014  1.00 35.49     0.159 C 
ENDROOT
BRANCH   1   2
ATOM      2  CB  ARG D 557     -26.789   1.319 -17.183  1.00 35.49     0.034 C 
BRANCH   2   3
ATOM      3  CG  ARG D 557     -25.832   0.206 -17.196  1.00 35.49     0.027 C 
BRANCH   3   4
ATOM      4  CD  ARG D 557     -24.739   0.391 -16.214  1.00 35.49     0.116 C 
BRANCH   4   5
ATOM      5  NE  ARG D 557     -24.905  -0.445 -15.054  1.00 35.49    -0.212 N 
ATOM      6  CZ  ARG D 557     -24.093  -1.407 -14.678  1.00 35.49     0.666 C 
ATOM      7  NH1 ARG D 557     -23.008  -1.726 -15.359  1.00 35.49    -0.235 N 
ATOM      8  NH2 ARG D 557     -24.389  -2.049 -13.585  1.00 35.49    -0.235 N 
ATOM      9  HH  ARG D 557     -22.793  -1.316 -16.079  1.00 35.49     0.174 HD
ATOM     10  HH  ARG D 557     -22.514  -2.361 -15.063  1.00 35.49     0.174 HD
ATOM     11  HH  ARG D 557     -25.092  -1.816 -13.162  1.00 35.49     0.174 HD
ATOM     12  HH  ARG D 557     -23.887  -2.674 -13.308  1.00 35.49     0.174 HD
ATOM     13  HE  ARG D 557     -25.617  -0.356 -14.597  1.00 35.49     0.178 HD
ENDBRANCH   4   5
ENDBRANCH   3   4
ENDBRANCH   2   3
ENDBRANCH   1   2
END_RES ARG D 557
BEGIN_RES GLU D 570
REMARK  3 active torsions:
REMARK  status: ('A' for Active; 'I' for Inactive)
REMARK    5  A    between atoms: CA   and  CB  
REMARK    6  A    between atoms: CB   and  CG  
REMARK    7  A    between atoms: CG   and  CD  
ROOT
ATOM     14  CA  GLU D 570     -18.033  -6.348 -13.375  1.00 32.92     0.160 C 
ENDROOT
BRANCH  14  15
ATOM     15  CB  GLU D 570     -19.500  -6.345 -13.794  1.00 32.92     0.043 C 
BRANCH  15  16
ATOM     16  CG  GLU D 570     -20.440  -5.524 -12.989  1.00 32.92     0.100 C 
BRANCH  16  17
ATOM     17  CD  GLU D 570     -21.708  -5.177 -13.734  1.00 32.92     0.185 C 
ATOM     18  OE1 GLU D 570     -22.353  -4.167 -13.395  1.00 32.92    -0.647 OA
ATOM     19  OE2 GLU D 570     -22.068  -5.934 -14.657  1.00 32.92    -0.647 OA
ENDBRANCH  16  17
ENDBRANCH  15  16
ENDBRANCH  14  15
END_RES GLU D 570
ENDMDL
MODEL 4
REMARK VINA RESULT:      -1.1      3.128      3.128
REMARK  12 active torsions:
REMARK  status: ('A' for Active; 'I' for Inactive)
REMARK    1  A    between atoms: C_2  and  C_3 
REMARK    2  A    between atoms: C_3  and  C_4 
REMARK    3  A    between atoms: C_4  and  C_5 
REMARK    4  A    between atoms: C_5  and  C_6 
REMARK    5  A    between atoms: C_6  and  C_7 
REMARK    6  A    between atoms: C_7  and  C_8 
REMARK    7  A    between atoms: C_8  and  C_9 
REMARK    8  A    between atoms: C_9  and  C_10 
REMARK    9  A    between atoms: C_10  and  C_11 
REMARK   10  A    between atoms: C_11  and  C_12 
REMARK       I    between atoms: C_12  and  N_14 
REMARK   11  A    between atoms: N_14  and  C_15 
REMARK   12  A    between atoms: C_15  and  C_16 
ROOT
HETATM    1 NA   UNL     2     -36.659   0.762   6.019  1.00  0.00     0.000 Na
ENDROOT
TORSDOF 12
BEGIN_RES ARG D 557
REMARK  4 active torsions:
REMARK  status: ('A' for Active; 'I' for Inactive)
REMARK    1  A    between atoms: CA   and  CB  
REMARK    2  A    between atoms: CB   and  CG  
REMARK    3  A    between atoms: CG   and  CD  
REMARK    4  A    between atoms: CD   and  NE  
REMARK       I    between atoms: NE   and  CZ  
REMARK       I    between atoms: CZ   and  NH1 
REMARK       I    between atoms: CZ   and  NH2 
ROOT
ATOM      1  CA  ARG D 557     -26.217   2.705 -17.014  1.00 35.49     0.159 C 
ENDROOT
BRANCH   1   2
ATOM      2  CB  ARG D 557     -26.789   1.319 -17.183  1.00 35.49     0.034 C 
BRANCH   2   3
ATOM      3  CG  ARG D 557     -25.836   0.203 -17.150  1.00 35.49     0.027 C 
BRANCH   3   4
ATOM      4  CD  ARG D 557     -24.754   0.413 -16.161  1.00 35.49     0.116 C 
BRANCH   4   5
ATOM      5  NE  ARG D 557     -24.898  -0.440 -15.011  1.00 35.49    -0.212 N 
ATOM      6  CZ  ARG D 557     -24.081  -1.410 -14.668  1.00 35.49     0.666 C 
ATOM      7  NH1 ARG D 557     -23.013  -1.723 -15.378  1.00 35.49    -0.235 N 
ATOM      8  NH2 ARG D 557     -24.354  -2.069 -13.579  1.00 35.49    -0.235 N 
ATOM      9  HH  ARG D 557     -22.812  -1.302 -16.097  1.00 35.49     0.174 HD
ATOM     10  HH  ARG D 557     -22.515  -2.364 -15.104  1.00 35.49     0.174 HD
ATOM     11  HH  ARG D 557     -25.047  -1.840 -13.136  1.00 35.49     0.174 HD
ATOM     12  HH  ARG D 557     -23.848  -2.699 -13.323  1.00 35.49     0.174 HD
ATOM     13  HE  ARG D 557     -25.598  -0.356 -14.536  1.00 35.49     0.178 HD
ENDBRANCH   4   5
ENDBRANCH   3   4
ENDBRANCH   2   3
ENDBRANCH   1   2
END_RES ARG D 557
BEGIN_RES GLU D 570
REMARK  3 active torsions:
REMARK  status: ('A' for Active; 'I' for Inactive)
REMARK    5  A    between atoms: CA   and  CB  
REMARK    6  A    between atoms: CB   and  CG  
REMARK    7  A    between atoms: CG   and  CD  
ROOT
ATOM     14  CA  GLU D 570     -18.033  -6.348 -13.375  1.00 32.92     0.160 C 
ENDROOT
BRANCH  14  15
ATOM     15  CB  GLU D 570     -19.500  -6.345 -13.794  1.00 32.92     0.043 C 
BRANCH  15  16
ATOM     16  CG  GLU D 570     -20.444  -5.542 -12.975  1.00 32.92     0.100 C 
BRANCH  16  17
ATOM     17  CD  GLU D 570     -21.741  -5.246 -13.691  1.00 32.92     0.185 C 
ATOM     18  OE1 GLU D 570     -22.292  -4.142 -13.514  1.00 32.92    -0.647 OA
ATOM     19  OE2 GLU D 570     -22.221  -6.134 -14.423  1.00 32.92    -0.647 OA
ENDBRANCH  16  17
ENDBRANCH  15  16
ENDBRANCH  14  15
END_RES GLU D 570
ENDMDL
MODEL 5
REMARK VINA RESULT:      -1.1      6.998      6.998
REMARK  12 active torsions:
REMARK  status: ('A' for Active; 'I' for Inactive)
REMARK    1  A    between atoms: C_2  and  C_3 
REMARK    2  A    between atoms: C_3  and  C_4 
REMARK    3  A    between atoms: C_4  and  C_5 
REMARK    4  A    between atoms: C_5  and  C_6 
REMARK    5  A    between atoms: C_6  and  C_7 
REMARK    6  A    between atoms: C_7  and  C_8 
REMARK    7  A    between atoms: C_8  and  C_9 
REMARK    8  A    between atoms: C_9  and  C_10 
REMARK    9  A    between atoms: C_10  and  C_11 
REMARK   10  A    between atoms: C_11  and  C_12 
REMARK       I    between atoms: C_12  and  N_14 
REMARK   11  A    between atoms: N_14  and  C_15 
REMARK   12  A    between atoms: C_15  and  C_16 
ROOT
HETATM    1 NA   UNL     2     -11.537   1.157   1.136  1.00  0.00     0.000 Na
ENDROOT
TORSDOF 12
BEGIN_RES ARG D 557
REMARK  4 active torsions:
REMARK  status: ('A' for Active; 'I' for Inactive)
REMARK    1  A    between atoms: CA   and  CB  
REMARK    2  A    between atoms: CB   and  CG  
REMARK    3  A    between atoms: CG   and  CD  
REMARK    4  A    between atoms: CD   and  NE  
REMARK       I    between atoms: NE   and  CZ  
REMARK       I    between atoms: CZ   and  NH1 
REMARK       I    between atoms: CZ   and  NH2 
ROOT
ATOM      1  CA  ARG D 557     -26.217   2.705 -17.014  1.00 35.49     0.159 C 
ENDROOT
BRANCH   1   2
ATOM      2  CB  ARG D 557     -26.789   1.319 -17.183  1.00 35.49     0.034 C 
BRANCH   2   3
ATOM      3  CG  ARG D 557     -25.838   0.202 -17.141  1.00 35.49     0.027 C 
BRANCH   3   4
ATOM      4  CD  ARG D 557     -24.761   0.414 -16.146  1.00 35.49     0.116 C 
BRANCH   4   5
ATOM      5  NE  ARG D 557     -24.899  -0.452 -15.005  1.00 35.49    -0.212 N 
ATOM      6  CZ  ARG D 557     -24.074  -1.420 -14.673  1.00 35.49     0.666 C 
ATOM      7  NH1 ARG D 557     -23.004  -1.716 -15.386  1.00 35.49    -0.235 N 
ATOM      8  NH2 ARG D 557     -24.343  -2.092 -13.591  1.00 35.49    -0.235 N 
ATOM      9  HH  ARG D 557     -22.806  -1.286 -16.100  1.00 35.49     0.174 HD
ATOM     10  HH  ARG D 557     -22.501  -2.357 -15.119  1.00 35.49     0.174 HD
ATOM     11  HH  ARG D 557     -25.037  -1.874 -13.146  1.00 35.49     0.174 HD
ATOM     12  HH  ARG D 557     -23.832  -2.722 -13.342  1.00 35.49     0.174 HD
ATOM     13  HE  ARG D 557     -25.600  -0.379 -14.530  1.00 35.49     0.178 HD
ENDBRANCH   4   5
ENDBRANCH   3   4
ENDBRANCH   2   3
ENDBRANCH   1   2
END_RES ARG D 557
BEGIN_RES GLU D 570
REMARK  3 active torsions:
REMARK  status: ('A' for Active; 'I' for Inactive)
REMARK    5  A    between atoms: CA   and  CB  
REMARK    6  A    between atoms: CB   and  CG  
REMARK    7  A    between atoms: CG   and  CD  
ROOT
ATOM     14  CA  GLU D 570     -18.033  -6.348 -13.375  1.00 32.92     0.160 C 
ENDROOT
BRANCH  14  15
ATOM     15  CB  GLU D 570     -19.500  -6.345 -13.794  1.00 32.92     0.043 C 
BRANCH  15  16
ATOM     16  CG  GLU D 570     -20.449  -5.565 -12.959  1.00 32.92     0.100 C 
BRANCH  16  17
ATOM     17  CD  GLU D 570     -21.733  -5.231 -13.681  1.00 32.92     0.185 C 
ATOM     18  OE1 GLU D 570     -22.231  -4.097 -13.538  1.00 32.92    -0.647 OA
ATOM     19  OE2 GLU D 570     -22.256  -6.117 -14.384  1.00 32.92    -0.647 OA
ENDBRANCH  16  17
ENDBRANCH  15  16
ENDBRANCH  14  15
END_RES GLU D 570
ENDMDL
MODEL 6
REMARK VINA RESULT:      -1.0      7.166      7.239
REMARK  12 active torsions:
REMARK  status: ('A' for Active; 'I' for Inactive)
REMARK    1  A    between atoms: C_2  and  C_3 
REMARK    2  A    between atoms: C_3  and  C_4 
REMARK    3  A    between atoms: C_4  and  C_5 
REMARK    4  A    between atoms: C_5  and  C_6 
REMARK    5  A    between atoms: C_6  and  C_7 
REMARK    6  A    between atoms: C_7  and  C_8 
REMARK    7  A    between atoms: C_8  and  C_9 
REMARK    8  A    between atoms: C_9  and  C_10 
REMARK    9  A    between atoms: C_10  and  C_11 
REMARK   10  A    between atoms: C_11  and  C_12 
REMARK       I    between atoms: C_12  and  N_14 
REMARK   11  A    between atoms: N_14  and  C_15 
REMARK   12  A    between atoms: C_15  and  C_16 
ROOT
HETATM    1 NA   UNL     2     -11.219   1.671   2.513  1.00  0.00     0.000 Na
ENDROOT
TORSDOF 12
BEGIN_RES ARG D 557
REMARK  4 active torsions:
REMARK  status: ('A' for Active; 'I' for Inactive)
REMARK    1  A    between atoms: CA   and  CB  
REMARK    2  A    between atoms: CB   and  CG  
REMARK    3  A    between atoms: CG   and  CD  
REMARK    4  A    between atoms: CD   and  NE  
REMARK       I    between atoms: NE   and  CZ  
REMARK       I    between atoms: CZ   and  NH1 
REMARK       I    between atoms: CZ   and  NH2 
ROOT
ATOM      1  CA  ARG D 557     -26.217   2.705 -17.014  1.00 35.49     0.159 C 
ENDROOT
BRANCH   1   2
ATOM      2  CB  ARG D 557     -26.789   1.319 -17.183  1.00 35.49     0.034 C 
BRANCH   2   3
ATOM      3  CG  ARG D 557     -25.860   0.195 -17.012  1.00 35.49     0.027 C 
BRANCH   3   4
ATOM      4  CD  ARG D 557     -26.257  -0.701 -15.902  1.00 35.49     0.116 C 
BRANCH   4   5
ATOM      5  NE  ARG D 557     -25.194  -0.890 -14.950  1.00 35.49    -0.212 N 
ATOM      6  CZ  ARG D 557     -24.882  -2.023 -14.362  1.00 35.49     0.666 C 
ATOM      7  NH1 ARG D 557     -25.546  -3.142 -14.582  1.00 35.49    -0.235 N 
ATOM      8  NH2 ARG D 557     -23.872  -2.015 -13.542  1.00 35.49    -0.235 N 
ATOM      9  HH  ARG D 557     -26.212  -3.171 -15.120  1.00 35.49     0.174 HD
ATOM     10  HH  ARG D 557     -25.295  -3.852 -14.172  1.00 35.49     0.174 HD
ATOM     11  HH  ARG D 557     -23.457  -1.279 -13.425  1.00 35.49     0.174 HD
ATOM     12  HH  ARG D 557     -23.638  -2.728 -13.146  1.00 35.49     0.174 HD
ATOM     13  HE  ARG D 557     -24.760  -0.204 -14.695  1.00 35.49     0.178 HD
ENDBRANCH   4   5
ENDBRANCH   3   4
ENDBRANCH   2   3
ENDBRANCH   1   2
END_RES ARG D 557
BEGIN_RES GLU D 570
REMARK  3 active torsions:
REMARK  status: ('A' for Active; 'I' for Inactive)
REMARK    5  A    between atoms: CA   and  CB  
REMARK    6  A    between atoms: CB   and  CG  
REMARK    7  A    between atoms: CG   and  CD  
ROOT
ATOM     14  CA  GLU D 570     -18.033  -6.348 -13.375  1.00 32.92     0.160 C 
ENDROOT
BRANCH  14  15
ATOM     15  CB  GLU D 570     -19.500  -6.345 -13.794  1.00 32.92     0.043 C 
BRANCH  15  16
ATOM     16  CG  GLU D 570     -20.448  -5.559 -12.962  1.00 32.92     0.100 C 
BRANCH  16  17
ATOM     17  CD  GLU D 570     -21.678  -5.124 -13.723  1.00 32.92     0.185 C 
ATOM     18  OE1 GLU D 570     -21.647  -5.111 -14.969  1.00 32.92    -0.647 OA
ATOM     19  OE2 GLU D 570     -22.679  -4.775 -13.066  1.00 32.92    -0.647 OA
ENDBRANCH  16  17
ENDBRANCH  15  16
ENDBRANCH  14  15
END_RES GLU D 570
ENDMDL
MODEL 7
REMARK VINA RESULT:      -1.0      5.846      5.900
REMARK  12 active torsions:
REMARK  status: ('A' for Active; 'I' for Inactive)
REMARK    1  A    between atoms: C_2  and  C_3 
REMARK    2  A    between atoms: C_3  and  C_4 
REMARK    3  A    between atoms: C_4  and  C_5 
REMARK    4  A    between atoms: C_5  and  C_6 
REMARK    5  A    between atoms: C_6  and  C_7 
REMARK    6  A    between atoms: C_7  and  C_8 
REMARK    7  A    between atoms: C_8  and  C_9 
REMARK    8  A    between atoms: C_9  and  C_10 
REMARK    9  A    between atoms: C_10  and  C_11 
REMARK   10  A    between atoms: C_11  and  C_12 
REMARK       I    between atoms: C_12  and  N_14 
REMARK   11  A    between atoms: N_14  and  C_15 
REMARK   12  A    between atoms: C_15  and  C_16 
ROOT
HETATM    1 NA   UNL     2     -27.104 -13.682 -13.090  1.00  0.00     0.000 Na
ENDROOT
TORSDOF 12
BEGIN_RES ARG D 557
REMARK  4 active torsions:
REMARK  status: ('A' for Active; 'I' for Inactive)
REMARK    1  A    between atoms: CA   and  CB  
REMARK    2  A    between atoms: CB   and  CG  
REMARK    3  A    between atoms: CG   and  CD  
REMARK    4  A    between atoms: CD   and  NE  
REMARK       I    between atoms: NE   and  CZ  
REMARK       I    between atoms: CZ   and  NH1 
REMARK       I    between atoms: CZ   and  NH2 
ROOT
ATOM      1  CA  ARG D 557     -26.217   2.705 -17.014  1.00 35.49     0.159 C 
ENDROOT
BRANCH   1   2
ATOM      2  CB  ARG D 557     -26.789   1.319 -17.183  1.00 35.49     0.034 C 
BRANCH   2   3
ATOM      3  CG  ARG D 557     -25.863   0.195 -16.999  1.00 35.49     0.027 C 
BRANCH   3   4
ATOM      4  CD  ARG D 557     -26.293  -0.719 -15.916  1.00 35.49     0.116 C 
BRANCH   4   5
ATOM      5  NE  ARG D 557     -25.251  -0.940 -14.948  1.00 35.49    -0.212 N 
ATOM      6  CZ  ARG D 557     -24.984  -2.081 -14.354  1.00 35.49     0.666 C 
ATOM      7  NH1 ARG D 557     -25.679  -3.180 -14.584  1.00 35.49    -0.235 N 
ATOM      8  NH2 ARG D 557     -23.987  -2.104 -13.517  1.00 35.49    -0.235 N 
ATOM      9  HH  ARG D 557     -26.338  -3.188 -15.132  1.00 35.49     0.174 HD
ATOM     10  HH  ARG D 557     -25.457  -3.896 -14.169  1.00 35.49     0.174 HD
ATOM     11  HH  ARG D 557     -23.551  -1.382 -13.394  1.00 35.49     0.174 HD
ATOM     12  HH  ARG D 557     -23.782  -2.824 -13.118  1.00 35.49     0.174 HD
ATOM     13  HE  ARG D 557     -24.800  -0.268 -14.686  1.00 35.49     0.178 HD
ENDBRANCH   4   5
ENDBRANCH   3   4
ENDBRANCH   2   3
ENDBRANCH   1   2
END_RES ARG D 557
BEGIN_RES GLU D 570
REMARK  3 active torsions:
REMARK  status: ('A' for Active; 'I' for Inactive)
REMARK    5  A    between atoms: CA   and  CB  
REMARK    6  A    between atoms: CB   and  CG  
REMARK    7  A    between atoms: CG   and  CD  
ROOT
ATOM     14  CA  GLU D 570     -18.033  -6.348 -13.375  1.00 32.92     0.160 C 
ENDROOT
BRANCH  14  15
ATOM     15  CB  GLU D 570     -19.500  -6.345 -13.794  1.00 32.92     0.043 C 
BRANCH  15  16
ATOM     16  CG  GLU D 570     -20.445  -5.545 -12.973  1.00 32.92     0.100 C 
BRANCH  16  17
ATOM     17  CD  GLU D 570     -21.682  -5.129 -13.735  1.00 32.92     0.185 C 
ATOM     18  OE1 GLU D 570     -22.740  -4.931 -13.108  1.00 32.92    -0.647 OA
ATOM     19  OE2 GLU D 570     -21.595  -5.017 -14.973  1.00 32.92    -0.647 OA
ENDBRANCH  16  17
ENDBRANCH  15  16
ENDBRANCH  14  15
END_RES GLU D 570
ENDMDL
MODEL 8
REMARK VINA RESULT:      -1.0      4.657      4.657
REMARK  12 active torsions:
REMARK  status: ('A' for Active; 'I' for Inactive)
REMARK    1  A    between atoms: C_2  and  C_3 
REMARK    2  A    between atoms: C_3  and  C_4 
REMARK    3  A    between atoms: C_4  and  C_5 
REMARK    4  A    between atoms: C_5  and  C_6 
REMARK    5  A    between atoms: C_6  and  C_7 
REMARK    6  A    between atoms: C_7  and  C_8 
REMARK    7  A    between atoms: C_8  and  C_9 
REMARK    8  A    between atoms: C_9  and  C_10 
REMARK    9  A    between atoms: C_10  and  C_11 
REMARK   10  A    between atoms: C_11  and  C_12 
REMARK       I    between atoms: C_12  and  N_14 
REMARK   11  A    between atoms: N_14  and  C_15 
REMARK   12  A    between atoms: C_15  and  C_16 
ROOT
HETATM    1 NA   UNL     2     -32.947  -9.324 -10.874  1.00  0.00     0.000 Na
ENDROOT
TORSDOF 12
BEGIN_RES ARG D 557
REMARK  4 active torsions:
REMARK  status: ('A' for Active; 'I' for Inactive)
REMARK    1  A    between atoms: CA   and  CB  
REMARK    2  A    between atoms: CB   and  CG  
REMARK    3  A    between atoms: CG   and  CD  
REMARK    4  A    between atoms: CD   and  NE  
REMARK       I    between atoms: NE   and  CZ  
REMARK       I    between atoms: CZ   and  NH1 
REMARK       I    between atoms: CZ   and  NH2 
ROOT
ATOM      1  CA  ARG D 557     -26.217   2.705 -17.014  1.00 35.49     0.159 C 
ENDROOT
BRANCH   1   2
ATOM      2  CB  ARG D 557     -26.789   1.319 -17.183  1.00 35.49     0.034 C 
BRANCH   2   3
ATOM      3  CG  ARG D 557     -25.835   0.203 -17.161  1.00 35.49     0.027 C 
BRANCH   3   4
ATOM      4  CD  ARG D 557     -24.750   0.408 -16.174  1.00 35.49     0.116 C 
BRANCH   4   5
ATOM      5  NE  ARG D 557     -24.901  -0.436 -15.019  1.00 35.49    -0.212 N 
ATOM      6  CZ  ARG D 557     -24.090  -1.409 -14.667  1.00 35.49     0.666 C 
ATOM      7  NH1 ARG D 557     -23.022  -1.731 -15.372  1.00 35.49    -0.235 N 
ATOM      8  NH2 ARG D 557     -24.370  -2.058 -13.574  1.00 35.49    -0.235 N 
ATOM      9  HH  ARG D 557     -22.817  -1.316 -16.093  1.00 35.49     0.174 HD
ATOM     10  HH  ARG D 557     -22.528  -2.373 -15.092  1.00 35.49     0.174 HD
ATOM     11  HH  ARG D 557     -25.062  -1.823 -13.135  1.00 35.49     0.174 HD
ATOM     12  HH  ARG D 557     -23.868  -2.690 -13.313  1.00 35.49     0.174 HD
ATOM     13  HE  ARG D 557     -25.603  -0.346 -14.547  1.00 35.49     0.178 HD
ENDBRANCH   4   5
ENDBRANCH   3   4
ENDBRANCH   2   3
ENDBRANCH   1   2
END_RES ARG D 557
BEGIN_RES GLU D 570
REMARK  3 active torsions:
REMARK  status: ('A' for Active; 'I' for Inactive)
REMARK    5  A    between atoms: CA   and  CB  
REMARK    6  A    between atoms: CB   and  CG  
REMARK    7  A    between atoms: CG   and  CD  
ROOT
ATOM     14  CA  GLU D 570     -18.033  -6.348 -13.375  1.00 32.92     0.160 C 
ENDROOT
BRANCH  14  15
ATOM     15  CB  GLU D 570     -19.500  -6.345 -13.794  1.00 32.92     0.043 C 
BRANCH  15  16
ATOM     16  CG  GLU D 570     -20.442  -5.529 -12.984  1.00 32.92     0.100 C 
BRANCH  16  17
ATOM     17  CD  GLU D 570     -21.736  -5.234 -13.705  1.00 32.92     0.185 C 
ATOM     18  OE1 GLU D 570     -22.321  -4.157 -13.483  1.00 32.92    -0.647 OA
ATOM     19  OE2 GLU D 570     -22.179  -6.097 -14.489  1.00 32.92    -0.647 OA
ENDBRANCH  16  17
ENDBRANCH  15  16
ENDBRANCH  14  15
END_RES GLU D 570
ENDMDL
MODEL 9
REMARK VINA RESULT:      -0.9      2.708      2.865
REMARK  12 active torsions:
REMARK  status: ('A' for Active; 'I' for Inactive)
REMARK    1  A    between atoms: C_2  and  C_3 
REMARK    2  A    between atoms: C_3  and  C_4 
REMARK    3  A    between atoms: C_4  and  C_5 
REMARK    4  A    between atoms: C_5  and  C_6 
REMARK    5  A    between atoms: C_6  and  C_7 
REMARK    6  A    between atoms: C_7  and  C_8 
REMARK    7  A    between atoms: C_8  and  C_9 
REMARK    8  A    between atoms: C_9  and  C_10 
REMARK    9  A    between atoms: C_10  and  C_11 
REMARK   10  A    between atoms: C_11  and  C_12 
REMARK       I    between atoms: C_12  and  N_14 
REMARK   11  A    between atoms: N_14  and  C_15 
REMARK   12  A    between atoms: C_15  and  C_16 
ROOT
HETATM    1 NA   UNL     2     -33.290  -6.674  -4.191  1.00  0.00     0.000 Na
ENDROOT
TORSDOF 12
BEGIN_RES ARG D 557
REMARK  4 active torsions:
REMARK  status: ('A' for Active; 'I' for Inactive)
REMARK    1  A    between atoms: CA   and  CB  
REMARK    2  A    between atoms: CB   and  CG  
REMARK    3  A    between atoms: CG   and  CD  
REMARK    4  A    between atoms: CD   and  NE  
REMARK       I    between atoms: NE   and  CZ  
REMARK       I    between atoms: CZ   and  NH1 
REMARK       I    between atoms: CZ   and  NH2 
ROOT
ATOM      1  CA  ARG D 557     -26.217   2.705 -17.014  1.00 35.49     0.159 C 
ENDROOT
BRANCH   1   2
ATOM      2  CB  ARG D 557     -26.789   1.319 -17.183  1.00 35.49     0.034 C 
BRANCH   2   3
ATOM      3  CG  ARG D 557     -25.836   0.203 -17.152  1.00 35.49     0.027 C 
BRANCH   3   4
ATOM      4  CD  ARG D 557     -24.754   0.412 -16.164  1.00 35.49     0.116 C 
BRANCH   4   5
ATOM      5  NE  ARG D 557     -24.899  -0.439 -15.012  1.00 35.49    -0.212 N 
ATOM      6  CZ  ARG D 557     -24.083  -1.410 -14.667  1.00 35.49     0.666 C 
ATOM      7  NH1 ARG D 557     -23.015  -1.725 -15.376  1.00 35.49    -0.235 N 
ATOM      8  NH2 ARG D 557     -24.359  -2.066 -13.577  1.00 35.49    -0.235 N 
ATOM      9  HH  ARG D 557     -22.814  -1.305 -16.096  1.00 35.49     0.174 HD
ATOM     10  HH  ARG D 557     -22.518  -2.366 -15.101  1.00 35.49     0.174 HD
ATOM     11  HH  ARG D 557     -25.051  -1.836 -13.136  1.00 35.49     0.174 HD
ATOM     12  HH  ARG D 557     -23.853  -2.697 -13.321  1.00 35.49     0.174 HD
ATOM     13  HE  ARG D 557     -25.600  -0.354 -14.538  1.00 35.49     0.178 HD
ENDBRANCH   4   5
ENDBRANCH   3   4
ENDBRANCH   2   3
ENDBRANCH   1   2
END_RES ARG D 557
BEGIN_RES GLU D 570
REMARK  3 active torsions:
REMARK  status: ('A' for Active; 'I' for Inactive)
REMARK    5  A    between atoms: CA   and  CB  
REMARK    6  A    between atoms: CB   and  CG  
REMARK    7  A    between atoms: CG   and  CD  
ROOT
ATOM     14  CA  GLU D 570     -18.033  -6.348 -13.375  1.00 32.92     0.160 C 
ENDROOT
BRANCH  14  15
ATOM     15  CB  GLU D 570     -19.500  -6.345 -13.794  1.00 32.92     0.043 C 
BRANCH  15  16
ATOM     16  CG  GLU D 570     -20.443  -5.536 -12.979  1.00 32.92     0.100 C 
BRANCH  16  17
ATOM     17  CD  GLU D 570     -21.743  -5.249 -13.694  1.00 32.92     0.185 C 
ATOM     18  OE1 GLU D 570     -22.224  -6.117 -14.447  1.00 32.92    -0.647 OA
ATOM     19  OE2 GLU D 570     -22.277  -4.137 -13.512  1.00 32.92    -0.647 OA
ENDBRANCH  16  17
ENDBRANCH  15  16
ENDBRANCH  14  15
END_RES GLU D 570
ENDMDL
