MODEL 1
REMARK VINA RESULT:      -6.6      0.000      0.000
REMARK  2 active torsions:
REMARK  status: ('A' for Active; 'I' for Inactive)
REMARK    1  A    between atoms: C_4  and  C_7 
REMARK    2  A    between atoms: C_7  and  O_8 
ROOT
HETATM    1  C   UNL     1     -20.581  -4.092  -8.107  1.00  0.00     0.000 A 
HETATM    2  C   UNL     1     -20.624  -4.005  -9.500  1.00  0.00     0.001 A 
HETATM    3  C   UNL     1     -21.857  -3.935 -10.151  1.00  0.00     0.017 A 
HETATM    4  C   UNL     1     -23.047  -3.935  -9.419  1.00  0.00     0.042 A 
HETATM    5  C   UNL     1     -22.990  -4.064  -8.018  1.00  0.00     0.017 A 
HETATM    6  C   UNL     1     -21.760  -4.146  -7.370  1.00  0.00     0.001 A 
ENDROOT
BRANCH   4   7
HETATM    7  C   UNL     1     -24.349  -3.625 -10.098  1.00  0.00     0.323 C 
HETATM    8  O   UNL     1     -24.487  -3.905 -11.317  1.00  0.00    -0.257 OA
BRANCH   7   9
HETATM    9  O   UNL     1     -25.109  -2.846  -9.425  1.00  0.00    -0.144 OA
HETATM   10 NA   UNL     2     -26.981  -3.475  -9.387  1.00  0.00     0.000 Na
ENDBRANCH   7   9
ENDBRANCH   4   7
TORSDOF 2
BEGIN_RES ARG D 557
REMARK  4 active torsions:
REMARK  status: ('A' for Active; 'I' for Inactive)
REMARK    1  A    between atoms: CA   and  CB  
REMARK    2  A    between atoms: CB   and  CG  
REMARK    3  A    between atoms: CG   and  CD  
REMARK    4  A    between atoms: CD   and  NE  
REMARK       I    between atoms: NE   and  CZ  
REMARK       I    between atoms: CZ   and  NH1 
REMARK       I    between atoms: CZ   and  NH2 
ROOT
ATOM      1  CA  ARG D 557     -26.217   2.705 -17.014  1.00 35.49     0.159 C 
ENDROOT
BRANCH   1   2
ATOM      2  CB  ARG D 557     -26.789   1.319 -17.183  1.00 35.49     0.034 C 
BRANCH   2   3
ATOM      3  CG  ARG D 557     -25.835   0.204 -17.166  1.00 35.49     0.027 C 
BRANCH   3   4
ATOM      4  CD  ARG D 557     -24.730   0.421 -16.204  1.00 35.49     0.116 C 
BRANCH   4   5
ATOM      5  NE  ARG D 557     -24.859  -0.406 -15.034  1.00 35.49    -0.212 N 
ATOM      6  CZ  ARG D 557     -24.045  -1.377 -14.685  1.00 35.49     0.666 C 
ATOM      7  NH1 ARG D 557     -22.994  -1.715 -15.409  1.00 35.49    -0.235 N 
ATOM      8  NH2 ARG D 557     -24.305  -2.009 -13.578  1.00 35.49    -0.235 N 
ATOM      9  HH  ARG D 557     -22.803  -1.311 -16.140  1.00 35.49     0.174 HD
ATOM     10  HH  ARG D 557     -22.497  -2.355 -15.130  1.00 35.49     0.174 HD
ATOM     11  HH  ARG D 557     -24.986  -1.765 -13.127  1.00 35.49     0.174 HD
ATOM     12  HH  ARG D 557     -23.800  -2.639 -13.318  1.00 35.49     0.174 HD
ATOM     13  HE  ARG D 557     -25.550  -0.305 -14.548  1.00 35.49     0.178 HD
ENDBRANCH   4   5
ENDBRANCH   3   4
ENDBRANCH   2   3
ENDBRANCH   1   2
END_RES ARG D 557
BEGIN_RES GLU D 570
REMARK  3 active torsions:
REMARK  status: ('A' for Active; 'I' for Inactive)
REMARK    5  A    between atoms: CA   and  CB  
REMARK    6  A    between atoms: CB   and  CG  
REMARK    7  A    between atoms: CG   and  CD  
ROOT
ATOM     14  CA  GLU D 570     -18.033  -6.348 -13.375  1.00 32.92     0.160 C 
ENDROOT
BRANCH  14  15
ATOM     15  CB  GLU D 570     -19.500  -6.345 -13.794  1.00 32.92     0.043 C 
BRANCH  15  16
ATOM     16  CG  GLU D 570     -20.433  -5.493 -13.013  1.00 32.92     0.100 C 
BRANCH  16  17
ATOM     17  CD  GLU D 570     -21.746  -5.254 -13.721  1.00 32.92     0.185 C 
ATOM     18  OE1 GLU D 570     -22.272  -4.126 -13.658  1.00 32.92    -0.647 OA
ATOM     19  OE2 GLU D 570     -22.264  -6.210 -14.332  1.00 32.92    -0.647 OA
ENDBRANCH  16  17
ENDBRANCH  15  16
ENDBRANCH  14  15
END_RES GLU D 570
ENDMDL
MODEL 2
REMARK VINA RESULT:      -6.2      3.118      4.138
REMARK  2 active torsions:
REMARK  status: ('A' for Active; 'I' for Inactive)
REMARK    1  A    between atoms: C_4  and  C_7 
REMARK    2  A    between atoms: C_7  and  O_8 
ROOT
HETATM    1  C   UNL     1     -22.860  -3.787 -10.286  1.00  0.00     0.000 A 
HETATM    2  C   UNL     1     -24.201  -3.651 -10.651  1.00  0.00     0.001 A 
HETATM    3  C   UNL     1     -24.528  -3.123 -11.901  1.00  0.00     0.017 A 
HETATM    4  C   UNL     1     -23.524  -2.743 -12.795  1.00  0.00     0.042 A 
HETATM    5  C   UNL     1     -22.176  -2.847 -12.399  1.00  0.00     0.017 A 
HETATM    6  C   UNL     1     -21.851  -3.364 -11.147  1.00  0.00     0.001 A 
ENDROOT
BRANCH   4   7
HETATM    7  C   UNL     1     -23.870  -2.399 -14.215  1.00  0.00     0.323 C 
HETATM    8  O   UNL     1     -22.957  -2.365 -15.078  1.00  0.00    -0.257 OA
BRANCH   7   9
HETATM    9  O   UNL     1     -25.042  -1.903 -14.354  1.00  0.00    -0.144 OA
HETATM   10 NA   UNL     2     -25.032   0.071 -14.309  1.00  0.00     0.000 Na
ENDBRANCH   7   9
ENDBRANCH   4   7
TORSDOF 2
BEGIN_RES ARG D 557
REMARK  4 active torsions:
REMARK  status: ('A' for Active; 'I' for Inactive)
REMARK    1  A    between atoms: CA   and  CB  
REMARK    2  A    between atoms: CB   and  CG  
REMARK    3  A    between atoms: CG   and  CD  
REMARK    4  A    between atoms: CD   and  NE  
REMARK       I    between atoms: NE   and  CZ  
REMARK       I    between atoms: CZ   and  NH1 
REMARK       I    between atoms: CZ   and  NH2 
ROOT
ATOM      1  CA  ARG D 557     -26.217   2.705 -17.014  1.00 35.49     0.159 C 
ENDROOT
BRANCH   1   2
ATOM      2  CB  ARG D 557     -26.789   1.319 -17.183  1.00 35.49     0.034 C 
BRANCH   2   3
ATOM      3  CG  ARG D 557     -28.230   1.227 -17.446  1.00 35.49     0.027 C 
BRANCH   3   4
ATOM      4  CD  ARG D 557     -28.917   0.306 -16.511  1.00 35.49     0.116 C 
BRANCH   4   5
ATOM      5  NE  ARG D 557     -29.247  -0.950 -17.131  1.00 35.49    -0.212 N 
ATOM      6  CZ  ARG D 557     -28.579  -2.073 -16.994  1.00 35.49     0.666 C 
ATOM      7  NH1 ARG D 557     -27.488  -2.164 -16.258  1.00 35.49    -0.235 N 
ATOM      8  NH2 ARG D 557     -29.036  -3.122 -17.614  1.00 35.49    -0.235 N 
ATOM      9  HH  ARG D 557     -27.170  -1.487 -15.840  1.00 35.49     0.174 HD
ATOM     10  HH  ARG D 557     -27.095  -2.924 -16.204  1.00 35.49     0.174 HD
ATOM     11  HH  ARG D 557     -29.748  -3.036 -18.077  1.00 35.49     0.174 HD
ATOM     12  HH  ARG D 557     -28.634  -3.866 -17.547  1.00 35.49     0.174 HD
ATOM     13  HE  ARG D 557     -29.896  -0.965 -17.681  1.00 35.49     0.178 HD
ENDBRANCH   4   5
ENDBRANCH   3   4
ENDBRANCH   2   3
ENDBRANCH   1   2
END_RES ARG D 557
BEGIN_RES GLU D 570
REMARK  3 active torsions:
REMARK  status: ('A' for Active; 'I' for Inactive)
REMARK    5  A    between atoms: CA   and  CB  
REMARK    6  A    between atoms: CB   and  CG  
REMARK    7  A    between atoms: CG   and  CD  
ROOT
ATOM     14  CA  GLU D 570     -18.033  -6.348 -13.375  1.00 32.92     0.160 C 
ENDROOT
BRANCH  14  15
ATOM     15  CB  GLU D 570     -19.500  -6.345 -13.794  1.00 32.92     0.043 C 
BRANCH  15  16
ATOM     16  CG  GLU D 570     -19.804  -6.056 -15.219  1.00 32.92     0.100 C 
BRANCH  16  17
ATOM     17  CD  GLU D 570     -21.202  -5.521 -15.427  1.00 32.92     0.185 C 
ATOM     18  OE1 GLU D 570     -22.042  -5.652 -14.515  1.00 32.92    -0.647 OA
ATOM     19  OE2 GLU D 570     -21.465  -4.980 -16.519  1.00 32.92    -0.647 OA
ENDBRANCH  16  17
ENDBRANCH  15  16
ENDBRANCH  14  15
END_RES GLU D 570
ENDMDL
MODEL 3
REMARK VINA RESULT:      -6.2      2.119      2.430
REMARK  2 active torsions:
REMARK  status: ('A' for Active; 'I' for Inactive)
REMARK    1  A    between atoms: C_4  and  C_7 
REMARK    2  A    between atoms: C_7  and  O_8 
ROOT
HETATM    1  C   UNL     1     -20.467  -4.282  -9.749  1.00  0.00     0.000 A 
HETATM    2  C   UNL     1     -20.696  -3.882 -11.067  1.00  0.00     0.001 A 
HETATM    3  C   UNL     1     -22.002  -3.648 -11.502  1.00  0.00     0.017 A 
HETATM    4  C   UNL     1     -23.079  -3.797 -10.626  1.00  0.00     0.042 A 
HETATM    5  C   UNL     1     -22.838  -4.240  -9.311  1.00  0.00     0.017 A 
HETATM    6  C   UNL     1     -21.536  -4.484  -8.881  1.00  0.00     0.001 A 
ENDROOT
BRANCH   4   7
HETATM    7  C   UNL     1     -24.446  -3.322 -11.025  1.00  0.00     0.323 C 
HETATM    8  O   UNL     1     -24.617  -2.847 -12.177  1.00  0.00    -0.257 OA
BRANCH   7   9
HETATM    9  O   UNL     1     -25.257  -3.198 -10.043  1.00  0.00    -0.144 OA
HETATM   10 NA   UNL     2     -26.065  -4.920  -9.515  1.00  0.00     0.000 Na
ENDBRANCH   7   9
ENDBRANCH   4   7
TORSDOF 2
BEGIN_RES ARG D 557
REMARK  4 active torsions:
REMARK  status: ('A' for Active; 'I' for Inactive)
REMARK    1  A    between atoms: CA   and  CB  
REMARK    2  A    between atoms: CB   and  CG  
REMARK    3  A    between atoms: CG   and  CD  
REMARK    4  A    between atoms: CD   and  NE  
REMARK       I    between atoms: NE   and  CZ  
REMARK       I    between atoms: CZ   and  NH1 
REMARK       I    between atoms: CZ   and  NH2 
ROOT
ATOM      1  CA  ARG D 557     -26.217   2.705 -17.014  1.00 35.49     0.159 C 
ENDROOT
BRANCH   1   2
ATOM      2  CB  ARG D 557     -26.789   1.319 -17.183  1.00 35.49     0.034 C 
BRANCH   2   3
ATOM      3  CG  ARG D 557     -28.229   1.164 -16.941  1.00 35.49     0.027 C 
BRANCH   3   4
ATOM      4  CD  ARG D 557     -28.603  -0.236 -16.639  1.00 35.49     0.116 C 
BRANCH   4   5
ATOM      5  NE  ARG D 557     -27.558  -0.938 -15.942  1.00 35.49    -0.212 N 
ATOM      6  CZ  ARG D 557     -27.328  -2.231 -16.002  1.00 35.49     0.666 C 
ATOM      7  NH1 ARG D 557     -28.071  -3.050 -16.724  1.00 35.49    -0.235 N 
ATOM      8  NH2 ARG D 557     -26.322  -2.695 -15.320  1.00 35.49    -0.235 N 
ATOM      9  HH  ARG D 557     -28.737  -2.766 -17.183  1.00 35.49     0.174 HD
ATOM     10  HH  ARG D 557     -27.872  -3.883 -16.727  1.00 35.49     0.174 HD
ATOM     11  HH  ARG D 557     -25.856  -2.141 -14.868  1.00 35.49     0.174 HD
ATOM     12  HH  ARG D 557     -26.140  -3.523 -15.337  1.00 35.49     0.174 HD
ATOM     13  HE  ARG D 557     -27.076  -0.499 -15.396  1.00 35.49     0.178 HD
ENDBRANCH   4   5
ENDBRANCH   3   4
ENDBRANCH   2   3
ENDBRANCH   1   2
END_RES ARG D 557
BEGIN_RES GLU D 570
REMARK  3 active torsions:
REMARK  status: ('A' for Active; 'I' for Inactive)
REMARK    5  A    between atoms: CA   and  CB  
REMARK    6  A    between atoms: CB   and  CG  
REMARK    7  A    between atoms: CG   and  CD  
ROOT
ATOM     14  CA  GLU D 570     -18.033  -6.348 -13.375  1.00 32.92     0.160 C 
ENDROOT
BRANCH  14  15
ATOM     15  CB  GLU D 570     -19.500  -6.345 -13.794  1.00 32.92     0.043 C 
BRANCH  15  16
ATOM     16  CG  GLU D 570     -19.807  -6.014 -15.210  1.00 32.92     0.100 C 
BRANCH  16  17
ATOM     17  CD  GLU D 570     -21.218  -5.509 -15.404  1.00 32.92     0.185 C 
ATOM     18  OE1 GLU D 570     -22.021  -5.575 -14.454  1.00 32.92    -0.647 OA
ATOM     19  OE2 GLU D 570     -21.528  -5.058 -16.524  1.00 32.92    -0.647 OA
ENDBRANCH  16  17
ENDBRANCH  15  16
ENDBRANCH  14  15
END_RES GLU D 570
ENDMDL
MODEL 4
REMARK VINA RESULT:      -6.0      1.446      2.136
REMARK  2 active torsions:
REMARK  status: ('A' for Active; 'I' for Inactive)
REMARK    1  A    between atoms: C_4  and  C_7 
REMARK    2  A    between atoms: C_7  and  O_8 
ROOT
HETATM    1  C   UNL     1     -20.721  -4.148  -8.393  1.00  0.00     0.000 A 
HETATM    2  C   UNL     1     -22.028  -4.009  -7.923  1.00  0.00     0.001 A 
HETATM    3  C   UNL     1     -23.083  -3.900  -8.832  1.00  0.00     0.017 A 
HETATM    4  C   UNL     1     -22.841  -3.944 -10.207  1.00  0.00     0.042 A 
HETATM    5  C   UNL     1     -21.514  -4.043 -10.668  1.00  0.00     0.017 A 
HETATM    6  C   UNL     1     -20.462  -4.141  -9.761  1.00  0.00     0.001 A 
ENDROOT
BRANCH   4   7
HETATM    7  C   UNL     1     -23.987  -4.062 -11.169  1.00  0.00     0.323 C 
HETATM    8  O   UNL     1     -23.823  -4.695 -12.244  1.00  0.00    -0.257 OA
BRANCH   7   9
HETATM    9  O   UNL     1     -24.956  -3.264 -10.918  1.00  0.00    -0.144 OA
HETATM   10 NA   UNL     2     -26.213  -4.005  -9.587  1.00  0.00     0.000 Na
ENDBRANCH   7   9
ENDBRANCH   4   7
TORSDOF 2
BEGIN_RES ARG D 557
REMARK  4 active torsions:
REMARK  status: ('A' for Active; 'I' for Inactive)
REMARK    1  A    between atoms: CA   and  CB  
REMARK    2  A    between atoms: CB   and  CG  
REMARK    3  A    between atoms: CG   and  CD  
REMARK    4  A    between atoms: CD   and  NE  
REMARK       I    between atoms: NE   and  CZ  
REMARK       I    between atoms: CZ   and  NH1 
REMARK       I    between atoms: CZ   and  NH2 
ROOT
ATOM      1  CA  ARG D 557     -26.217   2.705 -17.014  1.00 35.49     0.159 C 
ENDROOT
BRANCH   1   2
ATOM      2  CB  ARG D 557     -26.789   1.319 -17.183  1.00 35.49     0.034 C 
BRANCH   2   3
ATOM      3  CG  ARG D 557     -25.857   0.196 -17.023  1.00 35.49     0.027 C 
BRANCH   3   4
ATOM      4  CD  ARG D 557     -26.173  -0.635 -15.839  1.00 35.49     0.116 C 
BRANCH   4   5
ATOM      5  NE  ARG D 557     -25.018  -0.859 -15.010  1.00 35.49    -0.212 N 
ATOM      6  CZ  ARG D 557     -24.820  -1.901 -14.233  1.00 35.49     0.666 C 
ATOM      7  NH1 ARG D 557     -25.701  -2.878 -14.119  1.00 35.49    -0.235 N 
ATOM      8  NH2 ARG D 557     -23.703  -1.950 -13.567  1.00 35.49    -0.235 N 
ATOM      9  HH  ARG D 557     -26.442  -2.867 -14.550  1.00 35.49     0.174 HD
ATOM     10  HH  ARG D 557     -25.517  -3.533 -13.599  1.00 35.49     0.174 HD
ATOM     11  HH  ARG D 557     -23.150  -1.308 -13.666  1.00 35.49     0.174 HD
ATOM     12  HH  ARG D 557     -23.538  -2.608 -13.059  1.00 35.49     0.174 HD
ATOM     13  HE  ARG D 557     -24.432  -0.244 -14.967  1.00 35.49     0.178 HD
ENDBRANCH   4   5
ENDBRANCH   3   4
ENDBRANCH   2   3
ENDBRANCH   1   2
END_RES ARG D 557
BEGIN_RES GLU D 570
REMARK  3 active torsions:
REMARK  status: ('A' for Active; 'I' for Inactive)
REMARK    5  A    between atoms: CA   and  CB  
REMARK    6  A    between atoms: CB   and  CG  
REMARK    7  A    between atoms: CG   and  CD  
ROOT
ATOM     14  CA  GLU D 570     -18.033  -6.348 -13.375  1.00 32.92     0.160 C 
ENDROOT
BRANCH  14  15
ATOM     15  CB  GLU D 570     -19.500  -6.345 -13.794  1.00 32.92     0.043 C 
BRANCH  15  16
ATOM     16  CG  GLU D 570     -20.114  -7.651 -14.147  1.00 32.92     0.100 C 
BRANCH  16  17
ATOM     17  CD  GLU D 570     -20.973  -7.582 -15.388  1.00 32.92     0.185 C 
ATOM     18  OE1 GLU D 570     -20.803  -8.424 -16.290  1.00 32.92    -0.647 OA
ATOM     19  OE2 GLU D 570     -21.815  -6.665 -15.466  1.00 32.92    -0.647 OA
ENDBRANCH  16  17
ENDBRANCH  15  16
ENDBRANCH  14  15
END_RES GLU D 570
ENDMDL
MODEL 5
REMARK VINA RESULT:      -5.9      1.685      2.042
REMARK  2 active torsions:
REMARK  status: ('A' for Active; 'I' for Inactive)
REMARK    1  A    between atoms: C_4  and  C_7 
REMARK    2  A    between atoms: C_7  and  O_8 
ROOT
HETATM    1  C   UNL     1     -20.820  -4.293  -8.210  1.00  0.00     0.000 A 
HETATM    2  C   UNL     1     -20.776  -4.060  -9.586  1.00  0.00     0.001 A 
HETATM    3  C   UNL     1     -21.959  -3.806 -10.283  1.00  0.00     0.017 A 
HETATM    4  C   UNL     1     -23.184  -3.768  -9.612  1.00  0.00     0.042 A 
HETATM    5  C   UNL     1     -23.219  -4.044  -8.232  1.00  0.00     0.017 A 
HETATM    6  C   UNL     1     -22.039  -4.309  -7.539  1.00  0.00     0.001 A 
ENDROOT
BRANCH   4   7
HETATM    7  C   UNL     1     -24.412  -3.266 -10.315  1.00  0.00     0.323 C 
HETATM    8  O   UNL     1     -25.503  -3.229  -9.691  1.00  0.00    -0.257 OA
BRANCH   7   9
HETATM    9  O   UNL     1     -24.279  -3.176 -11.585  1.00  0.00    -0.144 OA
HETATM   10 NA   UNL     2     -23.214  -1.602 -12.118  1.00  0.00     0.000 Na
ENDBRANCH   7   9
ENDBRANCH   4   7
TORSDOF 2
BEGIN_RES ARG D 557
REMARK  4 active torsions:
REMARK  status: ('A' for Active; 'I' for Inactive)
REMARK    1  A    between atoms: CA   and  CB  
REMARK    2  A    between atoms: CB   and  CG  
REMARK    3  A    between atoms: CG   and  CD  
REMARK    4  A    between atoms: CD   and  NE  
REMARK       I    between atoms: NE   and  CZ  
REMARK       I    between atoms: CZ   and  NH1 
REMARK       I    between atoms: CZ   and  NH2 
ROOT
ATOM      1  CA  ARG D 557     -26.217   2.705 -17.014  1.00 35.49     0.159 C 
ENDROOT
BRANCH   1   2
ATOM      2  CB  ARG D 557     -26.789   1.319 -17.183  1.00 35.49     0.034 C 
BRANCH   2   3
ATOM      3  CG  ARG D 557     -25.944   0.198 -16.753  1.00 35.49     0.027 C 
BRANCH   3   4
ATOM      4  CD  ARG D 557     -26.716  -0.856 -16.057  1.00 35.49     0.116 C 
BRANCH   4   5
ATOM      5  NE  ARG D 557     -25.882  -1.669 -15.211  1.00 35.49    -0.212 N 
ATOM      6  CZ  ARG D 557     -26.028  -2.958 -15.000  1.00 35.49     0.666 C 
ATOM      7  NH1 ARG D 557     -26.999  -3.662 -15.551  1.00 35.49    -0.235 N 
ATOM      8  NH2 ARG D 557     -25.165  -3.540 -14.218  1.00 35.49    -0.235 N 
ATOM      9  HH  ARG D 557     -27.577  -3.300 -16.071  1.00 35.49     0.174 HD
ATOM     10  HH  ARG D 557     -27.043  -4.500 -15.379  1.00 35.49     0.174 HD
ATOM     11  HH  ARG D 557     -24.544  -3.061 -13.881  1.00 35.49     0.174 HD
ATOM     12  HH  ARG D 557     -25.225  -4.371 -14.061  1.00 35.49     0.174 HD
ATOM     13  HE  ARG D 557     -25.275  -1.283 -14.759  1.00 35.49     0.178 HD
ENDBRANCH   4   5
ENDBRANCH   3   4
ENDBRANCH   2   3
ENDBRANCH   1   2
END_RES ARG D 557
BEGIN_RES GLU D 570
REMARK  3 active torsions:
REMARK  status: ('A' for Active; 'I' for Inactive)
REMARK    5  A    between atoms: CA   and  CB  
REMARK    6  A    between atoms: CB   and  CG  
REMARK    7  A    between atoms: CG   and  CD  
ROOT
ATOM     14  CA  GLU D 570     -18.033  -6.348 -13.375  1.00 32.92     0.160 C 
ENDROOT
BRANCH  14  15
ATOM     15  CB  GLU D 570     -19.500  -6.345 -13.794  1.00 32.92     0.043 C 
BRANCH  15  16
ATOM     16  CG  GLU D 570     -20.425  -5.460 -13.040  1.00 32.92     0.100 C 
BRANCH  16  17
ATOM     17  CD  GLU D 570     -21.734  -5.226 -13.759  1.00 32.92     0.185 C 
ATOM     18  OE1 GLU D 570     -22.303  -6.189 -14.309  1.00 32.92    -0.647 OA
ATOM     19  OE2 GLU D 570     -22.186  -4.064 -13.788  1.00 32.92    -0.647 OA
ENDBRANCH  16  17
ENDBRANCH  15  16
ENDBRANCH  14  15
END_RES GLU D 570
ENDMDL
MODEL 6
REMARK VINA RESULT:      -5.8      2.429      2.961
REMARK  2 active torsions:
REMARK  status: ('A' for Active; 'I' for Inactive)
REMARK    1  A    between atoms: C_4  and  C_7 
REMARK    2  A    between atoms: C_7  and  O_8 
ROOT
HETATM    1  C   UNL     1     -20.521  -4.501  -9.277  1.00  0.00     0.000 A 
HETATM    2  C   UNL     1     -21.679  -4.361  -8.510  1.00  0.00     0.001 A 
HETATM    3  C   UNL     1     -22.843  -3.863  -9.099  1.00  0.00     0.017 A 
HETATM    4  C   UNL     1     -22.862  -3.519 -10.453  1.00  0.00     0.042 A 
HETATM    5  C   UNL     1     -21.676  -3.627 -11.205  1.00  0.00     0.017 A 
HETATM    6  C   UNL     1     -20.512  -4.112 -10.613  1.00  0.00     0.001 A 
ENDROOT
BRANCH   4   7
HETATM    7  C   UNL     1     -24.164  -3.211 -11.133  1.00  0.00     0.323 C 
HETATM    8  O   UNL     1     -25.235  -3.307 -10.481  1.00  0.00    -0.257 OA
BRANCH   7   9
HETATM    9  O   UNL     1     -24.076  -3.139 -12.408  1.00  0.00    -0.144 OA
HETATM   10 NA   UNL     2     -23.492  -1.354 -13.020  1.00  0.00     0.000 Na
ENDBRANCH   7   9
ENDBRANCH   4   7
TORSDOF 2
BEGIN_RES ARG D 557
REMARK  4 active torsions:
REMARK  status: ('A' for Active; 'I' for Inactive)
REMARK    1  A    between atoms: CA   and  CB  
REMARK    2  A    between atoms: CB   and  CG  
REMARK    3  A    between atoms: CG   and  CD  
REMARK    4  A    between atoms: CD   and  NE  
REMARK       I    between atoms: NE   and  CZ  
REMARK       I    between atoms: CZ   and  NH1 
REMARK       I    between atoms: CZ   and  NH2 
ROOT
ATOM      1  CA  ARG D 557     -26.217   2.705 -17.014  1.00 35.49     0.159 C 
ENDROOT
BRANCH   1   2
ATOM      2  CB  ARG D 557     -26.789   1.319 -17.183  1.00 35.49     0.034 C 
BRANCH   2   3
ATOM      3  CG  ARG D 557     -28.215   1.151 -16.879  1.00 35.49     0.027 C 
BRANCH   3   4
ATOM      4  CD  ARG D 557     -28.581  -0.266 -16.652  1.00 35.49     0.116 C 
BRANCH   4   5
ATOM      5  NE  ARG D 557     -27.571  -0.974 -15.910  1.00 35.49    -0.212 N 
ATOM      6  CZ  ARG D 557     -27.325  -2.263 -15.986  1.00 35.49     0.666 C 
ATOM      7  NH1 ARG D 557     -28.014  -3.072 -16.769  1.00 35.49    -0.235 N 
ATOM      8  NH2 ARG D 557     -26.356  -2.733 -15.256  1.00 35.49    -0.235 N 
ATOM      9  HH  ARG D 557     -28.655  -2.784 -17.260  1.00 35.49     0.174 HD
ATOM     10  HH  ARG D 557     -27.807  -3.903 -16.779  1.00 35.49     0.174 HD
ATOM     11  HH  ARG D 557     -25.923  -2.186 -14.765  1.00 35.49     0.174 HD
ATOM     12  HH  ARG D 557     -26.164  -3.558 -15.281  1.00 35.49     0.174 HD
ATOM     13  HE  ARG D 557     -27.128  -0.543 -15.327  1.00 35.49     0.178 HD
ENDBRANCH   4   5
ENDBRANCH   3   4
ENDBRANCH   2   3
ENDBRANCH   1   2
END_RES ARG D 557
BEGIN_RES GLU D 570
REMARK  3 active torsions:
REMARK  status: ('A' for Active; 'I' for Inactive)
REMARK    5  A    between atoms: CA   and  CB  
REMARK    6  A    between atoms: CB   and  CG  
REMARK    7  A    between atoms: CG   and  CD  
ROOT
ATOM     14  CA  GLU D 570     -18.033  -6.348 -13.375  1.00 32.92     0.160 C 
ENDROOT
BRANCH  14  15
ATOM     15  CB  GLU D 570     -19.500  -6.345 -13.794  1.00 32.92     0.043 C 
BRANCH  15  16
ATOM     16  CG  GLU D 570     -19.802  -6.095 -15.227  1.00 32.92     0.100 C 
BRANCH  16  17
ATOM     17  CD  GLU D 570     -21.111  -5.370 -15.435  1.00 32.92     0.185 C 
ATOM     18  OE1 GLU D 570     -21.493  -5.131 -16.597  1.00 32.92    -0.647 OA
ATOM     19  OE2 GLU D 570     -21.754  -5.021 -14.425  1.00 32.92    -0.647 OA
ENDBRANCH  16  17
ENDBRANCH  15  16
ENDBRANCH  14  15
END_RES GLU D 570
ENDMDL
MODEL 7
REMARK VINA RESULT:      -5.7      2.754      3.790
REMARK  2 active torsions:
REMARK  status: ('A' for Active; 'I' for Inactive)
REMARK    1  A    between atoms: C_4  and  C_7 
REMARK    2  A    between atoms: C_7  and  O_8 
ROOT
HETATM    1  C   UNL     1     -22.736  -4.160 -14.308  1.00  0.00     0.000 A 
HETATM    2  C   UNL     1     -23.045  -2.851 -13.933  1.00  0.00     0.001 A 
HETATM    3  C   UNL     1     -23.591  -2.604 -12.672  1.00  0.00     0.017 A 
HETATM    4  C   UNL     1     -23.817  -3.653 -11.778  1.00  0.00     0.042 A 
HETATM    5  C   UNL     1     -23.539  -4.973 -12.184  1.00  0.00     0.017 A 
HETATM    6  C   UNL     1     -23.004  -5.220 -13.447  1.00  0.00     0.001 A 
ENDROOT
BRANCH   4   7
HETATM    7  C   UNL     1     -24.180  -3.362 -10.351  1.00  0.00     0.323 C 
HETATM    8  O   UNL     1     -23.311  -3.510  -9.454  1.00  0.00    -0.257 OA
BRANCH   7   9
HETATM    9  O   UNL     1     -25.439  -3.247 -10.152  1.00  0.00    -0.144 OA
HETATM   10 NA   UNL     2     -26.246  -4.915  -9.468  1.00  0.00     0.000 Na
ENDBRANCH   7   9
ENDBRANCH   4   7
TORSDOF 2
BEGIN_RES ARG D 557
REMARK  4 active torsions:
REMARK  status: ('A' for Active; 'I' for Inactive)
REMARK    1  A    between atoms: CA   and  CB  
REMARK    2  A    between atoms: CB   and  CG  
REMARK    3  A    between atoms: CG   and  CD  
REMARK    4  A    between atoms: CD   and  NE  
REMARK       I    between atoms: NE   and  CZ  
REMARK       I    between atoms: CZ   and  NH1 
REMARK       I    between atoms: CZ   and  NH2 
ROOT
ATOM      1  CA  ARG D 557     -26.217   2.705 -17.014  1.00 35.49     0.159 C 
ENDROOT
BRANCH   1   2
ATOM      2  CB  ARG D 557     -26.789   1.319 -17.183  1.00 35.49     0.034 C 
BRANCH   2   3
ATOM      3  CG  ARG D 557     -28.214   1.150 -16.875  1.00 35.49     0.027 C 
BRANCH   3   4
ATOM      4  CD  ARG D 557     -28.592  -0.272 -16.713  1.00 35.49     0.116 C 
BRANCH   4   5
ATOM      5  NE  ARG D 557     -27.583  -1.025 -16.015  1.00 35.49    -0.212 N 
ATOM      6  CZ  ARG D 557     -27.411  -2.326 -16.083  1.00 35.49     0.666 C 
ATOM      7  NH1 ARG D 557     -28.183  -3.106 -16.817  1.00 35.49    -0.235 N 
ATOM      8  NH2 ARG D 557     -26.430  -2.839 -15.398  1.00 35.49    -0.235 N 
ATOM      9  HH  ARG D 557     -28.833  -2.790 -17.277  1.00 35.49     0.174 HD
ATOM     10  HH  ARG D 557     -28.022  -3.947 -16.825  1.00 35.49     0.174 HD
ATOM     11  HH  ARG D 557     -25.943  -2.310 -14.939  1.00 35.49     0.174 HD
ATOM     12  HH  ARG D 557     -26.285  -3.674 -15.421  1.00 35.49     0.174 HD
ATOM     13  HE  ARG D 557     -27.087  -0.611 -15.462  1.00 35.49     0.178 HD
ENDBRANCH   4   5
ENDBRANCH   3   4
ENDBRANCH   2   3
ENDBRANCH   1   2
END_RES ARG D 557
BEGIN_RES GLU D 570
REMARK  3 active torsions:
REMARK  status: ('A' for Active; 'I' for Inactive)
REMARK    5  A    between atoms: CA   and  CB  
REMARK    6  A    between atoms: CB   and  CG  
REMARK    7  A    between atoms: CG   and  CD  
ROOT
ATOM     14  CA  GLU D 570     -18.033  -6.348 -13.375  1.00 32.92     0.160 C 
ENDROOT
BRANCH  14  15
ATOM     15  CB  GLU D 570     -19.500  -6.345 -13.794  1.00 32.92     0.043 C 
BRANCH  15  16
ATOM     16  CG  GLU D 570     -20.083  -7.632 -14.253  1.00 32.92     0.100 C 
BRANCH  16  17
ATOM     17  CD  GLU D 570     -20.730  -7.533 -15.615  1.00 32.92     0.185 C 
ATOM     18  OE1 GLU D 570     -21.288  -8.539 -16.095  1.00 32.92    -0.647 OA
ATOM     19  OE2 GLU D 570     -20.663  -6.443 -16.216  1.00 32.92    -0.647 OA
ENDBRANCH  16  17
ENDBRANCH  15  16
ENDBRANCH  14  15
END_RES GLU D 570
ENDMDL
MODEL 8
REMARK VINA RESULT:      -5.3     11.321     13.370
REMARK  2 active torsions:
REMARK  status: ('A' for Active; 'I' for Inactive)
REMARK    1  A    between atoms: C_4  and  C_7 
REMARK    2  A    between atoms: C_7  and  O_8 
ROOT
HETATM    1  C   UNL     1     -12.615   3.071 -21.248  1.00  0.00     0.000 A 
HETATM    2  C   UNL     1     -13.002   4.413 -21.278  1.00  0.00     0.001 A 
HETATM    3  C   UNL     1     -12.169   5.386 -20.721  1.00  0.00     0.017 A 
HETATM    4  C   UNL     1     -10.947   5.029 -20.147  1.00  0.00     0.042 A 
HETATM    5  C   UNL     1     -10.587   3.669 -20.087  1.00  0.00     0.017 A 
HETATM    6  C   UNL     1     -11.424   2.697 -20.634  1.00  0.00     0.001 A 
ENDROOT
BRANCH   4   7
HETATM    7  C   UNL     1      -9.957   6.090 -19.764  1.00  0.00     0.323 C 
HETATM    8  O   UNL     1      -8.870   6.171 -20.391  1.00  0.00    -0.257 OA
BRANCH   7   9
HETATM    9  O   UNL     1     -10.208   6.648 -18.639  1.00  0.00    -0.144 OA
HETATM   10 NA   UNL     2      -9.125   5.895 -17.170  1.00  0.00     0.000 Na
ENDBRANCH   7   9
ENDBRANCH   4   7
TORSDOF 2
BEGIN_RES ARG D 557
REMARK  4 active torsions:
REMARK  status: ('A' for Active; 'I' for Inactive)
REMARK    1  A    between atoms: CA   and  CB  
REMARK    2  A    between atoms: CB   and  CG  
REMARK    3  A    between atoms: CG   and  CD  
REMARK    4  A    between atoms: CD   and  NE  
REMARK       I    between atoms: NE   and  CZ  
REMARK       I    between atoms: CZ   and  NH1 
REMARK       I    between atoms: CZ   and  NH2 
ROOT
ATOM      1  CA  ARG D 557     -26.217   2.705 -17.014  1.00 35.49     0.159 C 
ENDROOT
BRANCH   1   2
ATOM      2  CB  ARG D 557     -26.789   1.319 -17.183  1.00 35.49     0.034 C 
BRANCH   2   3
ATOM      3  CG  ARG D 557     -25.835   0.204 -17.164  1.00 35.49     0.027 C 
BRANCH   3   4
ATOM      4  CD  ARG D 557     -24.746   0.410 -16.182  1.00 35.49     0.116 C 
BRANCH   4   5
ATOM      5  NE  ARG D 557     -24.893  -0.433 -15.024  1.00 35.49    -0.212 N 
ATOM      6  CZ  ARG D 557     -24.078  -1.402 -14.671  1.00 35.49     0.666 C 
ATOM      7  NH1 ARG D 557     -23.009  -1.722 -15.376  1.00 35.49    -0.235 N 
ATOM      8  NH2 ARG D 557     -24.355  -2.050 -13.577  1.00 35.49    -0.235 N 
ATOM      9  HH  ARG D 557     -22.807  -1.307 -16.099  1.00 35.49     0.174 HD
ATOM     10  HH  ARG D 557     -22.513  -2.361 -15.096  1.00 35.49     0.174 HD
ATOM     11  HH  ARG D 557     -25.048  -1.816 -13.138  1.00 35.49     0.174 HD
ATOM     12  HH  ARG D 557     -23.850  -2.679 -13.315  1.00 35.49     0.174 HD
ATOM     13  HE  ARG D 557     -25.594  -0.344 -14.552  1.00 35.49     0.178 HD
ENDBRANCH   4   5
ENDBRANCH   3   4
ENDBRANCH   2   3
ENDBRANCH   1   2
END_RES ARG D 557
BEGIN_RES GLU D 570
REMARK  3 active torsions:
REMARK  status: ('A' for Active; 'I' for Inactive)
REMARK    5  A    between atoms: CA   and  CB  
REMARK    6  A    between atoms: CB   and  CG  
REMARK    7  A    between atoms: CG   and  CD  
ROOT
ATOM     14  CA  GLU D 570     -18.033  -6.348 -13.375  1.00 32.92     0.160 C 
ENDROOT
BRANCH  14  15
ATOM     15  CB  GLU D 570     -19.500  -6.345 -13.794  1.00 32.92     0.043 C 
BRANCH  15  16
ATOM     16  CG  GLU D 570     -20.441  -5.525 -12.988  1.00 32.92     0.100 C 
BRANCH  16  17
ATOM     17  CD  GLU D 570     -21.747  -5.257 -13.698  1.00 32.92     0.185 C 
ATOM     18  OE1 GLU D 570     -22.230  -6.142 -14.430  1.00 32.92    -0.647 OA
ATOM     19  OE2 GLU D 570     -22.284  -4.144 -13.534  1.00 32.92    -0.647 OA
ENDBRANCH  16  17
ENDBRANCH  15  16
ENDBRANCH  14  15
END_RES GLU D 570
ENDMDL
MODEL 9
REMARK VINA RESULT:      -5.3      2.647      3.185
REMARK  2 active torsions:
REMARK  status: ('A' for Active; 'I' for Inactive)
REMARK    1  A    between atoms: C_4  and  C_7 
REMARK    2  A    between atoms: C_7  and  O_8 
ROOT
HETATM    1  C   UNL     1     -20.668  -4.511  -9.085  1.00  0.00     0.000 A 
HETATM    2  C   UNL     1     -21.962  -4.151  -8.705  1.00  0.00     0.001 A 
HETATM    3  C   UNL     1     -22.867  -3.702  -9.670  1.00  0.00     0.017 A 
HETATM    4  C   UNL     1     -22.491  -3.626 -11.013  1.00  0.00     0.042 A 
HETATM    5  C   UNL     1     -21.171  -3.954 -11.377  1.00  0.00     0.017 A 
HETATM    6  C   UNL     1     -20.265  -4.390 -10.412  1.00  0.00     0.001 A 
ENDROOT
BRANCH   4   7
HETATM    7  C   UNL     1     -23.526  -3.372 -12.071  1.00  0.00     0.323 C 
HETATM    8  O   UNL     1     -24.662  -2.953 -11.730  1.00  0.00    -0.257 OA
BRANCH   7   9
HETATM    9  O   UNL     1     -23.230  -3.870 -13.212  1.00  0.00    -0.144 OA
HETATM   10 NA   UNL     2     -21.918  -2.769 -14.195  1.00  0.00     0.000 Na
ENDBRANCH   7   9
ENDBRANCH   4   7
TORSDOF 2
BEGIN_RES ARG D 557
REMARK  4 active torsions:
REMARK  status: ('A' for Active; 'I' for Inactive)
REMARK    1  A    between atoms: CA   and  CB  
REMARK    2  A    between atoms: CB   and  CG  
REMARK    3  A    between atoms: CG   and  CD  
REMARK    4  A    between atoms: CD   and  NE  
REMARK       I    between atoms: NE   and  CZ  
REMARK       I    between atoms: CZ   and  NH1 
REMARK       I    between atoms: CZ   and  NH2 
ROOT
ATOM      1  CA  ARG D 557     -26.217   2.705 -17.014  1.00 35.49     0.159 C 
ENDROOT
BRANCH   1   2
ATOM      2  CB  ARG D 557     -26.789   1.319 -17.183  1.00 35.49     0.034 C 
BRANCH   2   3
ATOM      3  CG  ARG D 557     -26.064   0.221 -16.533  1.00 35.49     0.027 C 
BRANCH   3   4
ATOM      4  CD  ARG D 557     -26.957  -0.895 -16.146  1.00 35.49     0.116 C 
BRANCH   4   5
ATOM      5  NE  ARG D 557     -26.274  -1.889 -15.360  1.00 35.49    -0.212 N 
ATOM      6  CZ  ARG D 557     -26.524  -3.179 -15.369  1.00 35.49     0.666 C 
ATOM      7  NH1 ARG D 557     -27.472  -3.713 -16.117  1.00 35.49    -0.235 N 
ATOM      8  NH2 ARG D 557     -25.791  -3.938 -14.607  1.00 35.49    -0.235 N 
ATOM      9  HH  ARG D 557     -27.966  -3.233 -16.627  1.00 35.49     0.174 HD
ATOM     10  HH  ARG D 557     -27.588  -4.561 -16.083  1.00 35.49     0.174 HD
ATOM     11  HH  ARG D 557     -25.181  -3.566 -14.141  1.00 35.49     0.174 HD
ATOM     12  HH  ARG D 557     -25.920  -4.776 -14.589  1.00 35.49     0.174 HD
ATOM     13  HE  ARG D 557     -25.697  -1.624 -14.795  1.00 35.49     0.178 HD
ENDBRANCH   4   5
ENDBRANCH   3   4
ENDBRANCH   2   3
ENDBRANCH   1   2
END_RES ARG D 557
BEGIN_RES GLU D 570
REMARK  3 active torsions:
REMARK  status: ('A' for Active; 'I' for Inactive)
REMARK    5  A    between atoms: CA   and  CB  
REMARK    6  A    between atoms: CB   and  CG  
REMARK    7  A    between atoms: CG   and  CD  
ROOT
ATOM     14  CA  GLU D 570     -18.033  -6.348 -13.375  1.00 32.92     0.160 C 
ENDROOT
BRANCH  14  15
ATOM     15  CB  GLU D 570     -19.500  -6.345 -13.794  1.00 32.92     0.043 C 
BRANCH  15  16
ATOM     16  CG  GLU D 570     -20.086  -7.634 -14.244  1.00 32.92     0.100 C 
BRANCH  16  17
ATOM     17  CD  GLU D 570     -20.635  -7.573 -15.651  1.00 32.92     0.185 C 
ATOM     18  OE1 GLU D 570     -20.603  -6.490 -16.266  1.00 32.92    -0.647 OA
ATOM     19  OE2 GLU D 570     -21.116  -8.615 -16.136  1.00 32.92    -0.647 OA
ENDBRANCH  16  17
ENDBRANCH  15  16
ENDBRANCH  14  15
END_RES GLU D 570
ENDMDL
