MODEL 1
REMARK VINA RESULT:      -5.5      0.000      0.000
REMARK  2 active torsions:
REMARK  status: ('A' for Active; 'I' for Inactive)
REMARK    1  A    between atoms: CA_3  and  C_6 
REMARK    2  A    between atoms: C_6  and  OXT_8 
ROOT
ATOM      1  CG  PRO A   1     -21.373  -3.795 -10.207  1.00  0.00     0.030 C 
ATOM      2  CB  PRO A   1     -22.301  -4.737  -9.456  1.00  0.00     0.045 C 
ATOM      3  CA  PRO A   1     -23.532  -4.809 -10.338  1.00  0.00     0.282 C 
ATOM      4  N   PRO A   1     -22.934  -4.768 -11.743  1.00  0.00    -0.061 N 
ATOM      5  CD  PRO A   1     -21.586  -4.119 -11.676  1.00  0.00     0.233 C 
ATOM      6  H1  PRO A   1     -23.568  -4.195 -12.330  1.00  0.00     0.278 HD
ATOM      7  H2  PRO A   1     -22.885  -5.703 -12.167  1.00  0.00     0.278 HD
ENDROOT
BRANCH   3   8
ATOM      8  C   PRO A   1     -24.489  -3.624 -10.168  1.00  0.00     0.171 C 
ATOM      9  O   PRO A   1     -25.073  -3.166 -11.143  1.00  0.00    -0.648 OA
BRANCH   8  10
ATOM     10  OXT PRO A   1     -24.658  -3.156  -8.921  1.00  0.00    -0.775 OA
ATOM     11  HXT PRO A   1     -23.952  -3.273  -8.255  1.00  0.00     0.167 HD
ENDBRANCH   8  10
ENDBRANCH   3   8
TORSDOF 2
BEGIN_RES ARG D 557
REMARK  4 active torsions:
REMARK  status: ('A' for Active; 'I' for Inactive)
REMARK    1  A    between atoms: CA   and  CB  
REMARK    2  A    between atoms: CB   and  CG  
REMARK    3  A    between atoms: CG   and  CD  
REMARK    4  A    between atoms: CD   and  NE  
REMARK       I    between atoms: NE   and  CZ  
REMARK       I    between atoms: CZ   and  NH1 
REMARK       I    between atoms: CZ   and  NH2 
ROOT
ATOM      1  CA  ARG D 557     -26.217   2.705 -17.014  1.00 35.49     0.159 C 
ENDROOT
BRANCH   1   2
ATOM      2  CB  ARG D 557     -26.789   1.319 -17.183  1.00 35.49     0.034 C 
BRANCH   2   3
ATOM      3  CG  ARG D 557     -25.856   0.196 -17.028  1.00 35.49     0.027 C 
BRANCH   3   4
ATOM      4  CD  ARG D 557     -26.208  -0.676 -15.884  1.00 35.49     0.116 C 
BRANCH   4   5
ATOM      5  NE  ARG D 557     -25.103  -0.856 -14.980  1.00 35.49    -0.212 N 
ATOM      6  CZ  ARG D 557     -24.849  -1.943 -14.284  1.00 35.49     0.666 C 
ATOM      7  NH1 ARG D 557     -25.619  -3.014 -14.336  1.00 35.49    -0.235 N 
ATOM      8  NH2 ARG D 557     -23.789  -1.938 -13.529  1.00 35.49    -0.235 N 
ATOM      9  HH  ARG D 557     -26.320  -3.040 -14.828  1.00 35.49     0.174 HD
ATOM     10  HH  ARG D 557     -25.402  -3.694 -13.863  1.00 35.49     0.174 HD
ATOM     11  HH  ARG D 557     -23.307  -1.235 -13.522  1.00 35.49     0.174 HD
ATOM     12  HH  ARG D 557     -23.591  -2.622 -13.069  1.00 35.49     0.174 HD
ATOM     13  HE  ARG D 557     -24.597  -0.190 -14.830  1.00 35.49     0.178 HD
ENDBRANCH   4   5
ENDBRANCH   3   4
ENDBRANCH   2   3
ENDBRANCH   1   2
END_RES ARG D 557
BEGIN_RES GLU D 570
REMARK  3 active torsions:
REMARK  status: ('A' for Active; 'I' for Inactive)
REMARK    5  A    between atoms: CA   and  CB  
REMARK    6  A    between atoms: CB   and  CG  
REMARK    7  A    between atoms: CG   and  CD  
ROOT
ATOM     14  CA  GLU D 570     -18.033  -6.348 -13.375  1.00 32.92     0.160 C 
ENDROOT
BRANCH  14  15
ATOM     15  CB  GLU D 570     -19.500  -6.345 -13.794  1.00 32.92     0.043 C 
BRANCH  15  16
ATOM     16  CG  GLU D 570     -19.812  -5.951 -15.192  1.00 32.92     0.100 C 
BRANCH  16  17
ATOM     17  CD  GLU D 570     -21.266  -5.592 -15.393  1.00 32.92     0.185 C 
ATOM     18  OE1 GLU D 570     -21.587  -4.893 -16.374  1.00 32.92    -0.647 OA
ATOM     19  OE2 GLU D 570     -22.090  -5.999 -14.551  1.00 32.92    -0.647 OA
ENDBRANCH  16  17
ENDBRANCH  15  16
ENDBRANCH  14  15
END_RES GLU D 570
ENDMDL
MODEL 2
REMARK VINA RESULT:      -5.3      3.222      5.023
REMARK  2 active torsions:
REMARK  status: ('A' for Active; 'I' for Inactive)
REMARK    1  A    between atoms: CA_3  and  C_6 
REMARK    2  A    between atoms: C_6  and  OXT_8 
ROOT
ATOM      1  CG  PRO A   1     -28.282  -5.184 -15.540  1.00  0.00     0.030 C 
ATOM      2  CB  PRO A   1     -27.260  -4.942 -16.639  1.00  0.00     0.045 C 
ATOM      3  CA  PRO A   1     -26.349  -6.152 -16.558  1.00  0.00     0.282 C 
ATOM      4  N   PRO A   1     -27.326  -7.275 -16.214  1.00  0.00    -0.061 N 
ATOM      5  CD  PRO A   1     -28.535  -6.682 -15.559  1.00  0.00     0.233 C 
ATOM      6  H1  PRO A   1     -26.844  -7.908 -15.549  1.00  0.00     0.278 HD
ATOM      7  H2  PRO A   1     -27.576  -7.834 -17.040  1.00  0.00     0.278 HD
ENDROOT
BRANCH   3   8
ATOM      8  C   PRO A   1     -25.287  -6.059 -15.458  1.00  0.00     0.171 C 
ATOM      9  O   PRO A   1     -24.871  -7.080 -14.922  1.00  0.00    -0.648 OA
BRANCH   8  10
ATOM     10  OXT PRO A   1     -24.841  -4.832 -15.149  1.00  0.00    -0.775 OA
ATOM     11  HXT PRO A   1     -25.257  -4.044 -15.552  1.00  0.00     0.167 HD
ENDBRANCH   8  10
ENDBRANCH   3   8
TORSDOF 2
BEGIN_RES ARG D 557
REMARK  4 active torsions:
REMARK  status: ('A' for Active; 'I' for Inactive)
REMARK    1  A    between atoms: CA   and  CB  
REMARK    2  A    between atoms: CB   and  CG  
REMARK    3  A    between atoms: CG   and  CD  
REMARK    4  A    between atoms: CD   and  NE  
REMARK       I    between atoms: NE   and  CZ  
REMARK       I    between atoms: CZ   and  NH1 
REMARK       I    between atoms: CZ   and  NH2 
ROOT
ATOM      1  CA  ARG D 557     -26.217   2.705 -17.014  1.00 35.49     0.159 C 
ENDROOT
BRANCH   1   2
ATOM      2  CB  ARG D 557     -26.789   1.319 -17.183  1.00 35.49     0.034 C 
BRANCH   2   3
ATOM      3  CG  ARG D 557     -25.839   0.201 -17.130  1.00 35.49     0.027 C 
BRANCH   3   4
ATOM      4  CD  ARG D 557     -24.768   0.418 -16.131  1.00 35.49     0.116 C 
BRANCH   4   5
ATOM      5  NE  ARG D 557     -24.893  -0.465 -15.001  1.00 35.49    -0.212 N 
ATOM      6  CZ  ARG D 557     -24.059  -1.431 -14.686  1.00 35.49     0.666 C 
ATOM      7  NH1 ARG D 557     -22.990  -1.709 -15.408  1.00 35.49    -0.235 N 
ATOM      8  NH2 ARG D 557     -24.318  -2.120 -13.612  1.00 35.49    -0.235 N 
ATOM      9  HH  ARG D 557     -22.799  -1.267 -16.117  1.00 35.49     0.174 HD
ATOM     10  HH  ARG D 557     -22.480  -2.349 -15.151  1.00 35.49     0.174 HD
ATOM     11  HH  ARG D 557     -25.012  -1.913 -13.161  1.00 35.49     0.174 HD
ATOM     12  HH  ARG D 557     -23.801  -2.748 -13.374  1.00 35.49     0.174 HD
ATOM     13  HE  ARG D 557     -25.593  -0.404 -14.522  1.00 35.49     0.178 HD
ENDBRANCH   4   5
ENDBRANCH   3   4
ENDBRANCH   2   3
ENDBRANCH   1   2
END_RES ARG D 557
BEGIN_RES GLU D 570
REMARK  3 active torsions:
REMARK  status: ('A' for Active; 'I' for Inactive)
REMARK    5  A    between atoms: CA   and  CB  
REMARK    6  A    between atoms: CB   and  CG  
REMARK    7  A    between atoms: CG   and  CD  
ROOT
ATOM     14  CA  GLU D 570     -18.033  -6.348 -13.375  1.00 32.92     0.160 C 
ENDROOT
BRANCH  14  15
ATOM     15  CB  GLU D 570     -19.500  -6.345 -13.794  1.00 32.92     0.043 C 
BRANCH  15  16
ATOM     16  CG  GLU D 570     -20.444  -5.541 -12.975  1.00 32.92     0.100 C 
BRANCH  16  17
ATOM     17  CD  GLU D 570     -21.706  -5.175 -13.721  1.00 32.92     0.185 C 
ATOM     18  OE1 GLU D 570     -21.778  -5.413 -14.942  1.00 32.92    -0.647 OA
ATOM     19  OE2 GLU D 570     -22.626  -4.628 -13.081  1.00 32.92    -0.647 OA
ENDBRANCH  16  17
ENDBRANCH  15  16
ENDBRANCH  14  15
END_RES GLU D 570
ENDMDL
MODEL 3
REMARK VINA RESULT:      -5.3      2.671      3.317
REMARK  2 active torsions:
REMARK  status: ('A' for Active; 'I' for Inactive)
REMARK    1  A    between atoms: CA_3  and  C_6 
REMARK    2  A    between atoms: C_6  and  OXT_8 
ROOT
ATOM      1  CG  PRO A   1     -22.352  -2.836 -11.668  1.00  0.00     0.030 C 
ATOM      2  CB  PRO A   1     -23.718  -2.842 -12.337  1.00  0.00     0.045 C 
ATOM      3  CA  PRO A   1     -23.542  -3.792 -13.507  1.00  0.00     0.282 C 
ATOM      4  N   PRO A   1     -22.613  -4.857 -12.929  1.00  0.00    -0.061 N 
ATOM      5  CD  PRO A   1     -21.849  -4.265 -11.786  1.00  0.00     0.233 C 
ATOM      6  H1  PRO A   1     -21.956  -5.134 -13.682  1.00  0.00     0.278 HD
ATOM      7  H2  PRO A   1     -23.126  -5.702 -12.646  1.00  0.00     0.278 HD
ENDROOT
BRANCH   3   8
ATOM      8  C   PRO A   1     -22.874  -3.155 -14.729  1.00  0.00     0.171 C 
ATOM      9  O   PRO A   1     -23.218  -2.040 -15.103  1.00  0.00    -0.648 OA
BRANCH   8  10
ATOM     10  OXT PRO A   1     -21.904  -3.864 -15.327  1.00  0.00    -0.775 OA
ATOM     11  HXT PRO A   1     -22.102  -4.746 -15.699  1.00  0.00     0.167 HD
ENDBRANCH   8  10
ENDBRANCH   3   8
TORSDOF 2
BEGIN_RES ARG D 557
REMARK  4 active torsions:
REMARK  status: ('A' for Active; 'I' for Inactive)
REMARK    1  A    between atoms: CA   and  CB  
REMARK    2  A    between atoms: CB   and  CG  
REMARK    3  A    between atoms: CG   and  CD  
REMARK    4  A    between atoms: CD   and  NE  
REMARK       I    between atoms: NE   and  CZ  
REMARK       I    between atoms: CZ   and  NH1 
REMARK       I    between atoms: CZ   and  NH2 
ROOT
ATOM      1  CA  ARG D 557     -26.217   2.705 -17.014  1.00 35.49     0.159 C 
ENDROOT
BRANCH   1   2
ATOM      2  CB  ARG D 557     -26.789   1.319 -17.183  1.00 35.49     0.034 C 
BRANCH   2   3
ATOM      3  CG  ARG D 557     -28.217   1.153 -16.888  1.00 35.49     0.027 C 
BRANCH   3   4
ATOM      4  CD  ARG D 557     -28.591  -0.265 -16.683  1.00 35.49     0.116 C 
BRANCH   4   5
ATOM      5  NE  ARG D 557     -27.578  -0.994 -15.967  1.00 35.49    -0.212 N 
ATOM      6  CZ  ARG D 557     -27.370  -2.290 -16.037  1.00 35.49     0.666 C 
ATOM      7  NH1 ARG D 557     -28.105  -3.087 -16.790  1.00 35.49    -0.235 N 
ATOM      8  NH2 ARG D 557     -26.391  -2.780 -15.332  1.00 35.49    -0.235 N 
ATOM      9  HH  ARG D 557     -28.753  -2.786 -17.263  1.00 35.49     0.174 HD
ATOM     10  HH  ARG D 557     -27.921  -3.924 -16.798  1.00 35.49     0.174 HD
ATOM     11  HH  ARG D 557     -25.928  -2.240 -14.861  1.00 35.49     0.174 HD
ATOM     12  HH  ARG D 557     -26.224  -3.611 -15.355  1.00 35.49     0.174 HD
ATOM     13  HE  ARG D 557     -27.104  -0.570 -15.402  1.00 35.49     0.178 HD
ENDBRANCH   4   5
ENDBRANCH   3   4
ENDBRANCH   2   3
ENDBRANCH   1   2
END_RES ARG D 557
BEGIN_RES GLU D 570
REMARK  3 active torsions:
REMARK  status: ('A' for Active; 'I' for Inactive)
REMARK    5  A    between atoms: CA   and  CB  
REMARK    6  A    between atoms: CB   and  CG  
REMARK    7  A    between atoms: CG   and  CD  
ROOT
ATOM     14  CA  GLU D 570     -18.033  -6.348 -13.375  1.00 32.92     0.160 C 
ENDROOT
BRANCH  14  15
ATOM     15  CB  GLU D 570     -19.500  -6.345 -13.794  1.00 32.92     0.043 C 
BRANCH  15  16
ATOM     16  CG  GLU D 570     -20.115  -7.652 -14.143  1.00 32.92     0.100 C 
BRANCH  16  17
ATOM     17  CD  GLU D 570     -21.032  -7.570 -15.341  1.00 32.92     0.185 C 
ATOM     18  OE1 GLU D 570     -20.849  -8.348 -16.297  1.00 32.92    -0.647 OA
ATOM     19  OE2 GLU D 570     -21.932  -6.708 -15.331  1.00 32.92    -0.647 OA
ENDBRANCH  16  17
ENDBRANCH  15  16
ENDBRANCH  14  15
END_RES GLU D 570
ENDMDL
MODEL 4
REMARK VINA RESULT:      -5.2      1.594      2.005
REMARK  2 active torsions:
REMARK  status: ('A' for Active; 'I' for Inactive)
REMARK    1  A    between atoms: CA_3  and  C_6 
REMARK    2  A    between atoms: C_6  and  OXT_8 
ROOT
ATOM      1  CG  PRO A   1     -21.718  -3.036 -11.397  1.00  0.00     0.030 C 
ATOM      2  CB  PRO A   1     -21.928  -4.229 -10.478  1.00  0.00     0.045 C 
ATOM      3  CA  PRO A   1     -23.374  -4.619 -10.717  1.00  0.00     0.282 C 
ATOM      4  N   PRO A   1     -23.541  -4.361 -12.213  1.00  0.00    -0.061 N 
ATOM      5  CD  PRO A   1     -22.518  -3.357 -12.648  1.00  0.00     0.233 C 
ATOM      6  H1  PRO A   1     -24.492  -3.974 -12.354  1.00  0.00     0.278 HD
ATOM      7  H2  PRO A   1     -23.479  -5.228 -12.762  1.00  0.00     0.278 HD
ENDROOT
BRANCH   3   8
ATOM      8  C   PRO A   1     -24.385  -3.764  -9.947  1.00  0.00     0.171 C 
ATOM      9  O   PRO A   1     -25.305  -3.218 -10.545  1.00  0.00    -0.648 OA
BRANCH   8  10
ATOM     10  OXT PRO A   1     -24.216  -3.676  -8.618  1.00  0.00    -0.775 OA
ATOM     11  HXT PRO A   1     -24.976  -3.811  -8.019  1.00  0.00     0.167 HD
ENDBRANCH   8  10
ENDBRANCH   3   8
TORSDOF 2
BEGIN_RES ARG D 557
REMARK  4 active torsions:
REMARK  status: ('A' for Active; 'I' for Inactive)
REMARK    1  A    between atoms: CA   and  CB  
REMARK    2  A    between atoms: CB   and  CG  
REMARK    3  A    between atoms: CG   and  CD  
REMARK    4  A    between atoms: CD   and  NE  
REMARK       I    between atoms: NE   and  CZ  
REMARK       I    between atoms: CZ   and  NH1 
REMARK       I    between atoms: CZ   and  NH2 
ROOT
ATOM      1  CA  ARG D 557     -26.217   2.705 -17.014  1.00 35.49     0.159 C 
ENDROOT
BRANCH   1   2
ATOM      2  CB  ARG D 557     -26.789   1.319 -17.183  1.00 35.49     0.034 C 
BRANCH   2   3
ATOM      3  CG  ARG D 557     -28.227   1.163 -16.933  1.00 35.49     0.027 C 
BRANCH   3   4
ATOM      4  CD  ARG D 557     -28.614  -0.252 -16.730  1.00 35.49     0.116 C 
BRANCH   4   5
ATOM      5  NE  ARG D 557     -27.598  -0.998 -16.036  1.00 35.49    -0.212 N 
ATOM      6  CZ  ARG D 557     -27.426  -2.300 -16.095  1.00 35.49     0.666 C 
ATOM      7  NH1 ARG D 557     -28.206  -3.087 -16.812  1.00 35.49    -0.235 N 
ATOM      8  NH2 ARG D 557     -26.438  -2.806 -15.415  1.00 35.49    -0.235 N 
ATOM      9  HH  ARG D 557     -28.861  -2.775 -17.269  1.00 35.49     0.174 HD
ATOM     10  HH  ARG D 557     -28.044  -3.928 -16.814  1.00 35.49     0.174 HD
ATOM     11  HH  ARG D 557     -25.946  -2.272 -14.966  1.00 35.49     0.174 HD
ATOM     12  HH  ARG D 557     -26.293  -3.641 -15.431  1.00 35.49     0.174 HD
ATOM     13  HE  ARG D 557     -27.096  -0.579 -15.493  1.00 35.49     0.178 HD
ENDBRANCH   4   5
ENDBRANCH   3   4
ENDBRANCH   2   3
ENDBRANCH   1   2
END_RES ARG D 557
BEGIN_RES GLU D 570
REMARK  3 active torsions:
REMARK  status: ('A' for Active; 'I' for Inactive)
REMARK    5  A    between atoms: CA   and  CB  
REMARK    6  A    between atoms: CB   and  CG  
REMARK    7  A    between atoms: CG   and  CD  
ROOT
ATOM     14  CA  GLU D 570     -18.033  -6.348 -13.375  1.00 32.92     0.160 C 
ENDROOT
BRANCH  14  15
ATOM     15  CB  GLU D 570     -19.500  -6.345 -13.794  1.00 32.92     0.043 C 
BRANCH  15  16
ATOM     16  CG  GLU D 570     -19.812  -5.944 -15.190  1.00 32.92     0.100 C 
BRANCH  16  17
ATOM     17  CD  GLU D 570     -21.271  -5.604 -15.393  1.00 32.92     0.185 C 
ATOM     18  OE1 GLU D 570     -22.121  -6.113 -14.639  1.00 32.92    -0.647 OA
ATOM     19  OE2 GLU D 570     -21.567  -4.835 -16.328  1.00 32.92    -0.647 OA
ENDBRANCH  16  17
ENDBRANCH  15  16
ENDBRANCH  14  15
END_RES GLU D 570
ENDMDL
MODEL 5
REMARK VINA RESULT:      -5.1      4.474      6.493
REMARK  2 active torsions:
REMARK  status: ('A' for Active; 'I' for Inactive)
REMARK    1  A    between atoms: CA_3  and  C_6 
REMARK    2  A    between atoms: C_6  and  OXT_8 
ROOT
ATOM      1  CG  PRO A   1     -29.477  -5.611 -15.669  1.00  0.00     0.030 C 
ATOM      2  CB  PRO A   1     -30.389  -5.861 -16.860  1.00  0.00     0.045 C 
ATOM      3  CA  PRO A   1     -29.957  -4.816 -17.871  1.00  0.00     0.282 C 
ATOM      4  N   PRO A   1     -28.446  -4.756 -17.656  1.00  0.00    -0.061 N 
ATOM      5  CD  PRO A   1     -28.134  -5.236 -16.273  1.00  0.00     0.233 C 
ATOM      6  H1  PRO A   1     -28.162  -3.764 -17.754  1.00  0.00     0.278 HD
ATOM      7  H2  PRO A   1     -27.935  -5.293 -18.369  1.00  0.00     0.278 HD
ENDROOT
BRANCH   3   8
ATOM      8  C   PRO A   1     -30.553  -3.427 -17.623  1.00  0.00     0.171 C 
ATOM      9  O   PRO A   1     -31.765  -3.298 -17.487  1.00  0.00    -0.648 OA
BRANCH   8  10
ATOM     10  OXT PRO A   1     -29.690  -2.403 -17.542  1.00  0.00    -0.775 OA
ATOM     11  HXT PRO A   1     -28.736  -2.576 -17.424  1.00  0.00     0.167 HD
ENDBRANCH   8  10
ENDBRANCH   3   8
TORSDOF 2
BEGIN_RES ARG D 557
REMARK  4 active torsions:
REMARK  status: ('A' for Active; 'I' for Inactive)
REMARK    1  A    between atoms: CA   and  CB  
REMARK    2  A    between atoms: CB   and  CG  
REMARK    3  A    between atoms: CG   and  CD  
REMARK    4  A    between atoms: CD   and  NE  
REMARK       I    between atoms: NE   and  CZ  
REMARK       I    between atoms: CZ   and  NH1 
REMARK       I    between atoms: CZ   and  NH2 
ROOT
ATOM      1  CA  ARG D 557     -26.217   2.705 -17.014  1.00 35.49     0.159 C 
ENDROOT
BRANCH   1   2
ATOM      2  CB  ARG D 557     -26.789   1.319 -17.183  1.00 35.49     0.034 C 
BRANCH   2   3
ATOM      3  CG  ARG D 557     -25.836   0.203 -17.150  1.00 35.49     0.027 C 
BRANCH   3   4
ATOM      4  CD  ARG D 557     -24.760   0.409 -16.154  1.00 35.49     0.116 C 
BRANCH   4   5
ATOM      5  NE  ARG D 557     -24.908  -0.449 -15.009  1.00 35.49    -0.212 N 
ATOM      6  CZ  ARG D 557     -24.091  -1.419 -14.664  1.00 35.49     0.666 C 
ATOM      7  NH1 ARG D 557     -23.018  -1.726 -15.369  1.00 35.49    -0.235 N 
ATOM      8  NH2 ARG D 557     -24.370  -2.083 -13.580  1.00 35.49    -0.235 N 
ATOM      9  HH  ARG D 557     -22.814  -1.301 -16.085  1.00 35.49     0.174 HD
ATOM     10  HH  ARG D 557     -22.520  -2.367 -15.095  1.00 35.49     0.174 HD
ATOM     11  HH  ARG D 557     -25.066  -1.858 -13.141  1.00 35.49     0.174 HD
ATOM     12  HH  ARG D 557     -23.865  -2.713 -13.324  1.00 35.49     0.174 HD
ATOM     13  HE  ARG D 557     -25.612  -0.369 -14.538  1.00 35.49     0.178 HD
ENDBRANCH   4   5
ENDBRANCH   3   4
ENDBRANCH   2   3
ENDBRANCH   1   2
END_RES ARG D 557
BEGIN_RES GLU D 570
REMARK  3 active torsions:
REMARK  status: ('A' for Active; 'I' for Inactive)
REMARK    5  A    between atoms: CA   and  CB  
REMARK    6  A    between atoms: CB   and  CG  
REMARK    7  A    between atoms: CG   and  CD  
ROOT
ATOM     14  CA  GLU D 570     -18.033  -6.348 -13.375  1.00 32.92     0.160 C 
ENDROOT
BRANCH  14  15
ATOM     15  CB  GLU D 570     -19.500  -6.345 -13.794  1.00 32.92     0.043 C 
BRANCH  15  16
ATOM     16  CG  GLU D 570     -20.448  -5.561 -12.961  1.00 32.92     0.100 C 
BRANCH  16  17
ATOM     17  CD  GLU D 570     -21.737  -5.239 -13.680  1.00 32.92     0.185 C 
ATOM     18  OE1 GLU D 570     -22.241  -4.108 -13.541  1.00 32.92    -0.647 OA
ATOM     19  OE2 GLU D 570     -22.257  -6.132 -14.377  1.00 32.92    -0.647 OA
ENDBRANCH  16  17
ENDBRANCH  15  16
ENDBRANCH  14  15
END_RES GLU D 570
ENDMDL
MODEL 6
REMARK VINA RESULT:      -5.0      4.175      6.380
REMARK  2 active torsions:
REMARK  status: ('A' for Active; 'I' for Inactive)
REMARK    1  A    between atoms: CA_3  and  C_6 
REMARK    2  A    between atoms: C_6  and  OXT_8 
ROOT
ATOM      1  CG  PRO A   1     -30.225  -5.489 -17.461  1.00  0.00     0.030 C 
ATOM      2  CB  PRO A   1     -29.085  -4.943 -18.307  1.00  0.00     0.045 C 
ATOM      3  CA  PRO A   1     -28.034  -6.035 -18.243  1.00  0.00     0.282 C 
ATOM      4  N   PRO A   1     -28.879  -7.307 -18.253  1.00  0.00    -0.061 N 
ATOM      5  CD  PRO A   1     -30.251  -6.980 -17.748  1.00  0.00     0.233 C 
ATOM      6  H1  PRO A   1     -28.424  -7.983 -17.613  1.00  0.00     0.278 HD
ATOM      7  H2  PRO A   1     -28.910  -7.740 -19.185  1.00  0.00     0.278 HD
ENDROOT
BRANCH   3   8
ATOM      8  C   PRO A   1     -27.187  -6.007 -16.967  1.00  0.00     0.171 C 
ATOM      9  O   PRO A   1     -26.778  -4.938 -16.527  1.00  0.00    -0.648 OA
BRANCH   8  10
ATOM     10  OXT PRO A   1     -26.951  -7.186 -16.371  1.00  0.00    -0.775 OA
ATOM     11  HXT PRO A   1     -26.345  -7.234 -15.605  1.00  0.00     0.167 HD
ENDBRANCH   8  10
ENDBRANCH   3   8
TORSDOF 2
BEGIN_RES ARG D 557
REMARK  4 active torsions:
REMARK  status: ('A' for Active; 'I' for Inactive)
REMARK    1  A    between atoms: CA   and  CB  
REMARK    2  A    between atoms: CB   and  CG  
REMARK    3  A    between atoms: CG   and  CD  
REMARK    4  A    between atoms: CD   and  NE  
REMARK       I    between atoms: NE   and  CZ  
REMARK       I    between atoms: CZ   and  NH1 
REMARK       I    between atoms: CZ   and  NH2 
ROOT
ATOM      1  CA  ARG D 557     -26.217   2.705 -17.014  1.00 35.49     0.159 C 
ENDROOT
BRANCH   1   2
ATOM      2  CB  ARG D 557     -26.789   1.319 -17.183  1.00 35.49     0.034 C 
BRANCH   2   3
ATOM      3  CG  ARG D 557     -25.863   0.195 -16.998  1.00 35.49     0.027 C 
BRANCH   3   4
ATOM      4  CD  ARG D 557     -26.267  -0.691 -15.882  1.00 35.49     0.116 C 
BRANCH   4   5
ATOM      5  NE  ARG D 557     -25.195  -0.906 -14.946  1.00 35.49    -0.212 N 
ATOM      6  CZ  ARG D 557     -24.924  -2.038 -14.336  1.00 35.49     0.666 C 
ATOM      7  NH1 ARG D 557     -25.643  -3.131 -14.516  1.00 35.49    -0.235 N 
ATOM      8  NH2 ARG D 557     -23.899  -2.057 -13.534  1.00 35.49    -0.235 N 
ATOM      9  HH  ARG D 557     -26.320  -3.141 -15.041  1.00 35.49     0.174 HD
ATOM     10  HH  ARG D 557     -25.417  -3.841 -14.093  1.00 35.49     0.174 HD
ATOM     11  HH  ARG D 557     -23.449  -1.339 -13.443  1.00 35.49     0.174 HD
ATOM     12  HH  ARG D 557     -23.691  -2.770 -13.125  1.00 35.49     0.174 HD
ATOM     13  HE  ARG D 557     -24.726  -0.235 -14.715  1.00 35.49     0.178 HD
ENDBRANCH   4   5
ENDBRANCH   3   4
ENDBRANCH   2   3
ENDBRANCH   1   2
END_RES ARG D 557
BEGIN_RES GLU D 570
REMARK  3 active torsions:
REMARK  status: ('A' for Active; 'I' for Inactive)
REMARK    5  A    between atoms: CA   and  CB  
REMARK    6  A    between atoms: CB   and  CG  
REMARK    7  A    between atoms: CG   and  CD  
ROOT
ATOM     14  CA  GLU D 570     -18.033  -6.348 -13.375  1.00 32.92     0.160 C 
ENDROOT
BRANCH  14  15
ATOM     15  CB  GLU D 570     -19.500  -6.345 -13.794  1.00 32.92     0.043 C 
BRANCH  15  16
ATOM     16  CG  GLU D 570     -20.447  -5.556 -12.965  1.00 32.92     0.100 C 
BRANCH  16  17
ATOM     17  CD  GLU D 570     -21.678  -5.123 -13.727  1.00 32.92     0.185 C 
ATOM     18  OE1 GLU D 570     -21.617  -5.021 -14.967  1.00 32.92    -0.647 OA
ATOM     19  OE2 GLU D 570     -22.709  -4.867 -13.074  1.00 32.92    -0.647 OA
ENDBRANCH  16  17
ENDBRANCH  15  16
ENDBRANCH  14  15
END_RES GLU D 570
ENDMDL
MODEL 7
REMARK VINA RESULT:      -4.8      1.590      2.059
REMARK  2 active torsions:
REMARK  status: ('A' for Active; 'I' for Inactive)
REMARK    1  A    between atoms: CA_3  and  C_6 
REMARK    2  A    between atoms: C_6  and  OXT_8 
ROOT
ATOM      1  CG  PRO A   1     -21.380  -4.850  -9.357  1.00  0.00     0.030 C 
ATOM      2  CB  PRO A   1     -21.610  -3.563 -10.133  1.00  0.00     0.045 C 
ATOM      3  CA  PRO A   1     -23.016  -3.151  -9.740  1.00  0.00     0.282 C 
ATOM      4  N   PRO A   1     -23.077  -3.555  -8.268  1.00  0.00    -0.061 N 
ATOM      5  CD  PRO A   1     -22.067  -4.632  -8.020  1.00  0.00     0.233 C 
ATOM      6  H1  PRO A   1     -24.030  -3.922  -8.090  1.00  0.00     0.278 HD
ATOM      7  H2  PRO A   1     -22.937  -2.751  -7.642  1.00  0.00     0.278 HD
ENDROOT
BRANCH   3   8
ATOM      8  C   PRO A   1     -24.118  -3.887 -10.507  1.00  0.00     0.171 C 
ATOM      9  O   PRO A   1     -25.182  -3.324 -10.739  1.00  0.00    -0.648 OA
BRANCH   8  10
ATOM     10  OXT PRO A   1     -23.842  -5.135 -10.915  1.00  0.00    -0.775 OA
ATOM     11  HXT PRO A   1     -23.298  -5.724 -10.356  1.00  0.00     0.167 HD
ENDBRANCH   8  10
ENDBRANCH   3   8
TORSDOF 2
BEGIN_RES ARG D 557
REMARK  4 active torsions:
REMARK  status: ('A' for Active; 'I' for Inactive)
REMARK    1  A    between atoms: CA   and  CB  
REMARK    2  A    between atoms: CB   and  CG  
REMARK    3  A    between atoms: CG   and  CD  
REMARK    4  A    between atoms: CD   and  NE  
REMARK       I    between atoms: NE   and  CZ  
REMARK       I    between atoms: CZ   and  NH1 
REMARK       I    between atoms: CZ   and  NH2 
ROOT
ATOM      1  CA  ARG D 557     -26.217   2.705 -17.014  1.00 35.49     0.159 C 
ENDROOT
BRANCH   1   2
ATOM      2  CB  ARG D 557     -26.789   1.319 -17.183  1.00 35.49     0.034 C 
BRANCH   2   3
ATOM      3  CG  ARG D 557     -25.836   0.203 -17.154  1.00 35.49     0.027 C 
BRANCH   3   4
ATOM      4  CD  ARG D 557     -24.761   0.405 -16.155  1.00 35.49     0.116 C 
BRANCH   4   5
ATOM      5  NE  ARG D 557     -24.922  -0.447 -15.006  1.00 35.49    -0.212 N 
ATOM      6  CZ  ARG D 557     -24.114  -1.422 -14.654  1.00 35.49     0.666 C 
ATOM      7  NH1 ARG D 557     -23.041  -1.741 -15.353  1.00 35.49    -0.235 N 
ATOM      8  NH2 ARG D 557     -24.403  -2.078 -13.567  1.00 35.49    -0.235 N 
ATOM      9  HH  ARG D 557     -22.831  -1.322 -16.070  1.00 35.49     0.174 HD
ATOM     10  HH  ARG D 557     -22.550  -2.385 -15.073  1.00 35.49     0.174 HD
ATOM     11  HH  ARG D 557     -25.099  -1.845 -13.132  1.00 35.49     0.174 HD
ATOM     12  HH  ARG D 557     -23.904  -2.711 -13.306  1.00 35.49     0.174 HD
ATOM     13  HE  ARG D 557     -25.627  -0.358 -14.539  1.00 35.49     0.178 HD
ENDBRANCH   4   5
ENDBRANCH   3   4
ENDBRANCH   2   3
ENDBRANCH   1   2
END_RES ARG D 557
BEGIN_RES GLU D 570
REMARK  3 active torsions:
REMARK  status: ('A' for Active; 'I' for Inactive)
REMARK    5  A    between atoms: CA   and  CB  
REMARK    6  A    between atoms: CB   and  CG  
REMARK    7  A    between atoms: CG   and  CD  
ROOT
ATOM     14  CA  GLU D 570     -18.033  -6.348 -13.375  1.00 32.92     0.160 C 
ENDROOT
BRANCH  14  15
ATOM     15  CB  GLU D 570     -19.500  -6.345 -13.794  1.00 32.92     0.043 C 
BRANCH  15  16
ATOM     16  CG  GLU D 570     -20.441  -5.529 -12.985  1.00 32.92     0.100 C 
BRANCH  16  17
ATOM     17  CD  GLU D 570     -21.750  -5.263 -13.693  1.00 32.92     0.185 C 
ATOM     18  OE1 GLU D 570     -22.338  -4.183 -13.492  1.00 32.92    -0.647 OA
ATOM     19  OE2 GLU D 570     -22.200  -6.152 -14.442  1.00 32.92    -0.647 OA
ENDBRANCH  16  17
ENDBRANCH  15  16
ENDBRANCH  14  15
END_RES GLU D 570
ENDMDL
MODEL 8
REMARK VINA RESULT:      -4.5      2.349      2.832
REMARK  2 active torsions:
REMARK  status: ('A' for Active; 'I' for Inactive)
REMARK    1  A    between atoms: CA_3  and  C_6 
REMARK    2  A    between atoms: C_6  and  OXT_8 
ROOT
ATOM      1  CG  PRO A   1     -20.760  -5.389  -7.986  1.00  0.00     0.030 C 
ATOM      2  CB  PRO A   1     -20.812  -4.526  -9.236  1.00  0.00     0.045 C 
ATOM      3  CA  PRO A   1     -21.979  -3.592  -8.982  1.00  0.00     0.282 C 
ATOM      4  N   PRO A   1     -21.865  -3.323  -7.483  1.00  0.00    -0.061 N 
ATOM      5  CD  PRO A   1     -21.117  -4.452  -6.844  1.00  0.00     0.233 C 
ATOM      6  H1  PRO A   1     -22.829  -3.284  -7.104  1.00  0.00     0.278 HD
ATOM      7  H2  PRO A   1     -21.422  -2.415  -7.288  1.00  0.00     0.278 HD
ENDROOT
BRANCH   3   8
ATOM      8  C   PRO A   1     -23.348  -4.214  -9.276  1.00  0.00     0.171 C 
ATOM      9  O   PRO A   1     -23.472  -5.012 -10.198  1.00  0.00    -0.648 OA
BRANCH   8  10
ATOM     10  OXT PRO A   1     -24.360  -3.858  -8.470  1.00  0.00    -0.775 OA
ATOM     11  HXT PRO A   1     -24.923  -4.545  -8.060  1.00  0.00     0.167 HD
ENDBRANCH   8  10
ENDBRANCH   3   8
TORSDOF 2
BEGIN_RES ARG D 557
REMARK  4 active torsions:
REMARK  status: ('A' for Active; 'I' for Inactive)
REMARK    1  A    between atoms: CA   and  CB  
REMARK    2  A    between atoms: CB   and  CG  
REMARK    3  A    between atoms: CG   and  CD  
REMARK    4  A    between atoms: CD   and  NE  
REMARK       I    between atoms: NE   and  CZ  
REMARK       I    between atoms: CZ   and  NH1 
REMARK       I    between atoms: CZ   and  NH2 
ROOT
ATOM      1  CA  ARG D 557     -26.217   2.705 -17.014  1.00 35.49     0.159 C 
ENDROOT
BRANCH   1   2
ATOM      2  CB  ARG D 557     -26.789   1.319 -17.183  1.00 35.49     0.034 C 
BRANCH   2   3
ATOM      3  CG  ARG D 557     -28.213   1.149 -16.868  1.00 35.49     0.027 C 
BRANCH   3   4
ATOM      4  CD  ARG D 557     -28.593  -0.275 -16.727  1.00 35.49     0.116 C 
BRANCH   4   5
ATOM      5  NE  ARG D 557     -27.594  -1.037 -16.024  1.00 35.49    -0.212 N 
ATOM      6  CZ  ARG D 557     -27.432  -2.339 -16.093  1.00 35.49     0.666 C 
ATOM      7  NH1 ARG D 557     -28.207  -3.112 -16.830  1.00 35.49    -0.235 N 
ATOM      8  NH2 ARG D 557     -26.459  -2.860 -15.403  1.00 35.49    -0.235 N 
ATOM      9  HH  ARG D 557     -28.852  -2.791 -17.294  1.00 35.49     0.174 HD
ATOM     10  HH  ARG D 557     -28.052  -3.955 -16.838  1.00 35.49     0.174 HD
ATOM     11  HH  ARG D 557     -25.970  -2.335 -14.941  1.00 35.49     0.174 HD
ATOM     12  HH  ARG D 557     -26.321  -3.696 -15.425  1.00 35.49     0.174 HD
ATOM     13  HE  ARG D 557     -27.097  -0.627 -15.469  1.00 35.49     0.178 HD
ENDBRANCH   4   5
ENDBRANCH   3   4
ENDBRANCH   2   3
ENDBRANCH   1   2
END_RES ARG D 557
BEGIN_RES GLU D 570
REMARK  3 active torsions:
REMARK  status: ('A' for Active; 'I' for Inactive)
REMARK    5  A    between atoms: CA   and  CB  
REMARK    6  A    between atoms: CB   and  CG  
REMARK    7  A    between atoms: CG   and  CD  
ROOT
ATOM     14  CA  GLU D 570     -18.033  -6.348 -13.375  1.00 32.92     0.160 C 
ENDROOT
BRANCH  14  15
ATOM     15  CB  GLU D 570     -19.500  -6.345 -13.794  1.00 32.92     0.043 C 
BRANCH  15  16
ATOM     16  CG  GLU D 570     -20.451  -5.577 -12.950  1.00 32.92     0.100 C 
BRANCH  16  17
ATOM     17  CD  GLU D 570     -21.741  -5.248 -13.665  1.00 32.92     0.185 C 
ATOM     18  OE1 GLU D 570     -22.281  -4.144 -13.464  1.00 32.92    -0.647 OA
ATOM     19  OE2 GLU D 570     -22.226  -6.112 -14.423  1.00 32.92    -0.647 OA
ENDBRANCH  16  17
ENDBRANCH  15  16
ENDBRANCH  14  15
END_RES GLU D 570
ENDMDL
MODEL 9
REMARK VINA RESULT:      -4.4     14.770     15.278
REMARK  2 active torsions:
REMARK  status: ('A' for Active; 'I' for Inactive)
REMARK    1  A    between atoms: CA_3  and  C_6 
REMARK    2  A    between atoms: C_6  and  OXT_8 
ROOT
ATOM      1  CG  PRO A   1     -13.566   9.154   4.296  1.00  0.00     0.030 C 
ATOM      2  CB  PRO A   1     -13.130   9.061   5.750  1.00  0.00     0.045 C 
ATOM      3  CA  PRO A   1     -14.431   8.871   6.505  1.00  0.00     0.282 C 
ATOM      4  N   PRO A   1     -15.236   7.986   5.556  1.00  0.00    -0.061 N 
ATOM      5  CD  PRO A   1     -14.714   8.168   4.165  1.00  0.00     0.233 C 
ATOM      6  H1  PRO A   1     -16.222   8.303   5.603  1.00  0.00     0.278 HD
ATOM      7  H2  PRO A   1     -15.218   6.999   5.843  1.00  0.00     0.278 HD
ENDROOT
BRANCH   3   8
ATOM      8  C   PRO A   1     -15.202  10.171   6.752  1.00  0.00     0.171 C 
ATOM      9  O   PRO A   1     -16.428  10.170   6.722  1.00  0.00    -0.648 OA
BRANCH   8  10
ATOM     10  OXT PRO A   1     -14.474  11.267   7.018  1.00  0.00    -0.775 OA
ATOM     11  HXT PRO A   1     -13.499  11.230   6.967  1.00  0.00     0.167 HD
ENDBRANCH   8  10
ENDBRANCH   3   8
TORSDOF 2
BEGIN_RES ARG D 557
REMARK  4 active torsions:
REMARK  status: ('A' for Active; 'I' for Inactive)
REMARK    1  A    between atoms: CA   and  CB  
REMARK    2  A    between atoms: CB   and  CG  
REMARK    3  A    between atoms: CG   and  CD  
REMARK    4  A    between atoms: CD   and  NE  
REMARK       I    between atoms: NE   and  CZ  
REMARK       I    between atoms: CZ   and  NH1 
REMARK       I    between atoms: CZ   and  NH2 
ROOT
ATOM      1  CA  ARG D 557     -26.217   2.705 -17.014  1.00 35.49     0.159 C 
ENDROOT
BRANCH   1   2
ATOM      2  CB  ARG D 557     -26.789   1.319 -17.183  1.00 35.49     0.034 C 
BRANCH   2   3
ATOM      3  CG  ARG D 557     -25.836   0.203 -17.157  1.00 35.49     0.027 C 
BRANCH   3   4
ATOM      4  CD  ARG D 557     -24.752   0.410 -16.169  1.00 35.49     0.116 C 
BRANCH   4   5
ATOM      5  NE  ARG D 557     -24.902  -0.437 -15.015  1.00 35.49    -0.212 N 
ATOM      6  CZ  ARG D 557     -24.092  -1.411 -14.666  1.00 35.49     0.666 C 
ATOM      7  NH1 ARG D 557     -23.025  -1.733 -15.374  1.00 35.49    -0.235 N 
ATOM      8  NH2 ARG D 557     -24.370  -2.062 -13.574  1.00 35.49    -0.235 N 
ATOM      9  HH  ARG D 557     -22.821  -1.317 -16.094  1.00 35.49     0.174 HD
ATOM     10  HH  ARG D 557     -22.531  -2.376 -15.096  1.00 35.49     0.174 HD
ATOM     11  HH  ARG D 557     -25.062  -1.827 -13.134  1.00 35.49     0.174 HD
ATOM     12  HH  ARG D 557     -23.869  -2.695 -13.315  1.00 35.49     0.174 HD
ATOM     13  HE  ARG D 557     -25.603  -0.346 -14.541  1.00 35.49     0.178 HD
ENDBRANCH   4   5
ENDBRANCH   3   4
ENDBRANCH   2   3
ENDBRANCH   1   2
END_RES ARG D 557
BEGIN_RES GLU D 570
REMARK  3 active torsions:
REMARK  status: ('A' for Active; 'I' for Inactive)
REMARK    5  A    between atoms: CA   and  CB  
REMARK    6  A    between atoms: CB   and  CG  
REMARK    7  A    between atoms: CG   and  CD  
ROOT
ATOM     14  CA  GLU D 570     -18.033  -6.348 -13.375  1.00 32.92     0.160 C 
ENDROOT
BRANCH  14  15
ATOM     15  CB  GLU D 570     -19.500  -6.345 -13.794  1.00 32.92     0.043 C 
BRANCH  15  16
ATOM     16  CG  GLU D 570     -20.443  -5.535 -12.980  1.00 32.92     0.100 C 
BRANCH  16  17
ATOM     17  CD  GLU D 570     -21.737  -5.237 -13.700  1.00 32.92     0.185 C 
ATOM     18  OE1 GLU D 570     -22.306  -4.147 -13.498  1.00 32.92    -0.647 OA
ATOM     19  OE2 GLU D 570     -22.197  -6.110 -14.462  1.00 32.92    -0.647 OA
ENDBRANCH  16  17
ENDBRANCH  15  16
ENDBRANCH  14  15
END_RES GLU D 570
ENDMDL
