MODEL 1
REMARK VINA RESULT:      -4.9      0.000      0.000
REMARK  22 active torsions:
REMARK  status: ('A' for Active; 'I' for Inactive)
REMARK    1  A    between atoms: C_2  and  C_3 
REMARK    2  A    between atoms: C_3  and  C_4 
REMARK    3  A    between atoms: C_4  and  C_5 
REMARK    4  A    between atoms: C_5  and  C_6 
REMARK    5  A    between atoms: C_6  and  C_7 
REMARK    6  A    between atoms: C_7  and  C_8 
REMARK    7  A    between atoms: C_8  and  C_9 
REMARK    8  A    between atoms: C_9  and  C_10 
REMARK    9  A    between atoms: C_10  and  C_11 
REMARK   10  A    between atoms: C_11  and  C_12 
REMARK   11  A    between atoms: C_12  and  C_13 
REMARK   12  A    between atoms: C_15  and  S_19 
REMARK   13  A    between atoms: S_19  and  O_22 
REMARK   14  A    between atoms: C_24  and  C_25 
REMARK   15  A    between atoms: C_24  and  N_27 
REMARK   16  A    between atoms: C_25  and  O_26 
REMARK   17  A    between atoms: N_27  and  C_28 
REMARK   18  A    between atoms: N_27  and  C_31 
REMARK   19  A    between atoms: C_28  and  C_29 
REMARK   20  A    between atoms: C_29  and  O_30 
REMARK   21  A    between atoms: C_31  and  C_32 
REMARK   22  A    between atoms: C_32  and  O_33 
ROOT
HETATM    1  N   UNL     2     -23.227  -3.941 -11.723  1.00  0.00     0.094 N 
ENDROOT
BRANCH   1   2
HETATM    2  C   UNL     2     -22.180  -2.975 -11.321  1.00  0.00     0.298 C 
BRANCH   2   3
HETATM    3  C   UNL     2     -20.912  -3.657 -10.805  1.00  0.00     0.194 C 
BRANCH   3   4
HETATM    4  O   UNL     2     -19.994  -3.824 -11.874  1.00  0.00    -0.399 OA
HETATM    5  H   UNL     2     -20.462  -3.571 -12.698  1.00  0.00     0.209 HD
ENDBRANCH   3   4
ENDBRANCH   2   3
ENDBRANCH   1   2
BRANCH   1   6
HETATM    6  C   UNL     2     -24.006  -4.393 -10.558  1.00  0.00     0.298 C 
BRANCH   6   7
HETATM    7  C   UNL     2     -24.579  -3.382  -9.551  1.00  0.00     0.194 C 
BRANCH   7   8
HETATM    8  O   UNL     2     -25.991  -3.247  -9.731  1.00  0.00    -0.399 OA
HETATM    9  H   UNL     2     -26.126  -2.434 -10.253  1.00  0.00     0.209 HD
ENDBRANCH   7   8
ENDBRANCH   6   7
ENDBRANCH   1   6
BRANCH   1  10
HETATM   10  C   UNL     2     -24.149  -3.310 -12.713  1.00  0.00     0.298 C 
BRANCH  10  11
HETATM   11  C   UNL     2     -23.424  -2.372 -13.690  1.00  0.00     0.194 C 
BRANCH  11  12
HETATM   12  O   UNL     2     -23.459  -2.925 -15.003  1.00  0.00    -0.399 OA
HETATM   13  H   UNL     2     -23.532  -2.151 -15.598  1.00  0.00     0.209 HD
ENDBRANCH  11  12
ENDBRANCH  10  11
ENDBRANCH   1  10
TORSDOF 22
BEGIN_RES ARG D 557
REMARK  4 active torsions:
REMARK  status: ('A' for Active; 'I' for Inactive)
REMARK    1  A    between atoms: CA   and  CB  
REMARK    2  A    between atoms: CB   and  CG  
REMARK    3  A    between atoms: CG   and  CD  
REMARK    4  A    between atoms: CD   and  NE  
REMARK       I    between atoms: NE   and  CZ  
REMARK       I    between atoms: CZ   and  NH1 
REMARK       I    between atoms: CZ   and  NH2 
ROOT
ATOM      1  CA  ARG D 557     -26.217   2.705 -17.014  1.00 35.49     0.159 C 
ENDROOT
BRANCH   1   2
ATOM      2  CB  ARG D 557     -26.789   1.319 -17.183  1.00 35.49     0.034 C 
BRANCH   2   3
ATOM      3  CG  ARG D 557     -28.228   1.164 -16.940  1.00 35.49     0.027 C 
BRANCH   3   4
ATOM      4  CD  ARG D 557     -28.627  -0.254 -16.794  1.00 35.49     0.116 C 
BRANCH   4   5
ATOM      5  NE  ARG D 557     -27.638  -1.025 -16.087  1.00 35.49    -0.212 N 
ATOM      6  CZ  ARG D 557     -27.488  -2.329 -16.153  1.00 35.49     0.666 C 
ATOM      7  NH1 ARG D 557     -28.269  -3.095 -16.892  1.00 35.49    -0.235 N 
ATOM      8  NH2 ARG D 557     -26.523  -2.859 -15.460  1.00 35.49    -0.235 N 
ATOM      9  HH  ARG D 557     -28.910  -2.768 -17.358  1.00 35.49     0.174 HD
ATOM     10  HH  ARG D 557     -28.123  -3.940 -16.898  1.00 35.49     0.174 HD
ATOM     11  HH  ARG D 557     -26.030  -2.339 -14.998  1.00 35.49     0.174 HD
ATOM     12  HH  ARG D 557     -26.393  -3.697 -15.481  1.00 35.49     0.174 HD
ATOM     13  HE  ARG D 557     -27.138  -0.620 -15.531  1.00 35.49     0.178 HD
ENDBRANCH   4   5
ENDBRANCH   3   4
ENDBRANCH   2   3
ENDBRANCH   1   2
END_RES ARG D 557
BEGIN_RES GLU D 570
REMARK  3 active torsions:
REMARK  status: ('A' for Active; 'I' for Inactive)
REMARK    5  A    between atoms: CA   and  CB  
REMARK    6  A    between atoms: CB   and  CG  
REMARK    7  A    between atoms: CG   and  CD  
ROOT
ATOM     14  CA  GLU D 570     -18.033  -6.348 -13.375  1.00 32.92     0.160 C 
ENDROOT
BRANCH  14  15
ATOM     15  CB  GLU D 570     -19.500  -6.345 -13.794  1.00 32.92     0.043 C 
BRANCH  15  16
ATOM     16  CG  GLU D 570     -19.811  -5.958 -15.194  1.00 32.92     0.100 C 
BRANCH  16  17
ATOM     17  CD  GLU D 570     -21.223  -5.446 -15.364  1.00 32.92     0.185 C 
ATOM     18  OE1 GLU D 570     -22.042  -5.613 -14.441  1.00 32.92    -0.647 OA
ATOM     19  OE2 GLU D 570     -21.516  -4.887 -16.439  1.00 32.92    -0.647 OA
ENDBRANCH  16  17
ENDBRANCH  15  16
ENDBRANCH  14  15
END_RES GLU D 570
ENDMDL
MODEL 2
REMARK VINA RESULT:      -4.9      2.184      3.102
REMARK  22 active torsions:
REMARK  status: ('A' for Active; 'I' for Inactive)
REMARK    1  A    between atoms: C_2  and  C_3 
REMARK    2  A    between atoms: C_3  and  C_4 
REMARK    3  A    between atoms: C_4  and  C_5 
REMARK    4  A    between atoms: C_5  and  C_6 
REMARK    5  A    between atoms: C_6  and  C_7 
REMARK    6  A    between atoms: C_7  and  C_8 
REMARK    7  A    between atoms: C_8  and  C_9 
REMARK    8  A    between atoms: C_9  and  C_10 
REMARK    9  A    between atoms: C_10  and  C_11 
REMARK   10  A    between atoms: C_11  and  C_12 
REMARK   11  A    between atoms: C_12  and  C_13 
REMARK   12  A    between atoms: C_15  and  S_19 
REMARK   13  A    between atoms: S_19  and  O_22 
REMARK   14  A    between atoms: C_24  and  C_25 
REMARK   15  A    between atoms: C_24  and  N_27 
REMARK   16  A    between atoms: C_25  and  O_26 
REMARK   17  A    between atoms: N_27  and  C_28 
REMARK   18  A    between atoms: N_27  and  C_31 
REMARK   19  A    between atoms: C_28  and  C_29 
REMARK   20  A    between atoms: C_29  and  O_30 
REMARK   21  A    between atoms: C_31  and  C_32 
REMARK   22  A    between atoms: C_32  and  O_33 
ROOT
HETATM    1  N   UNL     2     -22.504  -4.716  -9.809  1.00  0.00     0.094 N 
ENDROOT
BRANCH   1   2
HETATM    2  C   UNL     2     -22.352  -3.775  -8.678  1.00  0.00     0.298 C 
BRANCH   2   3
HETATM    3  C   UNL     2     -22.608  -4.433  -7.320  1.00  0.00     0.194 C 
BRANCH   3   4
HETATM    4  O   UNL     2     -23.975  -4.285  -6.972  1.00  0.00    -0.399 OA
HETATM    5  H   UNL     2     -24.374  -5.180  -6.978  1.00  0.00     0.209 HD
ENDBRANCH   3   4
ENDBRANCH   2   3
ENDBRANCH   1   2
BRANCH   1   6
HETATM    6  C   UNL     2     -23.814  -4.550 -10.463  1.00  0.00     0.298 C 
BRANCH   6   7
HETATM    7  C   UNL     2     -24.621  -3.254 -10.295  1.00  0.00     0.194 C 
BRANCH   7   8
HETATM    8  O   UNL     2     -25.809  -3.502  -9.538  1.00  0.00    -0.399 OA
HETATM    9  H   UNL     2     -26.122  -2.633  -9.224  1.00  0.00     0.209 HD
ENDBRANCH   7   8
ENDBRANCH   6   7
ENDBRANCH   1   6
BRANCH   1  10
HETATM   10  C   UNL     2     -21.423  -4.486 -10.813  1.00  0.00     0.298 C 
BRANCH  10  11
HETATM   11  C   UNL     2     -21.515  -3.108 -11.483  1.00  0.00     0.194 C 
BRANCH  11  12
HETATM   12  O   UNL     2     -21.733  -3.266 -12.883  1.00  0.00    -0.399 OA
HETATM   13  H   UNL     2     -20.952  -2.852 -13.305  1.00  0.00     0.209 HD
ENDBRANCH  11  12
ENDBRANCH  10  11
ENDBRANCH   1  10
TORSDOF 22
BEGIN_RES ARG D 557
REMARK  4 active torsions:
REMARK  status: ('A' for Active; 'I' for Inactive)
REMARK    1  A    between atoms: CA   and  CB  
REMARK    2  A    between atoms: CB   and  CG  
REMARK    3  A    between atoms: CG   and  CD  
REMARK    4  A    between atoms: CD   and  NE  
REMARK       I    between atoms: NE   and  CZ  
REMARK       I    between atoms: CZ   and  NH1 
REMARK       I    between atoms: CZ   and  NH2 
ROOT
ATOM      1  CA  ARG D 557     -26.217   2.705 -17.014  1.00 35.49     0.159 C 
ENDROOT
BRANCH   1   2
ATOM      2  CB  ARG D 557     -26.789   1.319 -17.183  1.00 35.49     0.034 C 
BRANCH   2   3
ATOM      3  CG  ARG D 557     -25.835   0.204 -17.164  1.00 35.49     0.027 C 
BRANCH   3   4
ATOM      4  CD  ARG D 557     -24.751   0.404 -16.175  1.00 35.49     0.116 C 
BRANCH   4   5
ATOM      5  NE  ARG D 557     -24.897  -0.455 -15.030  1.00 35.49    -0.212 N 
ATOM      6  CZ  ARG D 557     -24.074  -1.419 -14.683  1.00 35.49     0.666 C 
ATOM      7  NH1 ARG D 557     -22.996  -1.718 -15.385  1.00 35.49    -0.235 N 
ATOM      8  NH2 ARG D 557     -24.351  -2.084 -13.600  1.00 35.49    -0.235 N 
ATOM      9  HH  ARG D 557     -22.794  -1.292 -16.100  1.00 35.49     0.174 HD
ATOM     10  HH  ARG D 557     -22.495  -2.356 -15.109  1.00 35.49     0.174 HD
ATOM     11  HH  ARG D 557     -25.049  -1.864 -13.162  1.00 35.49     0.174 HD
ATOM     12  HH  ARG D 557     -23.841  -2.711 -13.342  1.00 35.49     0.174 HD
ATOM     13  HE  ARG D 557     -25.603  -0.379 -14.561  1.00 35.49     0.178 HD
ENDBRANCH   4   5
ENDBRANCH   3   4
ENDBRANCH   2   3
ENDBRANCH   1   2
END_RES ARG D 557
BEGIN_RES GLU D 570
REMARK  3 active torsions:
REMARK  status: ('A' for Active; 'I' for Inactive)
REMARK    5  A    between atoms: CA   and  CB  
REMARK    6  A    between atoms: CB   and  CG  
REMARK    7  A    between atoms: CG   and  CD  
ROOT
ATOM     14  CA  GLU D 570     -18.033  -6.348 -13.375  1.00 32.92     0.160 C 
ENDROOT
BRANCH  14  15
ATOM     15  CB  GLU D 570     -19.500  -6.345 -13.794  1.00 32.92     0.043 C 
BRANCH  15  16
ATOM     16  CG  GLU D 570     -19.819  -5.872 -15.166  1.00 32.92     0.100 C 
BRANCH  16  17
ATOM     17  CD  GLU D 570     -21.299  -5.664 -15.388  1.00 32.92     0.185 C 
ATOM     18  OE1 GLU D 570     -21.716  -4.521 -15.656  1.00 32.92    -0.647 OA
ATOM     19  OE2 GLU D 570     -22.052  -6.652 -15.277  1.00 32.92    -0.647 OA
ENDBRANCH  16  17
ENDBRANCH  15  16
ENDBRANCH  14  15
END_RES GLU D 570
ENDMDL
MODEL 3
REMARK VINA RESULT:      -4.9      0.994      2.647
REMARK  22 active torsions:
REMARK  status: ('A' for Active; 'I' for Inactive)
REMARK    1  A    between atoms: C_2  and  C_3 
REMARK    2  A    between atoms: C_3  and  C_4 
REMARK    3  A    between atoms: C_4  and  C_5 
REMARK    4  A    between atoms: C_5  and  C_6 
REMARK    5  A    between atoms: C_6  and  C_7 
REMARK    6  A    between atoms: C_7  and  C_8 
REMARK    7  A    between atoms: C_8  and  C_9 
REMARK    8  A    between atoms: C_9  and  C_10 
REMARK    9  A    between atoms: C_10  and  C_11 
REMARK   10  A    between atoms: C_11  and  C_12 
REMARK   11  A    between atoms: C_12  and  C_13 
REMARK   12  A    between atoms: C_15  and  S_19 
REMARK   13  A    between atoms: S_19  and  O_22 
REMARK   14  A    between atoms: C_24  and  C_25 
REMARK   15  A    between atoms: C_24  and  N_27 
REMARK   16  A    between atoms: C_25  and  O_26 
REMARK   17  A    between atoms: N_27  and  C_28 
REMARK   18  A    between atoms: N_27  and  C_31 
REMARK   19  A    between atoms: C_28  and  C_29 
REMARK   20  A    between atoms: C_29  and  O_30 
REMARK   21  A    between atoms: C_31  and  C_32 
REMARK   22  A    between atoms: C_32  and  O_33 
ROOT
HETATM    1  N   UNL     2     -23.790  -2.832 -11.955  1.00  0.00     0.094 N 
ENDROOT
BRANCH   1   2
HETATM    2  C   UNL     2     -24.126  -3.916 -11.007  1.00  0.00     0.298 C 
BRANCH   2   3
HETATM    3  C   UNL     2     -24.624  -3.392  -9.658  1.00  0.00     0.194 C 
BRANCH   3   4
HETATM    4  O   UNL     2     -26.034  -3.241  -9.700  1.00  0.00    -0.399 OA
HETATM    5  H   UNL     2     -26.404  -3.766  -8.959  1.00  0.00     0.209 HD
ENDBRANCH   3   4
ENDBRANCH   2   3
ENDBRANCH   1   2
BRANCH   1   6
HETATM    6  C   UNL     2     -22.380  -2.914 -12.374  1.00  0.00     0.298 C 
BRANCH   6   7
HETATM    7  C   UNL     2     -21.251  -2.999 -11.335  1.00  0.00     0.194 C 
BRANCH   7   8
HETATM    8  O   UNL     2     -20.155  -3.758 -11.852  1.00  0.00    -0.399 OA
HETATM    9  H   UNL     2     -20.528  -4.356 -12.527  1.00  0.00     0.209 HD
ENDBRANCH   7   8
ENDBRANCH   6   7
ENDBRANCH   1   6
BRANCH   1  10
HETATM   10  C   UNL     2     -24.665  -2.920 -13.161  1.00  0.00     0.298 C 
BRANCH  10  11
HETATM   11  C   UNL     2     -24.187  -2.021 -14.311  1.00  0.00     0.194 C 
BRANCH  11  12
HETATM   12  O   UNL     2     -25.192  -1.059 -14.620  1.00  0.00    -0.399 OA
HETATM   13  H   UNL     2     -25.836  -1.126 -13.885  1.00  0.00     0.209 HD
ENDBRANCH  11  12
ENDBRANCH  10  11
ENDBRANCH   1  10
TORSDOF 22
BEGIN_RES ARG D 557
REMARK  4 active torsions:
REMARK  status: ('A' for Active; 'I' for Inactive)
REMARK    1  A    between atoms: CA   and  CB  
REMARK    2  A    between atoms: CB   and  CG  
REMARK    3  A    between atoms: CG   and  CD  
REMARK    4  A    between atoms: CD   and  NE  
REMARK       I    between atoms: NE   and  CZ  
REMARK       I    between atoms: CZ   and  NH1 
REMARK       I    between atoms: CZ   and  NH2 
ROOT
ATOM      1  CA  ARG D 557     -26.217   2.705 -17.014  1.00 35.49     0.159 C 
ENDROOT
BRANCH   1   2
ATOM      2  CB  ARG D 557     -26.789   1.319 -17.183  1.00 35.49     0.034 C 
BRANCH   2   3
ATOM      3  CG  ARG D 557     -28.234   1.226 -17.427  1.00 35.49     0.027 C 
BRANCH   3   4
ATOM      4  CD  ARG D 557     -28.894   0.244 -16.536  1.00 35.49     0.116 C 
BRANCH   4   5
ATOM      5  NE  ARG D 557     -28.007  -0.822 -16.151  1.00 35.49    -0.212 N 
ATOM      6  CZ  ARG D 557     -28.084  -2.070 -16.556  1.00 35.49     0.666 C 
ATOM      7  NH1 ARG D 557     -29.028  -2.491 -17.377  1.00 35.49    -0.235 N 
ATOM      8  NH2 ARG D 557     -27.181  -2.899 -16.122  1.00 35.49    -0.235 N 
ATOM      9  HH  ARG D 557     -29.632  -1.962 -17.678  1.00 35.49     0.174 HD
ATOM     10  HH  ARG D 557     -29.027  -3.316 -17.610  1.00 35.49     0.174 HD
ATOM     11  HH  ARG D 557     -26.579  -2.597 -15.598  1.00 35.49     0.174 HD
ATOM     12  HH  ARG D 557     -27.196  -3.711 -16.364  1.00 35.49     0.174 HD
ATOM     13  HE  ARG D 557     -27.412  -0.655 -15.567  1.00 35.49     0.178 HD
ENDBRANCH   4   5
ENDBRANCH   3   4
ENDBRANCH   2   3
ENDBRANCH   1   2
END_RES ARG D 557
BEGIN_RES GLU D 570
REMARK  3 active torsions:
REMARK  status: ('A' for Active; 'I' for Inactive)
REMARK    5  A    between atoms: CA   and  CB  
REMARK    6  A    between atoms: CB   and  CG  
REMARK    7  A    between atoms: CG   and  CD  
ROOT
ATOM     14  CA  GLU D 570     -18.033  -6.348 -13.375  1.00 32.92     0.160 C 
ENDROOT
BRANCH  14  15
ATOM     15  CB  GLU D 570     -19.500  -6.345 -13.794  1.00 32.92     0.043 C 
BRANCH  15  16
ATOM     16  CG  GLU D 570     -19.809  -6.678 -15.209  1.00 32.92     0.100 C 
BRANCH  16  17
ATOM     17  CD  GLU D 570     -20.732  -5.677 -15.862  1.00 32.92     0.185 C 
ATOM     18  OE1 GLU D 570     -21.453  -4.959 -15.142  1.00 32.92    -0.647 OA
ATOM     19  OE2 GLU D 570     -20.747  -5.621 -17.108  1.00 32.92    -0.647 OA
ENDBRANCH  16  17
ENDBRANCH  15  16
ENDBRANCH  14  15
END_RES GLU D 570
ENDMDL
MODEL 4
REMARK VINA RESULT:      -4.8      1.428      2.704
REMARK  22 active torsions:
REMARK  status: ('A' for Active; 'I' for Inactive)
REMARK    1  A    between atoms: C_2  and  C_3 
REMARK    2  A    between atoms: C_3  and  C_4 
REMARK    3  A    between atoms: C_4  and  C_5 
REMARK    4  A    between atoms: C_5  and  C_6 
REMARK    5  A    between atoms: C_6  and  C_7 
REMARK    6  A    between atoms: C_7  and  C_8 
REMARK    7  A    between atoms: C_8  and  C_9 
REMARK    8  A    between atoms: C_9  and  C_10 
REMARK    9  A    between atoms: C_10  and  C_11 
REMARK   10  A    between atoms: C_11  and  C_12 
REMARK   11  A    between atoms: C_12  and  C_13 
REMARK   12  A    between atoms: C_15  and  S_19 
REMARK   13  A    between atoms: S_19  and  O_22 
REMARK   14  A    between atoms: C_24  and  C_25 
REMARK   15  A    between atoms: C_24  and  N_27 
REMARK   16  A    between atoms: C_25  and  O_26 
REMARK   17  A    between atoms: N_27  and  C_28 
REMARK   18  A    between atoms: N_27  and  C_31 
REMARK   19  A    between atoms: C_28  and  C_29 
REMARK   20  A    between atoms: C_29  and  O_30 
REMARK   21  A    between atoms: C_31  and  C_32 
REMARK   22  A    between atoms: C_32  and  O_33 
ROOT
HETATM    1  N   UNL     2     -23.726  -2.827 -12.109  1.00  0.00     0.094 N 
ENDROOT
BRANCH   1   2
HETATM    2  C   UNL     2     -24.639  -2.841 -13.273  1.00  0.00     0.298 C 
BRANCH   2   3
HETATM    3  C   UNL     2     -24.190  -1.897 -14.390  1.00  0.00     0.194 C 
BRANCH   3   4
HETATM    4  O   UNL     2     -25.225  -0.968 -14.671  1.00  0.00    -0.399 OA
HETATM    5  H   UNL     2     -25.514  -0.589 -13.814  1.00  0.00     0.209 HD
ENDBRANCH   3   4
ENDBRANCH   2   3
ENDBRANCH   1   2
BRANCH   1   6
HETATM    6  C   UNL     2     -24.145  -3.810 -11.095  1.00  0.00     0.298 C 
BRANCH   6   7
HETATM    7  C   UNL     2     -24.634  -3.356  -9.711  1.00  0.00     0.194 C 
BRANCH   7   8
HETATM    8  O   UNL     2     -26.061  -3.270  -9.690  1.00  0.00    -0.399 OA
HETATM    9  H   UNL     2     -26.373  -4.001  -9.125  1.00  0.00     0.209 HD
ENDBRANCH   7   8
ENDBRANCH   6   7
ENDBRANCH   1   6
BRANCH   1  10
HETATM   10  C   UNL     2     -22.334  -3.141 -12.548  1.00  0.00     0.298 C 
BRANCH  10  11
HETATM   11  C   UNL     2     -21.302  -2.976 -11.423  1.00  0.00     0.194 C 
BRANCH  11  12
HETATM   12  O   UNL     2     -20.110  -3.685 -11.755  1.00  0.00    -0.399 OA
HETATM   13  H   UNL     2     -19.904  -4.214 -10.957  1.00  0.00     0.209 HD
ENDBRANCH  11  12
ENDBRANCH  10  11
ENDBRANCH   1  10
TORSDOF 22
BEGIN_RES ARG D 557
REMARK  4 active torsions:
REMARK  status: ('A' for Active; 'I' for Inactive)
REMARK    1  A    between atoms: CA   and  CB  
REMARK    2  A    between atoms: CB   and  CG  
REMARK    3  A    between atoms: CG   and  CD  
REMARK    4  A    between atoms: CD   and  NE  
REMARK       I    between atoms: NE   and  CZ  
REMARK       I    between atoms: CZ   and  NH1 
REMARK       I    between atoms: CZ   and  NH2 
ROOT
ATOM      1  CA  ARG D 557     -26.217   2.705 -17.014  1.00 35.49     0.159 C 
ENDROOT
BRANCH   1   2
ATOM      2  CB  ARG D 557     -26.789   1.319 -17.183  1.00 35.49     0.034 C 
BRANCH   2   3
ATOM      3  CG  ARG D 557     -28.232   1.226 -17.438  1.00 35.49     0.027 C 
BRANCH   3   4
ATOM      4  CD  ARG D 557     -28.898   0.240 -16.557  1.00 35.49     0.116 C 
BRANCH   4   5
ATOM      5  NE  ARG D 557     -28.010  -0.821 -16.162  1.00 35.49    -0.212 N 
ATOM      6  CZ  ARG D 557     -28.084  -2.072 -16.558  1.00 35.49     0.666 C 
ATOM      7  NH1 ARG D 557     -29.025  -2.501 -17.380  1.00 35.49    -0.235 N 
ATOM      8  NH2 ARG D 557     -27.180  -2.897 -16.115  1.00 35.49    -0.235 N 
ATOM      9  HH  ARG D 557     -29.628  -1.976 -17.685  1.00 35.49     0.174 HD
ATOM     10  HH  ARG D 557     -29.021  -3.328 -17.606  1.00 35.49     0.174 HD
ATOM     11  HH  ARG D 557     -26.581  -2.590 -15.591  1.00 35.49     0.174 HD
ATOM     12  HH  ARG D 557     -27.193  -3.711 -16.351  1.00 35.49     0.174 HD
ATOM     13  HE  ARG D 557     -27.418  -0.649 -15.577  1.00 35.49     0.178 HD
ENDBRANCH   4   5
ENDBRANCH   3   4
ENDBRANCH   2   3
ENDBRANCH   1   2
END_RES ARG D 557
BEGIN_RES GLU D 570
REMARK  3 active torsions:
REMARK  status: ('A' for Active; 'I' for Inactive)
REMARK    5  A    between atoms: CA   and  CB  
REMARK    6  A    between atoms: CB   and  CG  
REMARK    7  A    between atoms: CG   and  CD  
ROOT
ATOM     14  CA  GLU D 570     -18.033  -6.348 -13.375  1.00 32.92     0.160 C 
ENDROOT
BRANCH  14  15
ATOM     15  CB  GLU D 570     -19.500  -6.345 -13.794  1.00 32.92     0.043 C 
BRANCH  15  16
ATOM     16  CG  GLU D 570     -20.091  -7.638 -14.226  1.00 32.92     0.100 C 
BRANCH  16  17
ATOM     17  CD  GLU D 570     -20.662  -7.587 -15.624  1.00 32.92     0.185 C 
ATOM     18  OE1 GLU D 570     -21.163  -8.618 -16.111  1.00 32.92    -0.647 OA
ATOM     19  OE2 GLU D 570     -20.593  -6.508 -16.245  1.00 32.92    -0.647 OA
ENDBRANCH  16  17
ENDBRANCH  15  16
ENDBRANCH  14  15
END_RES GLU D 570
ENDMDL
MODEL 5
REMARK VINA RESULT:      -4.8      1.846      3.132
REMARK  22 active torsions:
REMARK  status: ('A' for Active; 'I' for Inactive)
REMARK    1  A    between atoms: C_2  and  C_3 
REMARK    2  A    between atoms: C_3  and  C_4 
REMARK    3  A    between atoms: C_4  and  C_5 
REMARK    4  A    between atoms: C_5  and  C_6 
REMARK    5  A    between atoms: C_6  and  C_7 
REMARK    6  A    between atoms: C_7  and  C_8 
REMARK    7  A    between atoms: C_8  and  C_9 
REMARK    8  A    between atoms: C_9  and  C_10 
REMARK    9  A    between atoms: C_10  and  C_11 
REMARK   10  A    between atoms: C_11  and  C_12 
REMARK   11  A    between atoms: C_12  and  C_13 
REMARK   12  A    between atoms: C_15  and  S_19 
REMARK   13  A    between atoms: S_19  and  O_22 
REMARK   14  A    between atoms: C_24  and  C_25 
REMARK   15  A    between atoms: C_24  and  N_27 
REMARK   16  A    between atoms: C_25  and  O_26 
REMARK   17  A    between atoms: N_27  and  C_28 
REMARK   18  A    between atoms: N_27  and  C_31 
REMARK   19  A    between atoms: C_28  and  C_29 
REMARK   20  A    between atoms: C_29  and  O_30 
REMARK   21  A    between atoms: C_31  and  C_32 
REMARK   22  A    between atoms: C_32  and  O_33 
ROOT
HETATM    1  N   UNL     2     -23.432  -3.328 -12.469  1.00  0.00     0.094 N 
ENDROOT
BRANCH   1   2
HETATM    2  C   UNL     2     -22.590  -4.175 -13.341  1.00  0.00     0.298 C 
BRANCH   2   3
HETATM    3  C   UNL     2     -23.290  -5.467 -13.768  1.00  0.00     0.194 C 
BRANCH   3   4
HETATM    4  O   UNL     2     -23.434  -5.484 -15.180  1.00  0.00    -0.399 OA
HETATM    5  H   UNL     2     -22.621  -5.088 -15.558  1.00  0.00     0.209 HD
ENDBRANCH   3   4
ENDBRANCH   2   3
ENDBRANCH   1   2
BRANCH   1   6
HETATM    6  C   UNL     2     -24.528  -2.706 -13.232  1.00  0.00     0.298 C 
BRANCH   6   7
HETATM    7  C   UNL     2     -24.236  -1.845 -14.471  1.00  0.00     0.194 C 
BRANCH   7   8
HETATM    8  O   UNL     2     -25.348  -0.993 -14.758  1.00  0.00    -0.399 OA
HETATM    9  H   UNL     2     -25.803  -0.839 -13.909  1.00  0.00     0.209 HD
ENDBRANCH   7   8
ENDBRANCH   6   7
ENDBRANCH   1   6
BRANCH   1  10
HETATM   10  C   UNL     2     -24.011  -4.149 -11.364  1.00  0.00     0.298 C 
BRANCH  10  11
HETATM   11  C   UNL     2     -24.295  -3.329 -10.097  1.00  0.00     0.194 C 
BRANCH  11  12
HETATM   12  O   UNL     2     -25.691  -3.355  -9.811  1.00  0.00    -0.399 OA
HETATM   13  H   UNL     2     -25.746  -3.319  -8.834  1.00  0.00     0.209 HD
ENDBRANCH  11  12
ENDBRANCH  10  11
ENDBRANCH   1  10
TORSDOF 22
BEGIN_RES ARG D 557
REMARK  4 active torsions:
REMARK  status: ('A' for Active; 'I' for Inactive)
REMARK    1  A    between atoms: CA   and  CB  
REMARK    2  A    between atoms: CB   and  CG  
REMARK    3  A    between atoms: CG   and  CD  
REMARK    4  A    between atoms: CD   and  NE  
REMARK       I    between atoms: NE   and  CZ  
REMARK       I    between atoms: CZ   and  NH1 
REMARK       I    between atoms: CZ   and  NH2 
ROOT
ATOM      1  CA  ARG D 557     -26.217   2.705 -17.014  1.00 35.49     0.159 C 
ENDROOT
BRANCH   1   2
ATOM      2  CB  ARG D 557     -26.789   1.319 -17.183  1.00 35.49     0.034 C 
BRANCH   2   3
ATOM      3  CG  ARG D 557     -28.212   1.148 -16.866  1.00 35.49     0.027 C 
BRANCH   3   4
ATOM      4  CD  ARG D 557     -28.697  -0.219 -17.164  1.00 35.49     0.116 C 
BRANCH   4   5
ATOM      5  NE  ARG D 557     -27.906  -1.228 -16.510  1.00 35.49    -0.212 N 
ATOM      6  CZ  ARG D 557     -28.054  -2.527 -16.646  1.00 35.49     0.666 C 
ATOM      7  NH1 ARG D 557     -28.987  -3.058 -17.415  1.00 35.49    -0.235 N 
ATOM      8  NH2 ARG D 557     -27.232  -3.297 -15.993  1.00 35.49    -0.235 N 
ATOM      9  HH  ARG D 557     -29.537  -2.571 -17.856  1.00 35.49     0.174 HD
ATOM     10  HH  ARG D 557     -29.034  -3.912 -17.467  1.00 35.49     0.174 HD
ATOM     11  HH  ARG D 557     -26.635  -2.926 -15.510  1.00 35.49     0.174 HD
ATOM     12  HH  ARG D 557     -27.294  -4.140 -16.059  1.00 35.49     0.174 HD
ATOM     13  HE  ARG D 557     -27.328  -0.976 -15.939  1.00 35.49     0.178 HD
ENDBRANCH   4   5
ENDBRANCH   3   4
ENDBRANCH   2   3
ENDBRANCH   1   2
END_RES ARG D 557
BEGIN_RES GLU D 570
REMARK  3 active torsions:
REMARK  status: ('A' for Active; 'I' for Inactive)
REMARK    5  A    between atoms: CA   and  CB  
REMARK    6  A    between atoms: CB   and  CG  
REMARK    7  A    between atoms: CG   and  CD  
ROOT
ATOM     14  CA  GLU D 570     -18.033  -6.348 -13.375  1.00 32.92     0.160 C 
ENDROOT
BRANCH  14  15
ATOM     15  CB  GLU D 570     -19.500  -6.345 -13.794  1.00 32.92     0.043 C 
BRANCH  15  16
ATOM     16  CG  GLU D 570     -20.097  -7.642 -14.206  1.00 32.92     0.100 C 
BRANCH  16  17
ATOM     17  CD  GLU D 570     -20.617  -7.627 -15.625  1.00 32.92     0.185 C 
ATOM     18  OE1 GLU D 570     -20.802  -8.709 -16.213  1.00 32.92    -0.647 OA
ATOM     19  OE2 GLU D 570     -20.826  -6.520 -16.159  1.00 32.92    -0.647 OA
ENDBRANCH  16  17
ENDBRANCH  15  16
ENDBRANCH  14  15
END_RES GLU D 570
ENDMDL
MODEL 6
REMARK VINA RESULT:      -4.8      4.130      6.805
REMARK  22 active torsions:
REMARK  status: ('A' for Active; 'I' for Inactive)
REMARK    1  A    between atoms: C_2  and  C_3 
REMARK    2  A    between atoms: C_3  and  C_4 
REMARK    3  A    between atoms: C_4  and  C_5 
REMARK    4  A    between atoms: C_5  and  C_6 
REMARK    5  A    between atoms: C_6  and  C_7 
REMARK    6  A    between atoms: C_7  and  C_8 
REMARK    7  A    between atoms: C_8  and  C_9 
REMARK    8  A    between atoms: C_9  and  C_10 
REMARK    9  A    between atoms: C_10  and  C_11 
REMARK   10  A    between atoms: C_11  and  C_12 
REMARK   11  A    between atoms: C_12  and  C_13 
REMARK   12  A    between atoms: C_15  and  S_19 
REMARK   13  A    between atoms: S_19  and  O_22 
REMARK   14  A    between atoms: C_24  and  C_25 
REMARK   15  A    between atoms: C_24  and  N_27 
REMARK   16  A    between atoms: C_25  and  O_26 
REMARK   17  A    between atoms: N_27  and  C_28 
REMARK   18  A    between atoms: N_27  and  C_31 
REMARK   19  A    between atoms: C_28  and  C_29 
REMARK   20  A    between atoms: C_29  and  O_30 
REMARK   21  A    between atoms: C_31  and  C_32 
REMARK   22  A    between atoms: C_32  and  O_33 
ROOT
HETATM    1  N   UNL     2     -28.756  -5.620 -17.356  1.00  0.00     0.094 N 
ENDROOT
BRANCH   1   2
HETATM    2  C   UNL     2     -28.741  -6.651 -18.417  1.00  0.00     0.298 C 
BRANCH   2   3
HETATM    3  C   UNL     2     -29.930  -7.610 -18.329  1.00  0.00     0.194 C 
BRANCH   3   4
HETATM    4  O   UNL     2     -29.687  -8.743 -19.149  1.00  0.00    -0.399 OA
HETATM    5  H   UNL     2     -30.551  -9.022 -19.519  1.00  0.00     0.209 HD
ENDBRANCH   3   4
ENDBRANCH   2   3
ENDBRANCH   1   2
BRANCH   1   6
HETATM    6  C   UNL     2     -27.408  -5.416 -16.797  1.00  0.00     0.298 C 
BRANCH   6   7
HETATM    7  C   UNL     2     -27.128  -4.270 -15.812  1.00  0.00     0.194 C 
BRANCH   7   8
HETATM    8  O   UNL     2     -25.776  -4.330 -15.351  1.00  0.00    -0.399 OA
HETATM    9  H   UNL     2     -25.562  -5.276 -15.244  1.00  0.00     0.209 HD
ENDBRANCH   7   8
ENDBRANCH   6   7
ENDBRANCH   1   6
BRANCH   1  10
HETATM   10  C   UNL     2     -29.258  -4.327 -17.908  1.00  0.00     0.298 C 
BRANCH  10  11
HETATM   11  C   UNL     2     -30.658  -3.963 -17.393  1.00  0.00     0.194 C 
BRANCH  11  12
HETATM   12  O   UNL     2     -31.241  -2.977 -18.242  1.00  0.00    -0.399 OA
HETATM   13  H   UNL     2     -31.259  -2.161 -17.701  1.00  0.00     0.209 HD
ENDBRANCH  11  12
ENDBRANCH  10  11
ENDBRANCH   1  10
TORSDOF 22
BEGIN_RES ARG D 557
REMARK  4 active torsions:
REMARK  status: ('A' for Active; 'I' for Inactive)
REMARK    1  A    between atoms: CA   and  CB  
REMARK    2  A    between atoms: CB   and  CG  
REMARK    3  A    between atoms: CG   and  CD  
REMARK    4  A    between atoms: CD   and  NE  
REMARK       I    between atoms: NE   and  CZ  
REMARK       I    between atoms: CZ   and  NH1 
REMARK       I    between atoms: CZ   and  NH2 
ROOT
ATOM      1  CA  ARG D 557     -26.217   2.705 -17.014  1.00 35.49     0.159 C 
ENDROOT
BRANCH   1   2
ATOM      2  CB  ARG D 557     -26.789   1.319 -17.183  1.00 35.49     0.034 C 
BRANCH   2   3
ATOM      3  CG  ARG D 557     -25.834   0.204 -17.167  1.00 35.49     0.027 C 
BRANCH   3   4
ATOM      4  CD  ARG D 557     -24.759   0.396 -16.168  1.00 35.49     0.116 C 
BRANCH   4   5
ATOM      5  NE  ARG D 557     -24.922  -0.462 -15.024  1.00 35.49    -0.212 N 
ATOM      6  CZ  ARG D 557     -24.107  -1.429 -14.666  1.00 35.49     0.666 C 
ATOM      7  NH1 ARG D 557     -23.022  -1.733 -15.354  1.00 35.49    -0.235 N 
ATOM      8  NH2 ARG D 557     -24.401  -2.092 -13.586  1.00 35.49    -0.235 N 
ATOM      9  HH  ARG D 557     -22.809  -1.308 -16.067  1.00 35.49     0.174 HD
ATOM     10  HH  ARG D 557     -22.527  -2.372 -15.071  1.00 35.49     0.174 HD
ATOM     11  HH  ARG D 557     -25.104  -1.869 -13.157  1.00 35.49     0.174 HD
ATOM     12  HH  ARG D 557     -23.897  -2.721 -13.321  1.00 35.49     0.174 HD
ATOM     13  HE  ARG D 557     -25.633  -0.383 -14.564  1.00 35.49     0.178 HD
ENDBRANCH   4   5
ENDBRANCH   3   4
ENDBRANCH   2   3
ENDBRANCH   1   2
END_RES ARG D 557
BEGIN_RES GLU D 570
REMARK  3 active torsions:
REMARK  status: ('A' for Active; 'I' for Inactive)
REMARK    5  A    between atoms: CA   and  CB  
REMARK    6  A    between atoms: CB   and  CG  
REMARK    7  A    between atoms: CG   and  CD  
ROOT
ATOM     14  CA  GLU D 570     -18.033  -6.348 -13.375  1.00 32.92     0.160 C 
ENDROOT
BRANCH  14  15
ATOM     15  CB  GLU D 570     -19.500  -6.345 -13.794  1.00 32.92     0.043 C 
BRANCH  15  16
ATOM     16  CG  GLU D 570     -20.441  -5.526 -12.987  1.00 32.92     0.100 C 
BRANCH  16  17
ATOM     17  CD  GLU D 570     -21.737  -5.235 -13.707  1.00 32.92     0.185 C 
ATOM     18  OE1 GLU D 570     -22.184  -6.076 -14.511  1.00 32.92    -0.647 OA
ATOM     19  OE2 GLU D 570     -22.302  -4.148 -13.478  1.00 32.92    -0.647 OA
ENDBRANCH  16  17
ENDBRANCH  15  16
ENDBRANCH  14  15
END_RES GLU D 570
ENDMDL
MODEL 7
REMARK VINA RESULT:      -4.8      4.223      6.965
REMARK  22 active torsions:
REMARK  status: ('A' for Active; 'I' for Inactive)
REMARK    1  A    between atoms: C_2  and  C_3 
REMARK    2  A    between atoms: C_3  and  C_4 
REMARK    3  A    between atoms: C_4  and  C_5 
REMARK    4  A    between atoms: C_5  and  C_6 
REMARK    5  A    between atoms: C_6  and  C_7 
REMARK    6  A    between atoms: C_7  and  C_8 
REMARK    7  A    between atoms: C_8  and  C_9 
REMARK    8  A    between atoms: C_9  and  C_10 
REMARK    9  A    between atoms: C_10  and  C_11 
REMARK   10  A    between atoms: C_11  and  C_12 
REMARK   11  A    between atoms: C_12  and  C_13 
REMARK   12  A    between atoms: C_15  and  S_19 
REMARK   13  A    between atoms: S_19  and  O_22 
REMARK   14  A    between atoms: C_24  and  C_25 
REMARK   15  A    between atoms: C_24  and  N_27 
REMARK   16  A    between atoms: C_25  and  O_26 
REMARK   17  A    between atoms: N_27  and  C_28 
REMARK   18  A    between atoms: N_27  and  C_31 
REMARK   19  A    between atoms: C_28  and  C_29 
REMARK   20  A    between atoms: C_29  and  O_30 
REMARK   21  A    between atoms: C_31  and  C_32 
REMARK   22  A    between atoms: C_32  and  O_33 
ROOT
HETATM    1  N   UNL     2     -28.476  -6.182 -17.952  1.00  0.00     0.094 N 
ENDROOT
BRANCH   1   2
HETATM    2  C   UNL     2     -29.460  -7.176 -17.470  1.00  0.00     0.298 C 
BRANCH   2   3
HETATM    3  C   UNL     2     -30.309  -7.766 -18.597  1.00  0.00     0.194 C 
BRANCH   3   4
HETATM    4  O   UNL     2     -29.601  -8.827 -19.218  1.00  0.00    -0.399 OA
HETATM    5  H   UNL     2     -29.509  -9.542 -18.553  1.00  0.00     0.209 HD
ENDBRANCH   3   4
ENDBRANCH   2   3
ENDBRANCH   1   2
BRANCH   1   6
HETATM    6  C   UNL     2     -29.145  -4.942 -18.383  1.00  0.00     0.298 C 
BRANCH   6   7
HETATM    7  C   UNL     2     -30.108  -4.197 -17.445  1.00  0.00     0.194 C 
BRANCH   7   8
HETATM    8  O   UNL     2     -30.668  -3.061 -18.107  1.00  0.00    -0.399 OA
HETATM    9  H   UNL     2     -29.985  -2.736 -18.724  1.00  0.00     0.209 HD
ENDBRANCH   7   8
ENDBRANCH   6   7
ENDBRANCH   1   6
BRANCH   1  10
HETATM   10  C   UNL     2     -27.502  -5.860 -16.867  1.00  0.00     0.298 C 
BRANCH  10  11
HETATM   11  C   UNL     2     -27.509  -6.896 -15.733  1.00  0.00     0.194 C 
BRANCH  11  12
HETATM   12  O   UNL     2     -26.227  -7.511 -15.635  1.00  0.00    -0.399 OA
HETATM   13  H   UNL     2     -25.635  -6.941 -16.169  1.00  0.00     0.209 HD
ENDBRANCH  11  12
ENDBRANCH  10  11
ENDBRANCH   1  10
TORSDOF 22
BEGIN_RES ARG D 557
REMARK  4 active torsions:
REMARK  status: ('A' for Active; 'I' for Inactive)
REMARK    1  A    between atoms: CA   and  CB  
REMARK    2  A    between atoms: CB   and  CG  
REMARK    3  A    between atoms: CG   and  CD  
REMARK    4  A    between atoms: CD   and  NE  
REMARK       I    between atoms: NE   and  CZ  
REMARK       I    between atoms: CZ   and  NH1 
REMARK       I    between atoms: CZ   and  NH2 
ROOT
ATOM      1  CA  ARG D 557     -26.217   2.705 -17.014  1.00 35.49     0.159 C 
ENDROOT
BRANCH   1   2
ATOM      2  CB  ARG D 557     -26.789   1.319 -17.183  1.00 35.49     0.034 C 
BRANCH   2   3
ATOM      3  CG  ARG D 557     -25.864   0.195 -16.996  1.00 35.49     0.027 C 
BRANCH   3   4
ATOM      4  CD  ARG D 557     -26.301  -0.723 -15.919  1.00 35.49     0.116 C 
BRANCH   4   5
ATOM      5  NE  ARG D 557     -25.267  -0.946 -14.943  1.00 35.49    -0.212 N 
ATOM      6  CZ  ARG D 557     -24.996  -2.092 -14.359  1.00 35.49     0.666 C 
ATOM      7  NH1 ARG D 557     -25.681  -3.193 -14.607  1.00 35.49    -0.235 N 
ATOM      8  NH2 ARG D 557     -24.007  -2.116 -13.514  1.00 35.49    -0.235 N 
ATOM      9  HH  ARG D 557     -26.334  -3.201 -15.161  1.00 35.49     0.174 HD
ATOM     10  HH  ARG D 557     -25.457  -3.912 -14.198  1.00 35.49     0.174 HD
ATOM     11  HH  ARG D 557     -23.578  -1.392 -13.379  1.00 35.49     0.174 HD
ATOM     12  HH  ARG D 557     -23.800  -2.838 -13.120  1.00 35.49     0.174 HD
ATOM     13  HE  ARG D 557     -24.823  -0.274 -14.671  1.00 35.49     0.178 HD
ENDBRANCH   4   5
ENDBRANCH   3   4
ENDBRANCH   2   3
ENDBRANCH   1   2
END_RES ARG D 557
BEGIN_RES GLU D 570
REMARK  3 active torsions:
REMARK  status: ('A' for Active; 'I' for Inactive)
REMARK    5  A    between atoms: CA   and  CB  
REMARK    6  A    between atoms: CB   and  CG  
REMARK    7  A    between atoms: CG   and  CD  
ROOT
ATOM     14  CA  GLU D 570     -18.033  -6.348 -13.375  1.00 32.92     0.160 C 
ENDROOT
BRANCH  14  15
ATOM     15  CB  GLU D 570     -19.500  -6.345 -13.794  1.00 32.92     0.043 C 
BRANCH  15  16
ATOM     16  CG  GLU D 570     -20.450  -5.572 -12.954  1.00 32.92     0.100 C 
BRANCH  16  17
ATOM     17  CD  GLU D 570     -21.678  -5.124 -13.712  1.00 32.92     0.185 C 
ATOM     18  OE1 GLU D 570     -21.612  -4.997 -14.950  1.00 32.92    -0.647 OA
ATOM     19  OE2 GLU D 570     -22.713  -4.883 -13.059  1.00 32.92    -0.647 OA
ENDBRANCH  16  17
ENDBRANCH  15  16
ENDBRANCH  14  15
END_RES GLU D 570
ENDMDL
MODEL 8
REMARK VINA RESULT:      -4.7      4.216      6.763
REMARK  22 active torsions:
REMARK  status: ('A' for Active; 'I' for Inactive)
REMARK    1  A    between atoms: C_2  and  C_3 
REMARK    2  A    between atoms: C_3  and  C_4 
REMARK    3  A    between atoms: C_4  and  C_5 
REMARK    4  A    between atoms: C_5  and  C_6 
REMARK    5  A    between atoms: C_6  and  C_7 
REMARK    6  A    between atoms: C_7  and  C_8 
REMARK    7  A    between atoms: C_8  and  C_9 
REMARK    8  A    between atoms: C_9  and  C_10 
REMARK    9  A    between atoms: C_10  and  C_11 
REMARK   10  A    between atoms: C_11  and  C_12 
REMARK   11  A    between atoms: C_12  and  C_13 
REMARK   12  A    between atoms: C_15  and  S_19 
REMARK   13  A    between atoms: S_19  and  O_22 
REMARK   14  A    between atoms: C_24  and  C_25 
REMARK   15  A    between atoms: C_24  and  N_27 
REMARK   16  A    between atoms: C_25  and  O_26 
REMARK   17  A    between atoms: N_27  and  C_28 
REMARK   18  A    between atoms: N_27  and  C_31 
REMARK   19  A    between atoms: C_28  and  C_29 
REMARK   20  A    between atoms: C_29  and  O_30 
REMARK   21  A    between atoms: C_31  and  C_32 
REMARK   22  A    between atoms: C_32  and  O_33 
ROOT
HETATM    1  N   UNL     2     -28.686  -5.910 -18.064  1.00  0.00     0.094 N 
ENDROOT
BRANCH   1   2
HETATM    2  C   UNL     2     -27.585  -5.911 -17.074  1.00  0.00     0.298 C 
BRANCH   2   3
HETATM    3  C   UNL     2     -27.827  -6.884 -15.919  1.00  0.00     0.194 C 
BRANCH   3   4
HETATM    4  O   UNL     2     -26.599  -7.489 -15.544  1.00  0.00    -0.399 OA
HETATM    5  H   UNL     2     -25.893  -7.063 -16.074  1.00  0.00     0.209 HD
ENDBRANCH   3   4
ENDBRANCH   2   3
ENDBRANCH   1   2
BRANCH   1   6
HETATM    6  C   UNL     2     -29.790  -6.782 -17.628  1.00  0.00     0.298 C 
BRANCH   6   7
HETATM    7  C   UNL     2     -30.443  -7.775 -18.602  1.00  0.00     0.194 C 
BRANCH   7   8
HETATM    8  O   UNL     2     -29.485  -8.737 -19.049  1.00  0.00    -0.399 OA
HETATM    9  H   UNL     2     -29.992  -9.523 -19.326  1.00  0.00     0.209 HD
ENDBRANCH   7   8
ENDBRANCH   6   7
ENDBRANCH   1   6
BRANCH   1  10
HETATM   10  C   UNL     2     -29.202  -4.522 -18.251  1.00  0.00     0.298 C 
BRANCH  10  11
HETATM   11  C   UNL     2     -30.422  -4.216 -17.369  1.00  0.00     0.194 C 
BRANCH  11  12
HETATM   12  O   UNL     2     -30.937  -2.926 -17.692  1.00  0.00    -0.399 OA
HETATM   13  H   UNL     2     -30.508  -2.692 -18.541  1.00  0.00     0.209 HD
ENDBRANCH  11  12
ENDBRANCH  10  11
ENDBRANCH   1  10
TORSDOF 22
BEGIN_RES ARG D 557
REMARK  4 active torsions:
REMARK  status: ('A' for Active; 'I' for Inactive)
REMARK    1  A    between atoms: CA   and  CB  
REMARK    2  A    between atoms: CB   and  CG  
REMARK    3  A    between atoms: CG   and  CD  
REMARK    4  A    between atoms: CD   and  NE  
REMARK       I    between atoms: NE   and  CZ  
REMARK       I    between atoms: CZ   and  NH1 
REMARK       I    between atoms: CZ   and  NH2 
ROOT
ATOM      1  CA  ARG D 557     -26.217   2.705 -17.014  1.00 35.49     0.159 C 
ENDROOT
BRANCH   1   2
ATOM      2  CB  ARG D 557     -26.789   1.319 -17.183  1.00 35.49     0.034 C 
BRANCH   2   3
ATOM      3  CG  ARG D 557     -25.865   0.195 -16.991  1.00 35.49     0.027 C 
BRANCH   3   4
ATOM      4  CD  ARG D 557     -26.302  -0.717 -15.909  1.00 35.49     0.116 C 
BRANCH   4   5
ATOM      5  NE  ARG D 557     -25.267  -0.938 -14.934  1.00 35.49    -0.212 N 
ATOM      6  CZ  ARG D 557     -24.991  -2.085 -14.354  1.00 35.49     0.666 C 
ATOM      7  NH1 ARG D 557     -25.670  -3.188 -14.605  1.00 35.49    -0.235 N 
ATOM      8  NH2 ARG D 557     -24.001  -2.106 -13.509  1.00 35.49    -0.235 N 
ATOM      9  HH  ARG D 557     -26.324  -3.197 -15.159  1.00 35.49     0.174 HD
ATOM     10  HH  ARG D 557     -25.443  -3.907 -14.198  1.00 35.49     0.174 HD
ATOM     11  HH  ARG D 557     -23.575  -1.380 -13.372  1.00 35.49     0.174 HD
ATOM     12  HH  ARG D 557     -23.791  -2.829 -13.117  1.00 35.49     0.174 HD
ATOM     13  HE  ARG D 557     -24.826  -0.265 -14.660  1.00 35.49     0.178 HD
ENDBRANCH   4   5
ENDBRANCH   3   4
ENDBRANCH   2   3
ENDBRANCH   1   2
END_RES ARG D 557
BEGIN_RES GLU D 570
REMARK  3 active torsions:
REMARK  status: ('A' for Active; 'I' for Inactive)
REMARK    5  A    between atoms: CA   and  CB  
REMARK    6  A    between atoms: CB   and  CG  
REMARK    7  A    between atoms: CG   and  CD  
ROOT
ATOM     14  CA  GLU D 570     -18.033  -6.348 -13.375  1.00 32.92     0.160 C 
ENDROOT
BRANCH  14  15
ATOM     15  CB  GLU D 570     -19.500  -6.345 -13.794  1.00 32.92     0.043 C 
BRANCH  15  16
ATOM     16  CG  GLU D 570     -20.451  -5.575 -12.951  1.00 32.92     0.100 C 
BRANCH  16  17
ATOM     17  CD  GLU D 570     -21.678  -5.124 -13.709  1.00 32.92     0.185 C 
ATOM     18  OE1 GLU D 570     -21.621  -5.027 -14.950  1.00 32.92    -0.647 OA
ATOM     19  OE2 GLU D 570     -22.702  -4.848 -13.053  1.00 32.92    -0.647 OA
ENDBRANCH  16  17
ENDBRANCH  15  16
ENDBRANCH  14  15
END_RES GLU D 570
ENDMDL
MODEL 9
REMARK VINA RESULT:      -4.7      1.782      3.497
REMARK  22 active torsions:
REMARK  status: ('A' for Active; 'I' for Inactive)
REMARK    1  A    between atoms: C_2  and  C_3 
REMARK    2  A    between atoms: C_3  and  C_4 
REMARK    3  A    between atoms: C_4  and  C_5 
REMARK    4  A    between atoms: C_5  and  C_6 
REMARK    5  A    between atoms: C_6  and  C_7 
REMARK    6  A    between atoms: C_7  and  C_8 
REMARK    7  A    between atoms: C_8  and  C_9 
REMARK    8  A    between atoms: C_9  and  C_10 
REMARK    9  A    between atoms: C_10  and  C_11 
REMARK   10  A    between atoms: C_11  and  C_12 
REMARK   11  A    between atoms: C_12  and  C_13 
REMARK   12  A    between atoms: C_15  and  S_19 
REMARK   13  A    between atoms: S_19  and  O_22 
REMARK   14  A    between atoms: C_24  and  C_25 
REMARK   15  A    between atoms: C_24  and  N_27 
REMARK   16  A    between atoms: C_25  and  O_26 
REMARK   17  A    between atoms: N_27  and  C_28 
REMARK   18  A    between atoms: N_27  and  C_31 
REMARK   19  A    between atoms: C_28  and  C_29 
REMARK   20  A    between atoms: C_29  and  O_30 
REMARK   21  A    between atoms: C_31  and  C_32 
REMARK   22  A    between atoms: C_32  and  O_33 
ROOT
HETATM    1  N   UNL     2     -24.099  -3.831 -12.253  1.00  0.00     0.094 N 
ENDROOT
BRANCH   1   2
HETATM    2  C   UNL     2     -24.296  -2.647 -13.117  1.00  0.00     0.298 C 
BRANCH   2   3
HETATM    3  C   UNL     2     -25.599  -2.707 -13.917  1.00  0.00     0.194 C 
BRANCH   3   4
HETATM    4  O   UNL     2     -25.303  -2.923 -15.288  1.00  0.00    -0.399 OA
HETATM    5  H   UNL     2     -26.159  -3.009 -15.759  1.00  0.00     0.209 HD
ENDBRANCH   3   4
ENDBRANCH   2   3
ENDBRANCH   1   2
BRANCH   1   6
HETATM    6  C   UNL     2     -23.116  -4.757 -12.841  1.00  0.00     0.298 C 
BRANCH   6   7
HETATM    7  C   UNL     2     -23.537  -5.785 -13.903  1.00  0.00     0.194 C 
BRANCH   7   8
HETATM    8  O   UNL     2     -23.348  -5.250 -15.215  1.00  0.00    -0.399 OA
HETATM    9  H   UNL     2     -23.700  -5.914 -15.837  1.00  0.00     0.209 HD
ENDBRANCH   7   8
ENDBRANCH   6   7
ENDBRANCH   1   6
BRANCH   1  10
HETATM   10  C   UNL     2     -23.622  -3.404 -10.904  1.00  0.00     0.298 C 
BRANCH  10  11
HETATM   11  C   UNL     2     -24.523  -3.908  -9.767  1.00  0.00     0.194 C 
BRANCH  11  12
HETATM   12  O   UNL     2     -25.760  -3.200  -9.782  1.00  0.00    -0.399 OA
HETATM   13  H   UNL     2     -25.525  -2.282  -9.536  1.00  0.00     0.209 HD
ENDBRANCH  11  12
ENDBRANCH  10  11
ENDBRANCH   1  10
TORSDOF 22
BEGIN_RES ARG D 557
REMARK  4 active torsions:
REMARK  status: ('A' for Active; 'I' for Inactive)
REMARK    1  A    between atoms: CA   and  CB  
REMARK    2  A    between atoms: CB   and  CG  
REMARK    3  A    between atoms: CG   and  CD  
REMARK    4  A    between atoms: CD   and  NE  
REMARK       I    between atoms: NE   and  CZ  
REMARK       I    between atoms: CZ   and  NH1 
REMARK       I    between atoms: CZ   and  NH2 
ROOT
ATOM      1  CA  ARG D 557     -26.217   2.705 -17.014  1.00 35.49     0.159 C 
ENDROOT
BRANCH   1   2
ATOM      2  CB  ARG D 557     -26.789   1.319 -17.183  1.00 35.49     0.034 C 
BRANCH   2   3
ATOM      3  CG  ARG D 557     -28.150   1.100 -16.679  1.00 35.49     0.027 C 
BRANCH   3   4
ATOM      4  CD  ARG D 557     -28.790  -0.092 -17.280  1.00 35.49     0.116 C 
BRANCH   4   5
ATOM      5  NE  ARG D 557     -28.173  -1.317 -16.844  1.00 35.49    -0.212 N 
ATOM      6  CZ  ARG D 557     -28.650  -2.527 -17.032  1.00 35.49     0.666 C 
ATOM      7  NH1 ARG D 557     -29.794  -2.750 -17.653  1.00 35.49    -0.235 N 
ATOM      8  NH2 ARG D 557     -27.945  -3.526 -16.587  1.00 35.49    -0.235 N 
ATOM      9  HH  ARG D 557     -30.273  -2.107 -17.956  1.00 35.49     0.174 HD
ATOM     10  HH  ARG D 557     -30.053  -3.561 -17.749  1.00 35.49     0.174 HD
ATOM     11  HH  ARG D 557     -27.206  -3.353 -16.197  1.00 35.49     0.174 HD
ATOM     12  HH  ARG D 557     -28.218  -4.322 -16.693  1.00 35.49     0.174 HD
ATOM     13  HE  ARG D 557     -27.467  -1.263 -16.372  1.00 35.49     0.178 HD
ENDBRANCH   4   5
ENDBRANCH   3   4
ENDBRANCH   2   3
ENDBRANCH   1   2
END_RES ARG D 557
BEGIN_RES GLU D 570
REMARK  3 active torsions:
REMARK  status: ('A' for Active; 'I' for Inactive)
REMARK    5  A    between atoms: CA   and  CB  
REMARK    6  A    between atoms: CB   and  CG  
REMARK    7  A    between atoms: CG   and  CD  
ROOT
ATOM     14  CA  GLU D 570     -18.033  -6.348 -13.375  1.00 32.92     0.160 C 
ENDROOT
BRANCH  14  15
ATOM     15  CB  GLU D 570     -19.500  -6.345 -13.794  1.00 32.92     0.043 C 
BRANCH  15  16
ATOM     16  CG  GLU D 570     -20.085  -7.633 -14.249  1.00 32.92     0.100 C 
BRANCH  16  17
ATOM     17  CD  GLU D 570     -20.705  -7.546 -15.623  1.00 32.92     0.185 C 
ATOM     18  OE1 GLU D 570     -21.145  -8.583 -16.156  1.00 32.92    -0.647 OA
ATOM     19  OE2 GLU D 570     -20.738  -6.431 -16.181  1.00 32.92    -0.647 OA
ENDBRANCH  16  17
ENDBRANCH  15  16
ENDBRANCH  14  15
END_RES GLU D 570
ENDMDL
