MODEL 1
REMARK VINA RESULT:      -7.1      0.000      0.000
REMARK  17 active torsions:
REMARK  status: ('A' for Active; 'I' for Inactive)
REMARK    1  A    between atoms: C_2  and  C_3 
REMARK    2  A    between atoms: C_3  and  C_4 
REMARK    3  A    between atoms: C_4  and  C_5 
REMARK    4  A    between atoms: C_5  and  C_6 
REMARK    5  A    between atoms: C_6  and  C_7 
REMARK    6  A    between atoms: C_7  and  C_8 
REMARK    7  A    between atoms: C_8  and  C_9 
REMARK    8  A    between atoms: C_9  and  C_10 
REMARK    9  A    between atoms: C_10  and  C_11 
REMARK   10  A    between atoms: C_11  and  C_12 
REMARK   11  A    between atoms: C_12  and  C_13 
REMARK   12  A    between atoms: C_13  and  C_14 
REMARK   13  A    between atoms: C_14  and  C_15 
REMARK   14  A    between atoms: C_15  and  C_16 
REMARK   15  A    between atoms: C_16  and  C_17 
REMARK   16  A    between atoms: C_17  and  C_18 
REMARK   17  A    between atoms: C_18  and  O_20 
ROOT
HETATM    1  C   UNL     1     -20.529  -6.362  -5.995  1.00  0.00     0.000 C 
ENDROOT
BRANCH   1   2
HETATM    2  C   UNL     1     -20.925  -7.108  -4.734  1.00  0.00     0.000 C 
BRANCH   2   3
HETATM    3  C   UNL     1     -22.032  -6.359  -4.017  1.00  0.00     0.000 C 
BRANCH   3   4
HETATM    4  C   UNL     1     -21.846  -6.475  -2.518  1.00  0.00     0.000 C 
BRANCH   4   5
HETATM    5  C   UNL     1     -20.727  -7.452  -2.211  1.00  0.00     0.000 C 
BRANCH   5   6
HETATM    6  C   UNL     1     -21.032  -8.199  -0.927  1.00  0.00     0.000 C 
BRANCH   6   7
HETATM    7  C   UNL     1     -22.140  -7.491  -0.171  1.00  0.00     0.000 C 
BRANCH   7   8
HETATM    8  C   UNL     1     -23.170  -8.502   0.302  1.00  0.00     0.000 C 
BRANCH   8   9
HETATM    9  C   UNL     1     -23.007  -9.803  -0.464  1.00  0.00    -0.000 C 
BRANCH   9  10
HETATM   10  C   UNL     1     -24.065 -10.804  -0.030  1.00  0.00    -0.005 C 
HETATM   11  C   UNL     1     -23.947 -12.073  -0.850  1.00  0.00     0.005 C 
ENDBRANCH   9  10
ENDBRANCH   8   9
ENDBRANCH   7   8
ENDBRANCH   6   7
ENDBRANCH   5   6
ENDBRANCH   4   5
ENDBRANCH   3   4
ENDBRANCH   2   3
ENDBRANCH   1   2
BRANCH   1  12
HETATM   12  C   UNL     1     -20.370  -4.884  -5.692  1.00  0.00     0.000 C 
BRANCH  12  13
HETATM   13  C   UNL     1     -20.971  -4.058  -6.816  1.00  0.00     0.000 C 
BRANCH  13  14
HETATM   14  C   UNL     1     -21.384  -4.961  -7.965  1.00  0.00     0.000 C 
BRANCH  14  15
HETATM   15  C   UNL     1     -20.889  -4.386  -9.286  1.00  0.00     0.001 C 
BRANCH  15  16
HETATM   16  C   UNL     1     -22.042  -3.757 -10.052  1.00  0.00     0.010 C 
BRANCH  16  17
HETATM   17  C   UNL     1     -23.386  -4.371  -9.675  1.00  0.00     0.110 C 
BRANCH  17  18
HETATM   18  C   UNL     1     -24.513  -3.439 -10.058  1.00  0.00     0.139 C 
HETATM   19  O   UNL     1     -24.886  -3.268 -11.215  1.00  0.00    -0.650 OA
BRANCH  18  20
HETATM   20  O   UNL     1     -25.107  -2.789  -9.050  1.00  0.00    -0.776 OA
HETATM   21  H   UNL     1     -26.068  -2.910  -8.939  1.00  0.00     0.167 HD
ENDBRANCH  18  20
ENDBRANCH  17  18
ENDBRANCH  16  17
ENDBRANCH  15  16
ENDBRANCH  14  15
ENDBRANCH  13  14
ENDBRANCH  12  13
ENDBRANCH   1  12
TORSDOF 17
BEGIN_RES ARG D 557
REMARK  4 active torsions:
REMARK  status: ('A' for Active; 'I' for Inactive)
REMARK    1  A    between atoms: CA   and  CB  
REMARK    2  A    between atoms: CB   and  CG  
REMARK    3  A    between atoms: CG   and  CD  
REMARK    4  A    between atoms: CD   and  NE  
REMARK       I    between atoms: NE   and  CZ  
REMARK       I    between atoms: CZ   and  NH1 
REMARK       I    between atoms: CZ   and  NH2 
ROOT
ATOM      1  CA  ARG D 557     -26.217   2.705 -17.014  1.00 35.49     0.159 C 
ENDROOT
BRANCH   1   2
ATOM      2  CB  ARG D 557     -26.789   1.319 -17.183  1.00 35.49     0.034 C 
BRANCH   2   3
ATOM      3  CG  ARG D 557     -25.862   0.195 -17.004  1.00 35.49     0.027 C 
BRANCH   3   4
ATOM      4  CD  ARG D 557     -26.202  -0.636 -15.827  1.00 35.49     0.116 C 
BRANCH   4   5
ATOM      5  NE  ARG D 557     -25.063  -0.869 -14.979  1.00 35.49    -0.212 N 
ATOM      6  CZ  ARG D 557     -24.806  -1.979 -14.326  1.00 35.49     0.666 C 
ATOM      7  NH1 ARG D 557     -25.605  -3.030 -14.371  1.00 35.49    -0.235 N 
ATOM      8  NH2 ARG D 557     -23.713  -2.021 -13.620  1.00 35.49    -0.235 N 
ATOM      9  HH  ARG D 557     -26.328  -3.025 -14.830  1.00 35.49     0.174 HD
ATOM     10  HH  ARG D 557     -25.384  -3.728 -13.926  1.00 35.49     0.174 HD
ATOM     11  HH  ARG D 557     -23.213  -1.331 -13.615  1.00 35.49     0.174 HD
ATOM     12  HH  ARG D 557     -23.512  -2.722 -13.187  1.00 35.49     0.174 HD
ATOM     13  HE  ARG D 557     -24.533  -0.219 -14.835  1.00 35.49     0.178 HD
ENDBRANCH   4   5
ENDBRANCH   3   4
ENDBRANCH   2   3
ENDBRANCH   1   2
END_RES ARG D 557
BEGIN_RES GLU D 570
REMARK  3 active torsions:
REMARK  status: ('A' for Active; 'I' for Inactive)
REMARK    5  A    between atoms: CA   and  CB  
REMARK    6  A    between atoms: CB   and  CG  
REMARK    7  A    between atoms: CG   and  CD  
ROOT
ATOM     14  CA  GLU D 570     -18.033  -6.348 -13.375  1.00 32.92     0.160 C 
ENDROOT
BRANCH  14  15
ATOM     15  CB  GLU D 570     -19.500  -6.345 -13.794  1.00 32.92     0.043 C 
BRANCH  15  16
ATOM     16  CG  GLU D 570     -20.438  -5.515 -12.995  1.00 32.92     0.100 C 
BRANCH  16  17
ATOM     17  CD  GLU D 570     -21.688  -5.140 -13.757  1.00 32.92     0.185 C 
ATOM     18  OE1 GLU D 570     -22.743  -4.935 -13.126  1.00 32.92    -0.647 OA
ATOM     19  OE2 GLU D 570     -21.616  -5.066 -14.999  1.00 32.92    -0.647 OA
ENDBRANCH  16  17
ENDBRANCH  15  16
ENDBRANCH  14  15
END_RES GLU D 570
ENDMDL
MODEL 2
REMARK VINA RESULT:      -6.9      1.758      2.185
REMARK  17 active torsions:
REMARK  status: ('A' for Active; 'I' for Inactive)
REMARK    1  A    between atoms: C_2  and  C_3 
REMARK    2  A    between atoms: C_3  and  C_4 
REMARK    3  A    between atoms: C_4  and  C_5 
REMARK    4  A    between atoms: C_5  and  C_6 
REMARK    5  A    between atoms: C_6  and  C_7 
REMARK    6  A    between atoms: C_7  and  C_8 
REMARK    7  A    between atoms: C_8  and  C_9 
REMARK    8  A    between atoms: C_9  and  C_10 
REMARK    9  A    between atoms: C_10  and  C_11 
REMARK   10  A    between atoms: C_11  and  C_12 
REMARK   11  A    between atoms: C_12  and  C_13 
REMARK   12  A    between atoms: C_13  and  C_14 
REMARK   13  A    between atoms: C_14  and  C_15 
REMARK   14  A    between atoms: C_15  and  C_16 
REMARK   15  A    between atoms: C_16  and  C_17 
REMARK   16  A    between atoms: C_17  and  C_18 
REMARK   17  A    between atoms: C_18  and  O_20 
ROOT
HETATM    1  C   UNL     1     -20.555  -6.250  -5.968  1.00  0.00     0.000 C 
ENDROOT
BRANCH   1   2
HETATM    2  C   UNL     1     -21.891  -6.339  -5.255  1.00  0.00     0.000 C 
BRANCH   2   3
HETATM    3  C   UNL     1     -21.843  -7.429  -4.201  1.00  0.00     0.000 C 
BRANCH   3   4
HETATM    4  C   UNL     1     -21.196  -6.897  -2.939  1.00  0.00     0.000 C 
BRANCH   4   5
HETATM    5  C   UNL     1     -22.251  -6.289  -2.035  1.00  0.00     0.000 C 
BRANCH   5   6
HETATM    6  C   UNL     1     -22.292  -7.036  -0.715  1.00  0.00     0.000 C 
BRANCH   6   7
HETATM    7  C   UNL     1     -21.214  -8.103  -0.694  1.00  0.00     0.000 C 
BRANCH   7   8
HETATM    8  C   UNL     1     -21.763  -9.379  -0.080  1.00  0.00     0.000 C 
BRANCH   8   9
HETATM    9  C   UNL     1     -22.691 -10.069  -1.064  1.00  0.00    -0.000 C 
BRANCH   9  10
HETATM   10  C   UNL     1     -23.864 -10.696  -0.329  1.00  0.00    -0.005 C 
HETATM   11  C   UNL     1     -23.428 -11.982   0.343  1.00  0.00     0.005 C 
ENDBRANCH   9  10
ENDBRANCH   8   9
ENDBRANCH   7   8
ENDBRANCH   6   7
ENDBRANCH   5   6
ENDBRANCH   4   5
ENDBRANCH   3   4
ENDBRANCH   2   3
ENDBRANCH   1   2
BRANCH   1  12
HETATM   12  C   UNL     1     -20.045  -4.822  -5.932  1.00  0.00     0.000 C 
BRANCH  12  13
HETATM   13  C   UNL     1     -20.621  -4.037  -7.098  1.00  0.00     0.000 C 
BRANCH  13  14
HETATM   14  C   UNL     1     -20.057  -4.558  -8.408  1.00  0.00     0.000 C 
BRANCH  14  15
HETATM   15  C   UNL     1     -20.976  -4.176  -9.562  1.00  0.00     0.001 C 
BRANCH  15  16
HETATM   16  C   UNL     1     -22.378  -3.894  -9.047  1.00  0.00     0.010 C 
BRANCH  16  17
HETATM   17  C   UNL     1     -23.454  -4.489  -9.950  1.00  0.00     0.110 C 
BRANCH  17  18
HETATM   18  C   UNL     1     -24.524  -3.460 -10.238  1.00  0.00     0.139 C 
HETATM   19  O   UNL     1     -24.888  -3.162 -11.372  1.00  0.00    -0.650 OA
BRANCH  18  20
HETATM   20  O   UNL     1     -25.074  -2.871  -9.170  1.00  0.00    -0.776 OA
HETATM   21  H   UNL     1     -25.086  -3.372  -8.334  1.00  0.00     0.167 HD
ENDBRANCH  18  20
ENDBRANCH  17  18
ENDBRANCH  16  17
ENDBRANCH  15  16
ENDBRANCH  14  15
ENDBRANCH  13  14
ENDBRANCH  12  13
ENDBRANCH   1  12
TORSDOF 17
BEGIN_RES ARG D 557
REMARK  4 active torsions:
REMARK  status: ('A' for Active; 'I' for Inactive)
REMARK    1  A    between atoms: CA   and  CB  
REMARK    2  A    between atoms: CB   and  CG  
REMARK    3  A    between atoms: CG   and  CD  
REMARK    4  A    between atoms: CD   and  NE  
REMARK       I    between atoms: NE   and  CZ  
REMARK       I    between atoms: CZ   and  NH1 
REMARK       I    between atoms: CZ   and  NH2 
ROOT
ATOM      1  CA  ARG D 557     -26.217   2.705 -17.014  1.00 35.49     0.159 C 
ENDROOT
BRANCH   1   2
ATOM      2  CB  ARG D 557     -26.789   1.319 -17.183  1.00 35.49     0.034 C 
BRANCH   2   3
ATOM      3  CG  ARG D 557     -28.238   1.224 -17.400  1.00 35.49     0.027 C 
BRANCH   3   4
ATOM      4  CD  ARG D 557     -28.888   0.280 -16.463  1.00 35.49     0.116 C 
BRANCH   4   5
ATOM      5  NE  ARG D 557     -29.270  -0.948 -17.108  1.00 35.49    -0.212 N 
ATOM      6  CZ  ARG D 557     -28.635  -2.095 -17.016  1.00 35.49     0.666 C 
ATOM      7  NH1 ARG D 557     -27.531  -2.239 -16.305  1.00 35.49    -0.235 N 
ATOM      8  NH2 ARG D 557     -29.137  -3.113 -17.653  1.00 35.49    -0.235 N 
ATOM      9  HH  ARG D 557     -27.185  -1.583 -15.876  1.00 35.49     0.174 HD
ATOM     10  HH  ARG D 557     -27.162  -3.011 -16.279  1.00 35.49     0.174 HD
ATOM     11  HH  ARG D 557     -29.854  -2.992 -18.098  1.00 35.49     0.174 HD
ATOM     12  HH  ARG D 557     -28.757  -3.870 -17.614  1.00 35.49     0.174 HD
ATOM     13  HE  ARG D 557     -29.930  -0.929 -17.645  1.00 35.49     0.178 HD
ENDBRANCH   4   5
ENDBRANCH   3   4
ENDBRANCH   2   3
ENDBRANCH   1   2
END_RES ARG D 557
BEGIN_RES GLU D 570
REMARK  3 active torsions:
REMARK  status: ('A' for Active; 'I' for Inactive)
REMARK    5  A    between atoms: CA   and  CB  
REMARK    6  A    between atoms: CB   and  CG  
REMARK    7  A    between atoms: CG   and  CD  
ROOT
ATOM     14  CA  GLU D 570     -18.033  -6.348 -13.375  1.00 32.92     0.160 C 
ENDROOT
BRANCH  14  15
ATOM     15  CB  GLU D 570     -19.500  -6.345 -13.794  1.00 32.92     0.043 C 
BRANCH  15  16
ATOM     16  CG  GLU D 570     -20.451  -5.574 -12.952  1.00 32.92     0.100 C 
BRANCH  16  17
ATOM     17  CD  GLU D 570     -21.730  -5.224 -13.676  1.00 32.92     0.185 C 
ATOM     18  OE1 GLU D 570     -22.144  -5.983 -14.574  1.00 32.92    -0.647 OA
ATOM     19  OE2 GLU D 570     -22.314  -4.171 -13.355  1.00 32.92    -0.647 OA
ENDBRANCH  16  17
ENDBRANCH  15  16
ENDBRANCH  14  15
END_RES GLU D 570
ENDMDL
MODEL 3
REMARK VINA RESULT:      -6.7      2.472      3.813
REMARK  17 active torsions:
REMARK  status: ('A' for Active; 'I' for Inactive)
REMARK    1  A    between atoms: C_2  and  C_3 
REMARK    2  A    between atoms: C_3  and  C_4 
REMARK    3  A    between atoms: C_4  and  C_5 
REMARK    4  A    between atoms: C_5  and  C_6 
REMARK    5  A    between atoms: C_6  and  C_7 
REMARK    6  A    between atoms: C_7  and  C_8 
REMARK    7  A    between atoms: C_8  and  C_9 
REMARK    8  A    between atoms: C_9  and  C_10 
REMARK    9  A    between atoms: C_10  and  C_11 
REMARK   10  A    between atoms: C_11  and  C_12 
REMARK   11  A    between atoms: C_12  and  C_13 
REMARK   12  A    between atoms: C_13  and  C_14 
REMARK   13  A    between atoms: C_14  and  C_15 
REMARK   14  A    between atoms: C_15  and  C_16 
REMARK   15  A    between atoms: C_16  and  C_17 
REMARK   16  A    between atoms: C_17  and  C_18 
REMARK   17  A    between atoms: C_18  and  O_20 
ROOT
HETATM    1  C   UNL     1     -21.141  -4.831  -8.433  1.00  0.00     0.000 C 
ENDROOT
BRANCH   1   2
HETATM    2  C   UNL     1     -20.903  -3.907  -7.254  1.00  0.00     0.000 C 
BRANCH   2   3
HETATM    3  C   UNL     1     -20.390  -4.703  -6.069  1.00  0.00     0.000 C 
BRANCH   3   4
HETATM    4  C   UNL     1     -20.803  -6.154  -6.206  1.00  0.00     0.000 C 
BRANCH   4   5
HETATM    5  C   UNL     1     -20.551  -6.887  -4.901  1.00  0.00     0.000 C 
BRANCH   5   6
HETATM    6  C   UNL     1     -21.786  -6.817  -4.024  1.00  0.00     0.000 C 
BRANCH   6   7
HETATM    7  C   UNL     1     -21.479  -6.030  -2.764  1.00  0.00     0.000 C 
BRANCH   7   8
HETATM    8  C   UNL     1     -22.161  -6.679  -1.572  1.00  0.00     0.000 C 
BRANCH   8   9
HETATM    9  C   UNL     1     -21.699  -8.118  -1.432  1.00  0.00    -0.000 C 
BRANCH   9  10
HETATM   10  C   UNL     1     -21.926  -8.606  -0.010  1.00  0.00    -0.005 C 
HETATM   11  C   UNL     1     -23.212  -8.026   0.540  1.00  0.00     0.005 C 
ENDBRANCH   9  10
ENDBRANCH   8   9
ENDBRANCH   7   8
ENDBRANCH   6   7
ENDBRANCH   5   6
ENDBRANCH   4   5
ENDBRANCH   3   4
ENDBRANCH   2   3
ENDBRANCH   1   2
BRANCH   1  12
HETATM   12  C   UNL     1     -21.800  -4.065  -9.564  1.00  0.00     0.000 C 
BRANCH  12  13
HETATM   13  C   UNL     1     -20.972  -4.200 -10.831  1.00  0.00     0.000 C 
BRANCH  13  14
HETATM   14  C   UNL     1     -21.847  -3.979 -12.053  1.00  0.00     0.000 C 
BRANCH  14  15
HETATM   15  C   UNL     1     -22.615  -2.670 -11.916  1.00  0.00     0.001 C 
BRANCH  15  16
HETATM   16  C   UNL     1     -23.938  -2.756 -12.660  1.00  0.00     0.010 C 
BRANCH  16  17
HETATM   17  C   UNL     1     -23.777  -2.490 -14.153  1.00  0.00     0.110 C 
BRANCH  17  18
HETATM   18  C   UNL     1     -24.943  -1.679 -14.669  1.00  0.00     0.139 C 
HETATM   19  O   UNL     1     -25.999  -2.177 -15.049  1.00  0.00    -0.650 OA
BRANCH  18  20
HETATM   20  O   UNL     1     -24.769  -0.352 -14.695  1.00  0.00    -0.776 OA
HETATM   21  H   UNL     1     -24.930   0.108 -15.540  1.00  0.00     0.167 HD
ENDBRANCH  18  20
ENDBRANCH  17  18
ENDBRANCH  16  17
ENDBRANCH  15  16
ENDBRANCH  14  15
ENDBRANCH  13  14
ENDBRANCH  12  13
ENDBRANCH   1  12
TORSDOF 17
BEGIN_RES ARG D 557
REMARK  4 active torsions:
REMARK  status: ('A' for Active; 'I' for Inactive)
REMARK    1  A    between atoms: CA   and  CB  
REMARK    2  A    between atoms: CB   and  CG  
REMARK    3  A    between atoms: CG   and  CD  
REMARK    4  A    between atoms: CD   and  NE  
REMARK       I    between atoms: NE   and  CZ  
REMARK       I    between atoms: CZ   and  NH1 
REMARK       I    between atoms: CZ   and  NH2 
ROOT
ATOM      1  CA  ARG D 557     -26.217   2.705 -17.014  1.00 35.49     0.159 C 
ENDROOT
BRANCH   1   2
ATOM      2  CB  ARG D 557     -26.789   1.319 -17.183  1.00 35.49     0.034 C 
BRANCH   2   3
ATOM      3  CG  ARG D 557     -28.130   1.086 -16.633  1.00 35.49     0.027 C 
BRANCH   3   4
ATOM      4  CD  ARG D 557     -28.806  -0.070 -17.265  1.00 35.49     0.116 C 
BRANCH   4   5
ATOM      5  NE  ARG D 557     -28.222  -1.324 -16.868  1.00 35.49    -0.212 N 
ATOM      6  CZ  ARG D 557     -28.739  -2.513 -17.080  1.00 35.49     0.666 C 
ATOM      7  NH1 ARG D 557     -29.897  -2.685 -17.689  1.00 35.49    -0.235 N 
ATOM      8  NH2 ARG D 557     -28.060  -3.545 -16.669  1.00 35.49    -0.235 N 
ATOM      9  HH  ARG D 557     -30.360  -2.021 -17.970  1.00 35.49     0.174 HD
ATOM     10  HH  ARG D 557     -30.183  -3.485 -17.802  1.00 35.49     0.174 HD
ATOM     11  HH  ARG D 557     -27.311  -3.404 -16.285  1.00 35.49     0.174 HD
ATOM     12  HH  ARG D 557     -28.359  -4.328 -16.791  1.00 35.49     0.174 HD
ATOM     13  HE  ARG D 557     -27.509  -1.303 -16.404  1.00 35.49     0.178 HD
ENDBRANCH   4   5
ENDBRANCH   3   4
ENDBRANCH   2   3
ENDBRANCH   1   2
END_RES ARG D 557
BEGIN_RES GLU D 570
REMARK  3 active torsions:
REMARK  status: ('A' for Active; 'I' for Inactive)
REMARK    5  A    between atoms: CA   and  CB  
REMARK    6  A    between atoms: CB   and  CG  
REMARK    7  A    between atoms: CG   and  CD  
ROOT
ATOM     14  CA  GLU D 570     -18.033  -6.348 -13.375  1.00 32.92     0.160 C 
ENDROOT
BRANCH  14  15
ATOM     15  CB  GLU D 570     -19.500  -6.345 -13.794  1.00 32.92     0.043 C 
BRANCH  15  16
ATOM     16  CG  GLU D 570     -19.811  -5.964 -15.196  1.00 32.92     0.100 C 
BRANCH  16  17
ATOM     17  CD  GLU D 570     -21.208  -6.355 -15.617  1.00 32.92     0.185 C 
ATOM     18  OE1 GLU D 570     -22.120  -5.509 -15.549  1.00 32.92    -0.647 OA
ATOM     19  OE2 GLU D 570     -21.396  -7.525 -16.004  1.00 32.92    -0.647 OA
ENDBRANCH  16  17
ENDBRANCH  15  16
ENDBRANCH  14  15
END_RES GLU D 570
ENDMDL
MODEL 4
REMARK VINA RESULT:      -6.4      1.285      1.790
REMARK  17 active torsions:
REMARK  status: ('A' for Active; 'I' for Inactive)
REMARK    1  A    between atoms: C_2  and  C_3 
REMARK    2  A    between atoms: C_3  and  C_4 
REMARK    3  A    between atoms: C_4  and  C_5 
REMARK    4  A    between atoms: C_5  and  C_6 
REMARK    5  A    between atoms: C_6  and  C_7 
REMARK    6  A    between atoms: C_7  and  C_8 
REMARK    7  A    between atoms: C_8  and  C_9 
REMARK    8  A    between atoms: C_9  and  C_10 
REMARK    9  A    between atoms: C_10  and  C_11 
REMARK   10  A    between atoms: C_11  and  C_12 
REMARK   11  A    between atoms: C_12  and  C_13 
REMARK   12  A    between atoms: C_13  and  C_14 
REMARK   13  A    between atoms: C_14  and  C_15 
REMARK   14  A    between atoms: C_15  and  C_16 
REMARK   15  A    between atoms: C_16  and  C_17 
REMARK   16  A    between atoms: C_17  and  C_18 
REMARK   17  A    between atoms: C_18  and  O_20 
ROOT
HETATM    1  C   UNL     1     -21.840  -6.177  -5.168  1.00  0.00     0.000 C 
ENDROOT
BRANCH   1   2
HETATM    2  C   UNL     1     -21.501  -7.500  -4.508  1.00  0.00     0.000 C 
BRANCH   2   3
HETATM    3  C   UNL     1     -21.057  -7.264  -3.077  1.00  0.00     0.000 C 
BRANCH   3   4
HETATM    4  C   UNL     1     -22.017  -6.314  -2.390  1.00  0.00     0.000 C 
BRANCH   4   5
HETATM    5  C   UNL     1     -22.314  -6.806  -0.986  1.00  0.00     0.000 C 
BRANCH   5   6
HETATM    6  C   UNL     1     -21.289  -7.846  -0.577  1.00  0.00     0.000 C 
BRANCH   6   7
HETATM    7  C   UNL     1     -21.844  -8.704   0.544  1.00  0.00     0.000 C 
BRANCH   7   8
HETATM    8  C   UNL     1     -23.266  -9.126   0.216  1.00  0.00     0.000 C 
BRANCH   8   9
HETATM    9  C   UNL     1     -23.248 -10.360  -0.667  1.00  0.00    -0.000 C 
BRANCH   9  10
HETATM   10  C   UNL     1     -24.007 -11.495   0.001  1.00  0.00    -0.005 C 
HETATM   11  C   UNL     1     -23.034 -12.476   0.622  1.00  0.00     0.005 C 
ENDBRANCH   9  10
ENDBRANCH   8   9
ENDBRANCH   7   8
ENDBRANCH   6   7
ENDBRANCH   5   6
ENDBRANCH   4   5
ENDBRANCH   3   4
ENDBRANCH   2   3
ENDBRANCH   1   2
BRANCH   1  12
HETATM   12  C   UNL     1     -20.568  -5.474  -5.602  1.00  0.00     0.000 C 
BRANCH  12  13
HETATM   13  C   UNL     1     -20.259  -5.809  -7.050  1.00  0.00     0.000 C 
BRANCH  13  14
HETATM   14  C   UNL     1     -20.243  -4.542  -7.888  1.00  0.00     0.000 C 
BRANCH  14  15
HETATM   15  C   UNL     1     -21.552  -3.783  -7.713  1.00  0.00     0.001 C 
BRANCH  15  16
HETATM   16  C   UNL     1     -22.371  -3.844  -8.992  1.00  0.00     0.010 C 
BRANCH  16  17
HETATM   17  C   UNL     1     -21.494  -3.814 -10.240  1.00  0.00     0.110 C 
BRANCH  17  18
HETATM   18  C   UNL     1     -22.274  -3.276 -11.416  1.00  0.00     0.139 C 
HETATM   19  O   UNL     1     -23.438  -2.891 -11.338  1.00  0.00    -0.650 OA
BRANCH  18  20
HETATM   20  O   UNL     1     -21.623  -3.235 -12.585  1.00  0.00    -0.776 OA
HETATM   21  H   UNL     1     -21.028  -3.978 -12.796  1.00  0.00     0.167 HD
ENDBRANCH  18  20
ENDBRANCH  17  18
ENDBRANCH  16  17
ENDBRANCH  15  16
ENDBRANCH  14  15
ENDBRANCH  13  14
ENDBRANCH  12  13
ENDBRANCH   1  12
TORSDOF 17
BEGIN_RES ARG D 557
REMARK  4 active torsions:
REMARK  status: ('A' for Active; 'I' for Inactive)
REMARK    1  A    between atoms: CA   and  CB  
REMARK    2  A    between atoms: CB   and  CG  
REMARK    3  A    between atoms: CG   and  CD  
REMARK    4  A    between atoms: CD   and  NE  
REMARK       I    between atoms: NE   and  CZ  
REMARK       I    between atoms: CZ   and  NH1 
REMARK       I    between atoms: CZ   and  NH2 
ROOT
ATOM      1  CA  ARG D 557     -26.217   2.705 -17.014  1.00 35.49     0.159 C 
ENDROOT
BRANCH   1   2
ATOM      2  CB  ARG D 557     -26.789   1.319 -17.183  1.00 35.49     0.034 C 
BRANCH   2   3
ATOM      3  CG  ARG D 557     -25.941   0.198 -16.758  1.00 35.49     0.027 C 
BRANCH   3   4
ATOM      4  CD  ARG D 557     -26.709  -0.856 -16.057  1.00 35.49     0.116 C 
BRANCH   4   5
ATOM      5  NE  ARG D 557     -25.958  -1.451 -14.984  1.00 35.49    -0.212 N 
ATOM      6  CZ  ARG D 557     -25.954  -2.726 -14.663  1.00 35.49     0.666 C 
ATOM      7  NH1 ARG D 557     -26.677  -3.622 -15.310  1.00 35.49    -0.235 N 
ATOM      8  NH2 ARG D 557     -25.195  -3.093 -13.672  1.00 35.49    -0.235 N 
ATOM      9  HH  ARG D 557     -27.182  -3.402 -15.966  1.00 35.49     0.174 HD
ATOM     10  HH  ARG D 557     -26.632  -4.439 -15.058  1.00 35.49     0.174 HD
ATOM     11  HH  ARG D 557     -24.733  -2.494 -13.278  1.00 35.49     0.174 HD
ATOM     12  HH  ARG D 557     -25.163  -3.908 -13.439  1.00 35.49     0.174 HD
ATOM     13  HE  ARG D 557     -25.520  -0.935 -14.469  1.00 35.49     0.178 HD
ENDBRANCH   4   5
ENDBRANCH   3   4
ENDBRANCH   2   3
ENDBRANCH   1   2
END_RES ARG D 557
BEGIN_RES GLU D 570
REMARK  3 active torsions:
REMARK  status: ('A' for Active; 'I' for Inactive)
REMARK    5  A    between atoms: CA   and  CB  
REMARK    6  A    between atoms: CB   and  CG  
REMARK    7  A    between atoms: CG   and  CD  
ROOT
ATOM     14  CA  GLU D 570     -18.033  -6.348 -13.375  1.00 32.92     0.160 C 
ENDROOT
BRANCH  14  15
ATOM     15  CB  GLU D 570     -19.500  -6.345 -13.794  1.00 32.92     0.043 C 
BRANCH  15  16
ATOM     16  CG  GLU D 570     -19.811  -5.958 -15.194  1.00 32.92     0.100 C 
BRANCH  16  17
ATOM     17  CD  GLU D 570     -21.230  -5.467 -15.369  1.00 32.92     0.185 C 
ATOM     18  OE1 GLU D 570     -21.597  -5.063 -16.488  1.00 32.92    -0.647 OA
ATOM     19  OE2 GLU D 570     -21.977  -5.473 -14.371  1.00 32.92    -0.647 OA
ENDBRANCH  16  17
ENDBRANCH  15  16
ENDBRANCH  14  15
END_RES GLU D 570
ENDMDL
MODEL 5
REMARK VINA RESULT:      -6.2      1.602      2.185
REMARK  17 active torsions:
REMARK  status: ('A' for Active; 'I' for Inactive)
REMARK    1  A    between atoms: C_2  and  C_3 
REMARK    2  A    between atoms: C_3  and  C_4 
REMARK    3  A    between atoms: C_4  and  C_5 
REMARK    4  A    between atoms: C_5  and  C_6 
REMARK    5  A    between atoms: C_6  and  C_7 
REMARK    6  A    between atoms: C_7  and  C_8 
REMARK    7  A    between atoms: C_8  and  C_9 
REMARK    8  A    between atoms: C_9  and  C_10 
REMARK    9  A    between atoms: C_10  and  C_11 
REMARK   10  A    between atoms: C_11  and  C_12 
REMARK   11  A    between atoms: C_12  and  C_13 
REMARK   12  A    between atoms: C_13  and  C_14 
REMARK   13  A    between atoms: C_14  and  C_15 
REMARK   14  A    between atoms: C_15  and  C_16 
REMARK   15  A    between atoms: C_16  and  C_17 
REMARK   16  A    between atoms: C_17  and  C_18 
REMARK   17  A    between atoms: C_18  and  O_20 
ROOT
HETATM    1  C   UNL     1     -19.777  -5.082  -6.711  1.00  0.00     0.000 C 
ENDROOT
BRANCH   1   2
HETATM    2  C   UNL     1     -20.458  -4.935  -5.363  1.00  0.00     0.000 C 
BRANCH   2   3
HETATM    3  C   UNL     1     -21.408  -6.096  -5.135  1.00  0.00     0.000 C 
BRANCH   3   4
HETATM    4  C   UNL     1     -20.713  -7.181  -4.338  1.00  0.00     0.000 C 
BRANCH   4   5
HETATM    5  C   UNL     1     -21.608  -7.638  -3.201  1.00  0.00     0.000 C 
BRANCH   5   6
HETATM    6  C   UNL     1     -22.286  -6.439  -2.566  1.00  0.00     0.000 C 
BRANCH   6   7
HETATM    7  C   UNL     1     -22.252  -6.568  -1.054  1.00  0.00     0.000 C 
BRANCH   7   8
HETATM    8  C   UNL     1     -21.583  -7.874  -0.663  1.00  0.00     0.000 C 
BRANCH   8   9
HETATM    9  C   UNL     1     -22.518  -8.693   0.208  1.00  0.00    -0.000 C 
BRANCH   9  10
HETATM   10  C   UNL     1     -22.561 -10.133  -0.276  1.00  0.00    -0.005 C 
HETATM   11  C   UNL     1     -23.974 -10.671  -0.183  1.00  0.00     0.005 C 
ENDBRANCH   9  10
ENDBRANCH   8   9
ENDBRANCH   7   8
ENDBRANCH   6   7
ENDBRANCH   5   6
ENDBRANCH   4   5
ENDBRANCH   3   4
ENDBRANCH   2   3
ENDBRANCH   1   2
BRANCH   1  12
HETATM   12  C   UNL     1     -20.749  -4.731  -7.821  1.00  0.00     0.000 C 
BRANCH  12  13
HETATM   13  C   UNL     1     -20.017  -4.015  -8.943  1.00  0.00     0.000 C 
BRANCH  13  14
HETATM   14  C   UNL     1     -20.497  -4.526 -10.290  1.00  0.00     0.000 C 
BRANCH  14  15
HETATM   15  C   UNL     1     -20.543  -3.383 -11.296  1.00  0.00     0.001 C 
BRANCH  15  16
HETATM   16  C   UNL     1     -21.985  -3.030 -11.626  1.00  0.00     0.010 C 
BRANCH  16  17
HETATM   17  C   UNL     1     -22.885  -4.261 -11.662  1.00  0.00     0.110 C 
BRANCH  17  18
HETATM   18  C   UNL     1     -24.098  -4.048 -10.786  1.00  0.00     0.139 C 
HETATM   19  O   UNL     1     -24.292  -4.659  -9.739  1.00  0.00    -0.650 OA
BRANCH  18  20
HETATM   20  O   UNL     1     -24.979  -3.136 -11.214  1.00  0.00    -0.776 OA
HETATM   21  H   UNL     1     -25.039  -2.982 -12.175  1.00  0.00     0.167 HD
ENDBRANCH  18  20
ENDBRANCH  17  18
ENDBRANCH  16  17
ENDBRANCH  15  16
ENDBRANCH  14  15
ENDBRANCH  13  14
ENDBRANCH  12  13
ENDBRANCH   1  12
TORSDOF 17
BEGIN_RES ARG D 557
REMARK  4 active torsions:
REMARK  status: ('A' for Active; 'I' for Inactive)
REMARK    1  A    between atoms: CA   and  CB  
REMARK    2  A    between atoms: CB   and  CG  
REMARK    3  A    between atoms: CG   and  CD  
REMARK    4  A    between atoms: CD   and  NE  
REMARK       I    between atoms: NE   and  CZ  
REMARK       I    between atoms: CZ   and  NH1 
REMARK       I    between atoms: CZ   and  NH2 
ROOT
ATOM      1  CA  ARG D 557     -26.217   2.705 -17.014  1.00 35.49     0.159 C 
ENDROOT
BRANCH   1   2
ATOM      2  CB  ARG D 557     -26.789   1.319 -17.183  1.00 35.49     0.034 C 
BRANCH   2   3
ATOM      3  CG  ARG D 557     -28.221   1.157 -16.905  1.00 35.49     0.027 C 
BRANCH   3   4
ATOM      4  CD  ARG D 557     -28.595  -0.257 -16.675  1.00 35.49     0.116 C 
BRANCH   4   5
ATOM      5  NE  ARG D 557     -27.564  -0.985 -15.984  1.00 35.49    -0.212 N 
ATOM      6  CZ  ARG D 557     -27.368  -2.284 -16.043  1.00 35.49     0.666 C 
ATOM      7  NH1 ARG D 557     -28.135  -3.084 -16.760  1.00 35.49    -0.235 N 
ATOM      8  NH2 ARG D 557     -26.370  -2.772 -15.366  1.00 35.49    -0.235 N 
ATOM      9  HH  ARG D 557     -28.796  -2.784 -17.215  1.00 35.49     0.174 HD
ATOM     10  HH  ARG D 557     -27.958  -3.922 -16.763  1.00 35.49     0.174 HD
ATOM     11  HH  ARG D 557     -25.887  -2.230 -14.918  1.00 35.49     0.174 HD
ATOM     12  HH  ARG D 557     -26.210  -3.605 -15.383  1.00 35.49     0.174 HD
ATOM     13  HE  ARG D 557     -27.069  -0.557 -15.441  1.00 35.49     0.178 HD
ENDBRANCH   4   5
ENDBRANCH   3   4
ENDBRANCH   2   3
ENDBRANCH   1   2
END_RES ARG D 557
BEGIN_RES GLU D 570
REMARK  3 active torsions:
REMARK  status: ('A' for Active; 'I' for Inactive)
REMARK    5  A    between atoms: CA   and  CB  
REMARK    6  A    between atoms: CB   and  CG  
REMARK    7  A    between atoms: CG   and  CD  
ROOT
ATOM     14  CA  GLU D 570     -18.033  -6.348 -13.375  1.00 32.92     0.160 C 
ENDROOT
BRANCH  14  15
ATOM     15  CB  GLU D 570     -19.500  -6.345 -13.794  1.00 32.92     0.043 C 
BRANCH  15  16
ATOM     16  CG  GLU D 570     -19.813  -5.937 -15.188  1.00 32.92     0.100 C 
BRANCH  16  17
ATOM     17  CD  GLU D 570     -21.278  -5.634 -15.399  1.00 32.92     0.185 C 
ATOM     18  OE1 GLU D 570     -22.123  -6.201 -14.679  1.00 32.92    -0.647 OA
ATOM     19  OE2 GLU D 570     -21.585  -4.833 -16.304  1.00 32.92    -0.647 OA
ENDBRANCH  16  17
ENDBRANCH  15  16
ENDBRANCH  14  15
END_RES GLU D 570
ENDMDL
MODEL 6
REMARK VINA RESULT:      -6.2      1.497      2.544
REMARK  17 active torsions:
REMARK  status: ('A' for Active; 'I' for Inactive)
REMARK    1  A    between atoms: C_2  and  C_3 
REMARK    2  A    between atoms: C_3  and  C_4 
REMARK    3  A    between atoms: C_4  and  C_5 
REMARK    4  A    between atoms: C_5  and  C_6 
REMARK    5  A    between atoms: C_6  and  C_7 
REMARK    6  A    between atoms: C_7  and  C_8 
REMARK    7  A    between atoms: C_8  and  C_9 
REMARK    8  A    between atoms: C_9  and  C_10 
REMARK    9  A    between atoms: C_10  and  C_11 
REMARK   10  A    between atoms: C_11  and  C_12 
REMARK   11  A    between atoms: C_12  and  C_13 
REMARK   12  A    between atoms: C_13  and  C_14 
REMARK   13  A    between atoms: C_14  and  C_15 
REMARK   14  A    between atoms: C_15  and  C_16 
REMARK   15  A    between atoms: C_16  and  C_17 
REMARK   16  A    between atoms: C_17  and  C_18 
REMARK   17  A    between atoms: C_18  and  O_20 
ROOT
HETATM    1  C   UNL     1     -21.535  -6.629  -3.235  1.00  0.00     0.000 C 
ENDROOT
BRANCH   1   2
HETATM    2  C   UNL     1     -21.504  -7.498  -1.992  1.00  0.00     0.000 C 
BRANCH   2   3
HETATM    3  C   UNL     1     -22.370  -6.882  -0.910  1.00  0.00     0.000 C 
BRANCH   3   4
HETATM    4  C   UNL     1     -22.731  -7.933   0.121  1.00  0.00     0.000 C 
BRANCH   4   5
HETATM    5  C   UNL     1     -21.593  -8.926   0.265  1.00  0.00     0.000 C 
BRANCH   5   6
HETATM    6  C   UNL     1     -22.132 -10.342   0.186  1.00  0.00     0.000 C 
BRANCH   6   7
HETATM    7  C   UNL     1     -23.614 -10.312  -0.136  1.00  0.00     0.000 C 
BRANCH   7   8
HETATM    8  C   UNL     1     -23.923 -11.310  -1.238  1.00  0.00     0.000 C 
BRANCH   8   9
HETATM    9  C   UNL     1     -22.681 -11.561  -2.073  1.00  0.00    -0.000 C 
BRANCH   9  10
HETATM   10  C   UNL     1     -22.812 -10.882  -3.427  1.00  0.00    -0.005 C 
HETATM   11  C   UNL     1     -21.633 -11.245  -4.307  1.00  0.00     0.005 C 
ENDBRANCH   9  10
ENDBRANCH   8   9
ENDBRANCH   7   8
ENDBRANCH   6   7
ENDBRANCH   5   6
ENDBRANCH   4   5
ENDBRANCH   3   4
ENDBRANCH   2   3
ENDBRANCH   1   2
BRANCH   1  12
HETATM   12  C   UNL     1     -21.524  -7.502  -4.476  1.00  0.00     0.000 C 
BRANCH  12  13
HETATM   13  C   UNL     1     -20.844  -6.768  -5.619  1.00  0.00     0.000 C 
BRANCH  13  14
HETATM   14  C   UNL     1     -21.700  -5.598  -6.072  1.00  0.00     0.000 C 
BRANCH  14  15
HETATM   15  C   UNL     1     -20.816  -4.480  -6.609  1.00  0.00     0.001 C 
BRANCH  15  16
HETATM   16  C   UNL     1     -21.644  -3.496  -7.419  1.00  0.00     0.010 C 
BRANCH  16  17
HETATM   17  C   UNL     1     -22.388  -4.176  -8.564  1.00  0.00     0.110 C 
BRANCH  17  18
HETATM   18  C   UNL     1     -21.793  -3.767  -9.892  1.00  0.00     0.139 C 
HETATM   19  O   UNL     1     -20.595  -3.848 -10.150  1.00  0.00    -0.650 OA
BRANCH  18  20
HETATM   20  O   UNL     1     -22.654  -3.298 -10.803  1.00  0.00    -0.776 OA
HETATM   21  H   UNL     1     -22.915  -3.897 -11.526  1.00  0.00     0.167 HD
ENDBRANCH  18  20
ENDBRANCH  17  18
ENDBRANCH  16  17
ENDBRANCH  15  16
ENDBRANCH  14  15
ENDBRANCH  13  14
ENDBRANCH  12  13
ENDBRANCH   1  12
TORSDOF 17
BEGIN_RES ARG D 557
REMARK  4 active torsions:
REMARK  status: ('A' for Active; 'I' for Inactive)
REMARK    1  A    between atoms: CA   and  CB  
REMARK    2  A    between atoms: CB   and  CG  
REMARK    3  A    between atoms: CG   and  CD  
REMARK    4  A    between atoms: CD   and  NE  
REMARK       I    between atoms: NE   and  CZ  
REMARK       I    between atoms: CZ   and  NH1 
REMARK       I    between atoms: CZ   and  NH2 
ROOT
ATOM      1  CA  ARG D 557     -26.217   2.705 -17.014  1.00 35.49     0.159 C 
ENDROOT
BRANCH   1   2
ATOM      2  CB  ARG D 557     -26.789   1.319 -17.183  1.00 35.49     0.034 C 
BRANCH   2   3
ATOM      3  CG  ARG D 557     -25.862   0.195 -17.004  1.00 35.49     0.027 C 
BRANCH   3   4
ATOM      4  CD  ARG D 557     -26.258  -0.691 -15.886  1.00 35.49     0.116 C 
BRANCH   4   5
ATOM      5  NE  ARG D 557     -25.219  -0.814 -14.897  1.00 35.49    -0.212 N 
ATOM      6  CZ  ARG D 557     -24.810  -1.936 -14.349  1.00 35.49     0.666 C 
ATOM      7  NH1 ARG D 557     -25.340  -3.107 -14.650  1.00 35.49    -0.235 N 
ATOM      8  NH2 ARG D 557     -23.840  -1.863 -13.484  1.00 35.49    -0.235 N 
ATOM      9  HH  ARG D 557     -25.978  -3.179 -15.218  1.00 35.49     0.174 HD
ATOM     10  HH  ARG D 557     -25.030  -3.806 -14.262  1.00 35.49     0.174 HD
ATOM     11  HH  ARG D 557     -23.512  -1.094 -13.315  1.00 35.49     0.174 HD
ATOM     12  HH  ARG D 557     -23.547  -2.566 -13.112  1.00 35.49     0.174 HD
ATOM     13  HE  ARG D 557     -24.872  -0.100 -14.591  1.00 35.49     0.178 HD
ENDBRANCH   4   5
ENDBRANCH   3   4
ENDBRANCH   2   3
ENDBRANCH   1   2
END_RES ARG D 557
BEGIN_RES GLU D 570
REMARK  3 active torsions:
REMARK  status: ('A' for Active; 'I' for Inactive)
REMARK    5  A    between atoms: CA   and  CB  
REMARK    6  A    between atoms: CB   and  CG  
REMARK    7  A    between atoms: CG   and  CD  
ROOT
ATOM     14  CA  GLU D 570     -18.033  -6.348 -13.375  1.00 32.92     0.160 C 
ENDROOT
BRANCH  14  15
ATOM     15  CB  GLU D 570     -19.500  -6.345 -13.794  1.00 32.92     0.043 C 
BRANCH  15  16
ATOM     16  CG  GLU D 570     -20.438  -5.514 -12.996  1.00 32.92     0.100 C 
BRANCH  16  17
ATOM     17  CD  GLU D 570     -21.773  -5.314 -13.676  1.00 32.92     0.185 C 
ATOM     18  OE1 GLU D 570     -22.181  -6.179 -14.474  1.00 32.92    -0.647 OA
ATOM     19  OE2 GLU D 570     -22.409  -4.272 -13.420  1.00 32.92    -0.647 OA
ENDBRANCH  16  17
ENDBRANCH  15  16
ENDBRANCH  14  15
END_RES GLU D 570
ENDMDL
MODEL 7
REMARK VINA RESULT:      -6.1      1.446      2.581
REMARK  17 active torsions:
REMARK  status: ('A' for Active; 'I' for Inactive)
REMARK    1  A    between atoms: C_2  and  C_3 
REMARK    2  A    between atoms: C_3  and  C_4 
REMARK    3  A    between atoms: C_4  and  C_5 
REMARK    4  A    between atoms: C_5  and  C_6 
REMARK    5  A    between atoms: C_6  and  C_7 
REMARK    6  A    between atoms: C_7  and  C_8 
REMARK    7  A    between atoms: C_8  and  C_9 
REMARK    8  A    between atoms: C_9  and  C_10 
REMARK    9  A    between atoms: C_10  and  C_11 
REMARK   10  A    between atoms: C_11  and  C_12 
REMARK   11  A    between atoms: C_12  and  C_13 
REMARK   12  A    between atoms: C_13  and  C_14 
REMARK   13  A    between atoms: C_14  and  C_15 
REMARK   14  A    between atoms: C_15  and  C_16 
REMARK   15  A    between atoms: C_16  and  C_17 
REMARK   16  A    between atoms: C_17  and  C_18 
REMARK   17  A    between atoms: C_18  and  O_20 
ROOT
HETATM    1  C   UNL     1     -21.655  -6.151  -2.699  1.00  0.00     0.000 C 
ENDROOT
BRANCH   1   2
HETATM    2  C   UNL     1     -21.517  -7.315  -1.736  1.00  0.00     0.000 C 
BRANCH   2   3
HETATM    3  C   UNL     1     -22.468  -7.135  -0.568  1.00  0.00     0.000 C 
BRANCH   3   4
HETATM    4  C   UNL     1     -22.306  -8.281   0.410  1.00  0.00     0.000 C 
BRANCH   4   5
HETATM    5  C   UNL     1     -23.455  -9.260   0.252  1.00  0.00     0.000 C 
BRANCH   5   6
HETATM    6  C   UNL     1     -22.955 -10.541  -0.387  1.00  0.00     0.000 C 
BRANCH   6   7
HETATM    7  C   UNL     1     -21.822 -11.121   0.438  1.00  0.00     0.000 C 
BRANCH   7   8
HETATM    8  C   UNL     1     -21.995 -12.624   0.569  1.00  0.00     0.000 C 
BRANCH   8   9
HETATM    9  C   UNL     1     -23.371 -12.940   1.126  1.00  0.00    -0.000 C 
BRANCH   9  10
HETATM   10  C   UNL     1     -23.385 -14.332   1.734  1.00  0.00    -0.005 C 
HETATM   11  C   UNL     1     -22.346 -14.431   2.832  1.00  0.00     0.005 C 
ENDBRANCH   9  10
ENDBRANCH   8   9
ENDBRANCH   7   8
ENDBRANCH   6   7
ENDBRANCH   5   6
ENDBRANCH   4   5
ENDBRANCH   3   4
ENDBRANCH   2   3
ENDBRANCH   1   2
BRANCH   1  12
HETATM   12  C   UNL     1     -21.832  -6.670  -4.114  1.00  0.00     0.000 C 
BRANCH  12  13
HETATM   13  C   UNL     1     -20.880  -5.949  -5.052  1.00  0.00     0.000 C 
BRANCH  13  14
HETATM   14  C   UNL     1     -21.511  -5.802  -6.426  1.00  0.00     0.000 C 
BRANCH  14  15
HETATM   15  C   UNL     1     -20.710  -4.816  -7.266  1.00  0.00     0.001 C 
BRANCH  15  16
HETATM   16  C   UNL     1     -21.607  -3.693  -7.760  1.00  0.00     0.010 C 
BRANCH  16  17
HETATM   17  C   UNL     1     -21.972  -3.853  -9.233  1.00  0.00     0.110 C 
BRANCH  17  18
HETATM   18  C   UNL     1     -23.452  -3.622  -9.434  1.00  0.00     0.139 C 
HETATM   19  O   UNL     1     -23.944  -3.278 -10.505  1.00  0.00    -0.650 OA
BRANCH  18  20
HETATM   20  O   UNL     1     -24.228  -3.817  -8.361  1.00  0.00    -0.776 OA
HETATM   21  H   UNL     1     -23.826  -4.252  -7.586  1.00  0.00     0.167 HD
ENDBRANCH  18  20
ENDBRANCH  17  18
ENDBRANCH  16  17
ENDBRANCH  15  16
ENDBRANCH  14  15
ENDBRANCH  13  14
ENDBRANCH  12  13
ENDBRANCH   1  12
TORSDOF 17
BEGIN_RES ARG D 557
REMARK  4 active torsions:
REMARK  status: ('A' for Active; 'I' for Inactive)
REMARK    1  A    between atoms: CA   and  CB  
REMARK    2  A    between atoms: CB   and  CG  
REMARK    3  A    between atoms: CG   and  CD  
REMARK    4  A    between atoms: CD   and  NE  
REMARK       I    between atoms: NE   and  CZ  
REMARK       I    between atoms: CZ   and  NH1 
REMARK       I    between atoms: CZ   and  NH2 
ROOT
ATOM      1  CA  ARG D 557     -26.217   2.705 -17.014  1.00 35.49     0.159 C 
ENDROOT
BRANCH   1   2
ATOM      2  CB  ARG D 557     -26.789   1.319 -17.183  1.00 35.49     0.034 C 
BRANCH   2   3
ATOM      3  CG  ARG D 557     -25.868   0.195 -16.977  1.00 35.49     0.027 C 
BRANCH   3   4
ATOM      4  CD  ARG D 557     -26.316  -0.711 -15.894  1.00 35.49     0.116 C 
BRANCH   4   5
ATOM      5  NE  ARG D 557     -25.278  -0.956 -14.928  1.00 35.49    -0.212 N 
ATOM      6  CZ  ARG D 557     -25.045  -2.101 -14.325  1.00 35.49     0.666 C 
ATOM      7  NH1 ARG D 557     -25.775  -3.178 -14.543  1.00 35.49    -0.235 N 
ATOM      8  NH2 ARG D 557     -24.046  -2.148 -13.493  1.00 35.49    -0.235 N 
ATOM      9  HH  ARG D 557     -26.436  -3.171 -15.088  1.00 35.49     0.174 HD
ATOM     10  HH  ARG D 557     -25.574  -3.898 -14.123  1.00 35.49     0.174 HD
ATOM     11  HH  ARG D 557     -23.586  -1.438 -13.378  1.00 35.49     0.174 HD
ATOM     12  HH  ARG D 557     -23.862  -2.870 -13.088  1.00 35.49     0.174 HD
ATOM     13  HE  ARG D 557     -24.805  -0.297 -14.674  1.00 35.49     0.178 HD
ENDBRANCH   4   5
ENDBRANCH   3   4
ENDBRANCH   2   3
ENDBRANCH   1   2
END_RES ARG D 557
BEGIN_RES GLU D 570
REMARK  3 active torsions:
REMARK  status: ('A' for Active; 'I' for Inactive)
REMARK    5  A    between atoms: CA   and  CB  
REMARK    6  A    between atoms: CB   and  CG  
REMARK    7  A    between atoms: CG   and  CD  
ROOT
ATOM     14  CA  GLU D 570     -18.033  -6.348 -13.375  1.00 32.92     0.160 C 
ENDROOT
BRANCH  14  15
ATOM     15  CB  GLU D 570     -19.500  -6.345 -13.794  1.00 32.92     0.043 C 
BRANCH  15  16
ATOM     16  CG  GLU D 570     -20.442  -5.533 -12.981  1.00 32.92     0.100 C 
BRANCH  16  17
ATOM     17  CD  GLU D 570     -21.686  -5.136 -13.743  1.00 32.92     0.185 C 
ATOM     18  OE1 GLU D 570     -21.617  -4.983 -14.977  1.00 32.92    -0.647 OA
ATOM     19  OE2 GLU D 570     -22.737  -4.961 -13.095  1.00 32.92    -0.647 OA
ENDBRANCH  16  17
ENDBRANCH  15  16
ENDBRANCH  14  15
END_RES GLU D 570
ENDMDL
MODEL 8
REMARK VINA RESULT:      -6.1      1.415      2.413
REMARK  17 active torsions:
REMARK  status: ('A' for Active; 'I' for Inactive)
REMARK    1  A    between atoms: C_2  and  C_3 
REMARK    2  A    between atoms: C_3  and  C_4 
REMARK    3  A    between atoms: C_4  and  C_5 
REMARK    4  A    between atoms: C_5  and  C_6 
REMARK    5  A    between atoms: C_6  and  C_7 
REMARK    6  A    between atoms: C_7  and  C_8 
REMARK    7  A    between atoms: C_8  and  C_9 
REMARK    8  A    between atoms: C_9  and  C_10 
REMARK    9  A    between atoms: C_10  and  C_11 
REMARK   10  A    between atoms: C_11  and  C_12 
REMARK   11  A    between atoms: C_12  and  C_13 
REMARK   12  A    between atoms: C_13  and  C_14 
REMARK   13  A    between atoms: C_14  and  C_15 
REMARK   14  A    between atoms: C_15  and  C_16 
REMARK   15  A    between atoms: C_16  and  C_17 
REMARK   16  A    between atoms: C_17  and  C_18 
REMARK   17  A    between atoms: C_18  and  O_20 
ROOT
HETATM    1  C   UNL     1     -21.419  -7.497  -4.404  1.00  0.00     0.000 C 
ENDROOT
BRANCH   1   2
HETATM    2  C   UNL     1     -21.135  -8.626  -5.376  1.00  0.00     0.000 C 
BRANCH   2   3
HETATM    3  C   UNL     1     -21.066  -9.945  -4.629  1.00  0.00     0.000 C 
BRANCH   3   4
HETATM    4  C   UNL     1     -21.852  -9.847  -3.337  1.00  0.00     0.000 C 
BRANCH   4   5
HETATM    5  C   UNL     1     -22.821 -11.010  -3.233  1.00  0.00     0.000 C 
BRANCH   5   6
HETATM    6  C   UNL     1     -23.245 -11.200  -1.790  1.00  0.00     0.000 C 
BRANCH   6   7
HETATM    7  C   UNL     1     -22.447 -10.273  -0.892  1.00  0.00     0.000 C 
BRANCH   7   8
HETATM    8  C   UNL     1     -23.388  -9.473  -0.009  1.00  0.00     0.000 C 
BRANCH   8   9
HETATM    9  C   UNL     1     -22.654  -8.286   0.588  1.00  0.00    -0.000 C 
BRANCH   9  10
HETATM   10  C   UNL     1     -21.677  -7.710  -0.424  1.00  0.00    -0.005 C 
HETATM   11  C   UNL     1     -22.323  -6.566  -1.178  1.00  0.00     0.005 C 
ENDBRANCH   9  10
ENDBRANCH   8   9
ENDBRANCH   7   8
ENDBRANCH   6   7
ENDBRANCH   5   6
ENDBRANCH   4   5
ENDBRANCH   3   4
ENDBRANCH   2   3
ENDBRANCH   1   2
BRANCH   1  12
HETATM   12  C   UNL     1     -21.988  -6.305  -5.150  1.00  0.00     0.000 C 
BRANCH  12  13
HETATM   13  C   UNL     1     -20.864  -5.375  -5.573  1.00  0.00     0.000 C 
BRANCH  13  14
HETATM   14  C   UNL     1     -20.898  -5.166  -7.077  1.00  0.00     0.000 C 
BRANCH  14  15
HETATM   15  C   UNL     1     -21.636  -3.876  -7.409  1.00  0.00     0.001 C 
BRANCH  15  16
HETATM   16  C   UNL     1     -22.974  -4.186  -8.060  1.00  0.00     0.010 C 
BRANCH  16  17
HETATM   17  C   UNL     1     -23.040  -3.696  -9.504  1.00  0.00     0.110 C 
BRANCH  17  18
HETATM   18  C   UNL     1     -24.449  -3.822 -10.036  1.00  0.00     0.139 C 
HETATM   19  O   UNL     1     -24.897  -3.118 -10.936  1.00  0.00    -0.650 OA
BRANCH  18  20
HETATM   20  O   UNL     1     -25.210  -4.764  -9.466  1.00  0.00    -0.776 OA
HETATM   21  H   UNL     1     -24.876  -5.680  -9.474  1.00  0.00     0.167 HD
ENDBRANCH  18  20
ENDBRANCH  17  18
ENDBRANCH  16  17
ENDBRANCH  15  16
ENDBRANCH  14  15
ENDBRANCH  13  14
ENDBRANCH  12  13
ENDBRANCH   1  12
TORSDOF 17
BEGIN_RES ARG D 557
REMARK  4 active torsions:
REMARK  status: ('A' for Active; 'I' for Inactive)
REMARK    1  A    between atoms: CA   and  CB  
REMARK    2  A    between atoms: CB   and  CG  
REMARK    3  A    between atoms: CG   and  CD  
REMARK    4  A    between atoms: CD   and  NE  
REMARK       I    between atoms: NE   and  CZ  
REMARK       I    between atoms: CZ   and  NH1 
REMARK       I    between atoms: CZ   and  NH2 
ROOT
ATOM      1  CA  ARG D 557     -26.217   2.705 -17.014  1.00 35.49     0.159 C 
ENDROOT
BRANCH   1   2
ATOM      2  CB  ARG D 557     -26.789   1.319 -17.183  1.00 35.49     0.034 C 
BRANCH   2   3
ATOM      3  CG  ARG D 557     -25.868   0.195 -16.979  1.00 35.49     0.027 C 
BRANCH   3   4
ATOM      4  CD  ARG D 557     -26.280  -0.676 -15.855  1.00 35.49     0.116 C 
BRANCH   4   5
ATOM      5  NE  ARG D 557     -25.212  -0.891 -14.915  1.00 35.49    -0.212 N 
ATOM      6  CZ  ARG D 557     -24.899  -2.039 -14.357  1.00 35.49     0.666 C 
ATOM      7  NH1 ARG D 557     -25.567  -3.151 -14.601  1.00 35.49    -0.235 N 
ATOM      8  NH2 ARG D 557     -23.884  -2.054 -13.542  1.00 35.49    -0.235 N 
ATOM      9  HH  ARG D 557     -26.236  -3.165 -15.135  1.00 35.49     0.174 HD
ATOM     10  HH  ARG D 557     -25.315  -3.871 -14.210  1.00 35.49     0.174 HD
ATOM     11  HH  ARG D 557     -23.466  -1.322 -13.410  1.00 35.49     0.174 HD
ATOM     12  HH  ARG D 557     -23.649  -2.776 -13.166  1.00 35.49     0.174 HD
ATOM     13  HE  ARG D 557     -24.775  -0.213 -14.645  1.00 35.49     0.178 HD
ENDBRANCH   4   5
ENDBRANCH   3   4
ENDBRANCH   2   3
ENDBRANCH   1   2
END_RES ARG D 557
BEGIN_RES GLU D 570
REMARK  3 active torsions:
REMARK  status: ('A' for Active; 'I' for Inactive)
REMARK    5  A    between atoms: CA   and  CB  
REMARK    6  A    between atoms: CB   and  CG  
REMARK    7  A    between atoms: CG   and  CD  
ROOT
ATOM     14  CA  GLU D 570     -18.033  -6.348 -13.375  1.00 32.92     0.160 C 
ENDROOT
BRANCH  14  15
ATOM     15  CB  GLU D 570     -19.500  -6.345 -13.794  1.00 32.92     0.043 C 
BRANCH  15  16
ATOM     16  CG  GLU D 570     -19.796  -6.303 -15.249  1.00 32.92     0.100 C 
BRANCH  16  17
ATOM     17  CD  GLU D 570     -21.241  -5.977 -15.548  1.00 32.92     0.185 C 
ATOM     18  OE1 GLU D 570     -21.540  -4.820 -15.901  1.00 32.92    -0.647 OA
ATOM     19  OE2 GLU D 570     -22.086  -6.883 -15.410  1.00 32.92    -0.647 OA
ENDBRANCH  16  17
ENDBRANCH  15  16
ENDBRANCH  14  15
END_RES GLU D 570
ENDMDL
MODEL 9
REMARK VINA RESULT:      -6.0      2.355      3.248
REMARK  17 active torsions:
REMARK  status: ('A' for Active; 'I' for Inactive)
REMARK    1  A    between atoms: C_2  and  C_3 
REMARK    2  A    between atoms: C_3  and  C_4 
REMARK    3  A    between atoms: C_4  and  C_5 
REMARK    4  A    between atoms: C_5  and  C_6 
REMARK    5  A    between atoms: C_6  and  C_7 
REMARK    6  A    between atoms: C_7  and  C_8 
REMARK    7  A    between atoms: C_8  and  C_9 
REMARK    8  A    between atoms: C_9  and  C_10 
REMARK    9  A    between atoms: C_10  and  C_11 
REMARK   10  A    between atoms: C_11  and  C_12 
REMARK   11  A    between atoms: C_12  and  C_13 
REMARK   12  A    between atoms: C_13  and  C_14 
REMARK   13  A    between atoms: C_14  and  C_15 
REMARK   14  A    between atoms: C_15  and  C_16 
REMARK   15  A    between atoms: C_16  and  C_17 
REMARK   16  A    between atoms: C_17  and  C_18 
REMARK   17  A    between atoms: C_18  and  O_20 
ROOT
HETATM    1  C   UNL     1     -20.318  -8.451  -3.625  1.00  0.00     0.000 C 
ENDROOT
BRANCH   1   2
HETATM    2  C   UNL     1     -20.476  -7.766  -2.280  1.00  0.00     0.000 C 
BRANCH   2   3
HETATM    3  C   UNL     1     -21.485  -6.638  -2.391  1.00  0.00     0.000 C 
BRANCH   3   4
HETATM    4  C   UNL     1     -22.350  -6.597  -1.148  1.00  0.00     0.000 C 
BRANCH   4   5
HETATM    5  C   UNL     1     -21.988  -7.748  -0.229  1.00  0.00     0.000 C 
BRANCH   5   6
HETATM    6  C   UNL     1     -23.206  -8.176   0.567  1.00  0.00     0.000 C 
BRANCH   6   7
HETATM    7  C   UNL     1     -23.628  -9.573   0.153  1.00  0.00     0.000 C 
BRANCH   7   8
HETATM    8  C   UNL     1     -22.477 -10.273  -0.549  1.00  0.00     0.000 C 
BRANCH   8   9
HETATM    9  C   UNL     1     -21.907 -11.357   0.348  1.00  0.00    -0.000 C 
BRANCH   9  10
HETATM   10  C   UNL     1     -20.417 -11.138   0.556  1.00  0.00    -0.005 C 
HETATM   11  C   UNL     1     -19.704 -11.117  -0.781  1.00  0.00     0.005 C 
ENDBRANCH   9  10
ENDBRANCH   8   9
ENDBRANCH   7   8
ENDBRANCH   6   7
ENDBRANCH   5   6
ENDBRANCH   4   5
ENDBRANCH   3   4
ENDBRANCH   2   3
ENDBRANCH   1   2
BRANCH   1  12
HETATM   12  C   UNL     1     -21.116  -7.708  -4.680  1.00  0.00     0.000 C 
BRANCH  12  13
HETATM   13  C   UNL     1     -20.177  -7.119  -5.718  1.00  0.00     0.000 C 
BRANCH  13  14
HETATM   14  C   UNL     1     -20.529  -5.664  -5.976  1.00  0.00     0.000 C 
BRANCH  14  15
HETATM   15  C   UNL     1     -19.499  -5.034  -6.905  1.00  0.00     0.001 C 
BRANCH  15  16
HETATM   16  C   UNL     1     -20.177  -4.072  -7.867  1.00  0.00     0.010 C 
BRANCH  16  17
HETATM   17  C   UNL     1     -21.537  -3.609  -7.356  1.00  0.00     0.110 C 
BRANCH  17  18
HETATM   18  C   UNL     1     -22.593  -3.813  -8.418  1.00  0.00     0.139 C 
HETATM   19  O   UNL     1     -22.361  -3.755  -9.623  1.00  0.00    -0.650 OA
BRANCH  18  20
HETATM   20  O   UNL     1     -23.830  -4.068  -7.976  1.00  0.00    -0.776 OA
HETATM   21  H   UNL     1     -24.522  -4.235  -8.642  1.00  0.00     0.167 HD
ENDBRANCH  18  20
ENDBRANCH  17  18
ENDBRANCH  16  17
ENDBRANCH  15  16
ENDBRANCH  14  15
ENDBRANCH  13  14
ENDBRANCH  12  13
ENDBRANCH   1  12
TORSDOF 17
BEGIN_RES ARG D 557
REMARK  4 active torsions:
REMARK  status: ('A' for Active; 'I' for Inactive)
REMARK    1  A    between atoms: CA   and  CB  
REMARK    2  A    between atoms: CB   and  CG  
REMARK    3  A    between atoms: CG   and  CD  
REMARK    4  A    between atoms: CD   and  NE  
REMARK       I    between atoms: NE   and  CZ  
REMARK       I    between atoms: CZ   and  NH1 
REMARK       I    between atoms: CZ   and  NH2 
ROOT
ATOM      1  CA  ARG D 557     -26.217   2.705 -17.014  1.00 35.49     0.159 C 
ENDROOT
BRANCH   1   2
ATOM      2  CB  ARG D 557     -26.789   1.319 -17.183  1.00 35.49     0.034 C 
BRANCH   2   3
ATOM      3  CG  ARG D 557     -28.232   1.226 -17.435  1.00 35.49     0.027 C 
BRANCH   3   4
ATOM      4  CD  ARG D 557     -28.910   0.301 -16.498  1.00 35.49     0.116 C 
BRANCH   4   5
ATOM      5  NE  ARG D 557     -29.313  -0.922 -17.140  1.00 35.49    -0.212 N 
ATOM      6  CZ  ARG D 557     -28.696  -2.079 -17.044  1.00 35.49     0.666 C 
ATOM      7  NH1 ARG D 557     -27.596  -2.239 -16.333  1.00 35.49    -0.235 N 
ATOM      8  NH2 ARG D 557     -29.215  -3.090 -17.679  1.00 35.49    -0.235 N 
ATOM      9  HH  ARG D 557     -27.238  -1.588 -15.906  1.00 35.49     0.174 HD
ATOM     10  HH  ARG D 557     -27.239  -3.018 -16.305  1.00 35.49     0.174 HD
ATOM     11  HH  ARG D 557     -29.931  -2.959 -18.124  1.00 35.49     0.174 HD
ATOM     12  HH  ARG D 557     -28.848  -3.854 -17.637  1.00 35.49     0.174 HD
ATOM     13  HE  ARG D 557     -29.972  -0.894 -17.677  1.00 35.49     0.178 HD
ENDBRANCH   4   5
ENDBRANCH   3   4
ENDBRANCH   2   3
ENDBRANCH   1   2
END_RES ARG D 557
BEGIN_RES GLU D 570
REMARK  3 active torsions:
REMARK  status: ('A' for Active; 'I' for Inactive)
REMARK    5  A    between atoms: CA   and  CB  
REMARK    6  A    between atoms: CB   and  CG  
REMARK    7  A    between atoms: CG   and  CD  
ROOT
ATOM     14  CA  GLU D 570     -18.033  -6.348 -13.375  1.00 32.92     0.160 C 
ENDROOT
BRANCH  14  15
ATOM     15  CB  GLU D 570     -19.500  -6.345 -13.794  1.00 32.92     0.043 C 
BRANCH  15  16
ATOM     16  CG  GLU D 570     -20.066  -7.617 -14.312  1.00 32.92     0.100 C 
BRANCH  16  17
ATOM     17  CD  GLU D 570     -20.760  -7.454 -15.645  1.00 32.92     0.185 C 
ATOM     18  OE1 GLU D 570     -20.532  -6.435 -16.325  1.00 32.92    -0.647 OA
ATOM     19  OE2 GLU D 570     -21.552  -8.346 -16.005  1.00 32.92    -0.647 OA
ENDBRANCH  16  17
ENDBRANCH  15  16
ENDBRANCH  14  15
END_RES GLU D 570
ENDMDL
