MODEL 1
REMARK VINA RESULT:      -3.6      0.000      0.000
REMARK  1 active torsions:
REMARK  status: ('A' for Active; 'I' for Inactive)
REMARK    1  A    between atoms: C_2  and  O_4 
ROOT
HETATM    1  C   UNL     1     -23.203  -4.175  -9.957  1.00  0.00     0.125 C 
HETATM    2  C   UNL     1     -24.460  -3.402 -10.221  1.00  0.00     0.135 C 
HETATM    3  O   UNL     1     -24.956  -3.254 -11.326  1.00  0.00    -0.650 OA
ENDROOT
BRANCH   2   4
HETATM    4  O   UNL     1     -25.000  -2.877  -9.099  1.00  0.00    -0.777 OA
HETATM    5  H   UNL     1     -24.792  -3.382  -8.291  1.00  0.00     0.167 HD
ENDBRANCH   2   4
TORSDOF 1
BEGIN_RES ARG D 557
REMARK  4 active torsions:
REMARK  status: ('A' for Active; 'I' for Inactive)
REMARK    1  A    between atoms: CA   and  CB  
REMARK    2  A    between atoms: CB   and  CG  
REMARK    3  A    between atoms: CG   and  CD  
REMARK    4  A    between atoms: CD   and  NE  
REMARK       I    between atoms: NE   and  CZ  
REMARK       I    between atoms: CZ   and  NH1 
REMARK       I    between atoms: CZ   and  NH2 
ROOT
ATOM      1  CA  ARG D 557     -26.217   2.705 -17.014  1.00 35.49     0.159 C 
ENDROOT
BRANCH   1   2
ATOM      2  CB  ARG D 557     -26.789   1.319 -17.183  1.00 35.49     0.034 C 
BRANCH   2   3
ATOM      3  CG  ARG D 557     -25.852   0.197 -17.052  1.00 35.49     0.027 C 
BRANCH   3   4
ATOM      4  CD  ARG D 557     -26.186  -0.688 -15.913  1.00 35.49     0.116 C 
BRANCH   4   5
ATOM      5  NE  ARG D 557     -25.108  -0.783 -14.965  1.00 35.49    -0.212 N 
ATOM      6  CZ  ARG D 557     -24.719  -1.879 -14.351  1.00 35.49     0.666 C 
ATOM      7  NH1 ARG D 557     -25.310  -3.044 -14.538  1.00 35.49    -0.235 N 
ATOM      8  NH2 ARG D 557     -23.707  -1.784 -13.539  1.00 35.49    -0.235 N 
ATOM      9  HH  ARG D 557     -25.977  -3.130 -15.070  1.00 35.49     0.174 HD
ATOM     10  HH  ARG D 557     -25.011  -3.725 -14.112  1.00 35.49     0.174 HD
ATOM     11  HH  ARG D 557     -23.340  -1.020 -13.443  1.00 35.49     0.174 HD
ATOM     12  HH  ARG D 557     -23.425  -2.470 -13.127  1.00 35.49     0.174 HD
ATOM     13  HE  ARG D 557     -24.718  -0.065 -14.730  1.00 35.49     0.178 HD
ENDBRANCH   4   5
ENDBRANCH   3   4
ENDBRANCH   2   3
ENDBRANCH   1   2
END_RES ARG D 557
BEGIN_RES GLU D 570
REMARK  3 active torsions:
REMARK  status: ('A' for Active; 'I' for Inactive)
REMARK    5  A    between atoms: CA   and  CB  
REMARK    6  A    between atoms: CB   and  CG  
REMARK    7  A    between atoms: CG   and  CD  
ROOT
ATOM     14  CA  GLU D 570     -18.033  -6.348 -13.375  1.00 32.92     0.160 C 
ENDROOT
BRANCH  14  15
ATOM     15  CB  GLU D 570     -19.500  -6.345 -13.794  1.00 32.92     0.043 C 
BRANCH  15  16
ATOM     16  CG  GLU D 570     -20.437  -5.507 -13.001  1.00 32.92     0.100 C 
BRANCH  16  17
ATOM     17  CD  GLU D 570     -21.777  -5.324 -13.674  1.00 32.92     0.185 C 
ATOM     18  OE1 GLU D 570     -22.186  -6.201 -14.459  1.00 32.92    -0.647 OA
ATOM     19  OE2 GLU D 570     -22.417  -4.283 -13.427  1.00 32.92    -0.647 OA
ENDBRANCH  16  17
ENDBRANCH  15  16
ENDBRANCH  14  15
END_RES GLU D 570
ENDMDL
MODEL 2
REMARK VINA RESULT:      -3.2      2.327      3.749
REMARK  1 active torsions:
REMARK  status: ('A' for Active; 'I' for Inactive)
REMARK    1  A    between atoms: C_2  and  O_4 
ROOT
HETATM    1  C   UNL     1     -26.631  -6.795 -15.839  1.00  0.00     0.125 C 
HETATM    2  C   UNL     1     -25.135  -6.861 -15.792  1.00  0.00     0.135 C 
HETATM    3  O   UNL     1     -24.483  -7.864 -16.030  1.00  0.00    -0.650 OA
ENDROOT
BRANCH   2   4
HETATM    4  O   UNL     1     -24.567  -5.682 -15.455  1.00  0.00    -0.777 OA
HETATM    5  H   UNL     1     -23.975  -5.321 -16.141  1.00  0.00     0.167 HD
ENDBRANCH   2   4
TORSDOF 1
BEGIN_RES ARG D 557
REMARK  4 active torsions:
REMARK  status: ('A' for Active; 'I' for Inactive)
REMARK    1  A    between atoms: CA   and  CB  
REMARK    2  A    between atoms: CB   and  CG  
REMARK    3  A    between atoms: CG   and  CD  
REMARK    4  A    between atoms: CD   and  NE  
REMARK       I    between atoms: NE   and  CZ  
REMARK       I    between atoms: CZ   and  NH1 
REMARK       I    between atoms: CZ   and  NH2 
ROOT
ATOM      1  CA  ARG D 557     -26.217   2.705 -17.014  1.00 35.49     0.159 C 
ENDROOT
BRANCH   1   2
ATOM      2  CB  ARG D 557     -26.789   1.319 -17.183  1.00 35.49     0.034 C 
BRANCH   2   3
ATOM      3  CG  ARG D 557     -25.867   0.195 -16.983  1.00 35.49     0.027 C 
BRANCH   3   4
ATOM      4  CD  ARG D 557     -26.301  -0.704 -15.890  1.00 35.49     0.116 C 
BRANCH   4   5
ATOM      5  NE  ARG D 557     -25.247  -0.955 -14.942  1.00 35.49    -0.212 N 
ATOM      6  CZ  ARG D 557     -25.016  -2.097 -14.335  1.00 35.49     0.666 C 
ATOM      7  NH1 ARG D 557     -25.764  -3.168 -14.529  1.00 35.49    -0.235 N 
ATOM      8  NH2 ARG D 557     -24.001  -2.150 -13.522  1.00 35.49    -0.235 N 
ATOM      9  HH  ARG D 557     -26.435  -3.156 -15.061  1.00 35.49     0.174 HD
ATOM     10  HH  ARG D 557     -25.563  -3.886 -14.107  1.00 35.49     0.174 HD
ATOM     11  HH  ARG D 557     -23.531  -1.445 -13.422  1.00 35.49     0.174 HD
ATOM     12  HH  ARG D 557     -23.818  -2.871 -13.115  1.00 35.49     0.174 HD
ATOM     13  HE  ARG D 557     -24.761  -0.299 -14.703  1.00 35.49     0.178 HD
ENDBRANCH   4   5
ENDBRANCH   3   4
ENDBRANCH   2   3
ENDBRANCH   1   2
END_RES ARG D 557
BEGIN_RES GLU D 570
REMARK  3 active torsions:
REMARK  status: ('A' for Active; 'I' for Inactive)
REMARK    5  A    between atoms: CA   and  CB  
REMARK    6  A    between atoms: CB   and  CG  
REMARK    7  A    between atoms: CG   and  CD  
ROOT
ATOM     14  CA  GLU D 570     -18.033  -6.348 -13.375  1.00 32.92     0.160 C 
ENDROOT
BRANCH  14  15
ATOM     15  CB  GLU D 570     -19.500  -6.345 -13.794  1.00 32.92     0.043 C 
BRANCH  15  16
ATOM     16  CG  GLU D 570     -20.444  -5.539 -12.977  1.00 32.92     0.100 C 
BRANCH  16  17
ATOM     17  CD  GLU D 570     -21.700  -5.162 -13.727  1.00 32.92     0.185 C 
ATOM     18  OE1 GLU D 570     -22.751  -4.965 -13.088  1.00 32.92    -0.647 OA
ATOM     19  OE2 GLU D 570     -21.636  -5.079 -14.970  1.00 32.92    -0.647 OA
ENDBRANCH  16  17
ENDBRANCH  15  16
ENDBRANCH  14  15
END_RES GLU D 570
ENDMDL
MODEL 3
REMARK VINA RESULT:      -3.2      1.787      2.427
REMARK  1 active torsions:
REMARK  status: ('A' for Active; 'I' for Inactive)
REMARK    1  A    between atoms: C_2  and  O_4 
ROOT
HETATM    1  C   UNL     1     -20.527  -3.707 -10.979  1.00  0.00     0.125 C 
HETATM    2  C   UNL     1     -21.831  -3.383 -11.644  1.00  0.00     0.135 C 
HETATM    3  O   UNL     1     -22.863  -3.129 -11.046  1.00  0.00    -0.650 OA
ENDROOT
BRANCH   2   4
HETATM    4  O   UNL     1     -21.750  -3.399 -12.993  1.00  0.00    -0.777 OA
HETATM    5  H   UNL     1     -22.557  -3.081 -13.438  1.00  0.00     0.167 HD
ENDBRANCH   2   4
TORSDOF 1
BEGIN_RES ARG D 557
REMARK  4 active torsions:
REMARK  status: ('A' for Active; 'I' for Inactive)
REMARK    1  A    between atoms: CA   and  CB  
REMARK    2  A    between atoms: CB   and  CG  
REMARK    3  A    between atoms: CG   and  CD  
REMARK    4  A    between atoms: CD   and  NE  
REMARK       I    between atoms: NE   and  CZ  
REMARK       I    between atoms: CZ   and  NH1 
REMARK       I    between atoms: CZ   and  NH2 
ROOT
ATOM      1  CA  ARG D 557     -26.217   2.705 -17.014  1.00 35.49     0.159 C 
ENDROOT
BRANCH   1   2
ATOM      2  CB  ARG D 557     -26.789   1.319 -17.183  1.00 35.49     0.034 C 
BRANCH   2   3
ATOM      3  CG  ARG D 557     -25.834   0.204 -17.168  1.00 35.49     0.027 C 
BRANCH   3   4
ATOM      4  CD  ARG D 557     -24.766   0.390 -16.159  1.00 35.49     0.116 C 
BRANCH   4   5
ATOM      5  NE  ARG D 557     -24.942  -0.470 -15.018  1.00 35.49    -0.212 N 
ATOM      6  CZ  ARG D 557     -24.134  -1.441 -14.657  1.00 35.49     0.666 C 
ATOM      7  NH1 ARG D 557     -23.045  -1.749 -15.337  1.00 35.49    -0.235 N 
ATOM      8  NH2 ARG D 557     -24.439  -2.106 -13.580  1.00 35.49    -0.235 N 
ATOM      9  HH  ARG D 557     -22.824  -1.323 -16.048  1.00 35.49     0.174 HD
ATOM     10  HH  ARG D 557     -22.555  -2.391 -15.052  1.00 35.49     0.174 HD
ATOM     11  HH  ARG D 557     -25.144  -1.880 -13.157  1.00 35.49     0.174 HD
ATOM     12  HH  ARG D 557     -23.939  -2.737 -13.313  1.00 35.49     0.174 HD
ATOM     13  HE  ARG D 557     -25.656  -0.389 -14.564  1.00 35.49     0.178 HD
ENDBRANCH   4   5
ENDBRANCH   3   4
ENDBRANCH   2   3
ENDBRANCH   1   2
END_RES ARG D 557
BEGIN_RES GLU D 570
REMARK  3 active torsions:
REMARK  status: ('A' for Active; 'I' for Inactive)
REMARK    5  A    between atoms: CA   and  CB  
REMARK    6  A    between atoms: CB   and  CG  
REMARK    7  A    between atoms: CG   and  CD  
ROOT
ATOM     14  CA  GLU D 570     -18.033  -6.348 -13.375  1.00 32.92     0.160 C 
ENDROOT
BRANCH  14  15
ATOM     15  CB  GLU D 570     -19.500  -6.345 -13.794  1.00 32.92     0.043 C 
BRANCH  15  16
ATOM     16  CG  GLU D 570     -19.814  -5.929 -15.185  1.00 32.92     0.100 C 
BRANCH  16  17
ATOM     17  CD  GLU D 570     -21.291  -5.717 -15.418  1.00 32.92     0.185 C 
ATOM     18  OE1 GLU D 570     -21.696  -4.586 -15.749  1.00 32.92    -0.647 OA
ATOM     19  OE2 GLU D 570     -22.055  -6.689 -15.252  1.00 32.92    -0.647 OA
ENDBRANCH  16  17
ENDBRANCH  15  16
ENDBRANCH  14  15
END_RES GLU D 570
ENDMDL
MODEL 4
REMARK VINA RESULT:      -3.2      6.967      8.258
REMARK  1 active torsions:
REMARK  status: ('A' for Active; 'I' for Inactive)
REMARK    1  A    between atoms: C_2  and  O_4 
ROOT
HETATM    1  C   UNL     1     -28.922 -14.944 -18.090  1.00  0.00     0.125 C 
HETATM    2  C   UNL     1     -30.049 -14.595 -19.015  1.00  0.00     0.135 C 
HETATM    3  O   UNL     1     -30.551 -13.487 -19.099  1.00  0.00    -0.650 OA
ENDROOT
BRANCH   2   4
HETATM    4  O   UNL     1     -30.461 -15.645 -19.760  1.00  0.00    -0.777 OA
HETATM    5  H   UNL     1     -31.400 -15.600 -20.016  1.00  0.00     0.167 HD
ENDBRANCH   2   4
TORSDOF 1
BEGIN_RES ARG D 557
REMARK  4 active torsions:
REMARK  status: ('A' for Active; 'I' for Inactive)
REMARK    1  A    between atoms: CA   and  CB  
REMARK    2  A    between atoms: CB   and  CG  
REMARK    3  A    between atoms: CG   and  CD  
REMARK    4  A    between atoms: CD   and  NE  
REMARK       I    between atoms: NE   and  CZ  
REMARK       I    between atoms: CZ   and  NH1 
REMARK       I    between atoms: CZ   and  NH2 
ROOT
ATOM      1  CA  ARG D 557     -26.217   2.705 -17.014  1.00 35.49     0.159 C 
ENDROOT
BRANCH   1   2
ATOM      2  CB  ARG D 557     -26.789   1.319 -17.183  1.00 35.49     0.034 C 
BRANCH   2   3
ATOM      3  CG  ARG D 557     -25.865   0.195 -16.988  1.00 35.49     0.027 C 
BRANCH   3   4
ATOM      4  CD  ARG D 557     -26.289  -0.700 -15.887  1.00 35.49     0.116 C 
BRANCH   4   5
ATOM      5  NE  ARG D 557     -25.234  -0.925 -14.935  1.00 35.49    -0.212 N 
ATOM      6  CZ  ARG D 557     -24.951  -2.072 -14.359  1.00 35.49     0.666 C 
ATOM      7  NH1 ARG D 557     -25.642  -3.173 -14.594  1.00 35.49    -0.235 N 
ATOM      8  NH2 ARG D 557     -23.944  -2.099 -13.536  1.00 35.49    -0.235 N 
ATOM      9  HH  ARG D 557     -26.307  -3.179 -15.134  1.00 35.49     0.174 HD
ATOM     10  HH  ARG D 557     -25.409  -3.893 -14.191  1.00 35.49     0.174 HD
ATOM     11  HH  ARG D 557     -23.511  -1.374 -13.409  1.00 35.49     0.174 HD
ATOM     12  HH  ARG D 557     -23.728  -2.821 -13.148  1.00 35.49     0.174 HD
ATOM     13  HE  ARG D 557     -24.784  -0.254 -14.671  1.00 35.49     0.178 HD
ENDBRANCH   4   5
ENDBRANCH   3   4
ENDBRANCH   2   3
ENDBRANCH   1   2
END_RES ARG D 557
BEGIN_RES GLU D 570
REMARK  3 active torsions:
REMARK  status: ('A' for Active; 'I' for Inactive)
REMARK    5  A    between atoms: CA   and  CB  
REMARK    6  A    between atoms: CB   and  CG  
REMARK    7  A    between atoms: CG   and  CD  
ROOT
ATOM     14  CA  GLU D 570     -18.033  -6.348 -13.375  1.00 32.92     0.160 C 
ENDROOT
BRANCH  14  15
ATOM     15  CB  GLU D 570     -19.500  -6.345 -13.794  1.00 32.92     0.043 C 
BRANCH  15  16
ATOM     16  CG  GLU D 570     -20.444  -5.541 -12.976  1.00 32.92     0.100 C 
BRANCH  16  17
ATOM     17  CD  GLU D 570     -21.684  -5.134 -13.737  1.00 32.92     0.185 C 
ATOM     18  OE1 GLU D 570     -21.618  -4.997 -14.973  1.00 32.92    -0.647 OA
ATOM     19  OE2 GLU D 570     -22.729  -4.932 -13.087  1.00 32.92    -0.647 OA
ENDBRANCH  16  17
ENDBRANCH  15  16
ENDBRANCH  14  15
END_RES GLU D 570
ENDMDL
MODEL 5
REMARK VINA RESULT:      -3.1      3.781      4.286
REMARK  1 active torsions:
REMARK  status: ('A' for Active; 'I' for Inactive)
REMARK    1  A    between atoms: C_2  and  O_4 
ROOT
HETATM    1  C   UNL     1     -24.113  -7.418 -16.628  1.00  0.00     0.125 C 
HETATM    2  C   UNL     1     -25.141  -6.792 -15.735  1.00  0.00     0.135 C 
HETATM    3  O   UNL     1     -26.150  -7.356 -15.347  1.00  0.00    -0.650 OA
ENDROOT
BRANCH   2   4
HETATM    4  O   UNL     1     -24.837  -5.519 -15.397  1.00  0.00    -0.777 OA
HETATM    5  H   UNL     1     -24.296  -5.446 -14.589  1.00  0.00     0.167 HD
ENDBRANCH   2   4
TORSDOF 1
BEGIN_RES ARG D 557
REMARK  4 active torsions:
REMARK  status: ('A' for Active; 'I' for Inactive)
REMARK    1  A    between atoms: CA   and  CB  
REMARK    2  A    between atoms: CB   and  CG  
REMARK    3  A    between atoms: CG   and  CD  
REMARK    4  A    between atoms: CD   and  NE  
REMARK       I    between atoms: NE   and  CZ  
REMARK       I    between atoms: CZ   and  NH1 
REMARK       I    between atoms: CZ   and  NH2 
ROOT
ATOM      1  CA  ARG D 557     -26.217   2.705 -17.014  1.00 35.49     0.159 C 
ENDROOT
BRANCH   1   2
ATOM      2  CB  ARG D 557     -26.789   1.319 -17.183  1.00 35.49     0.034 C 
BRANCH   2   3
ATOM      3  CG  ARG D 557     -28.199   1.137 -16.818  1.00 35.49     0.027 C 
BRANCH   3   4
ATOM      4  CD  ARG D 557     -28.593  -0.290 -16.779  1.00 35.49     0.116 C 
BRANCH   4   5
ATOM      5  NE  ARG D 557     -27.626  -1.100 -16.086  1.00 35.49    -0.212 N 
ATOM      6  CZ  ARG D 557     -27.516  -2.407 -16.171  1.00 35.49     0.666 C 
ATOM      7  NH1 ARG D 557     -28.321  -3.139 -16.918  1.00 35.49    -0.235 N 
ATOM      8  NH2 ARG D 557     -26.565  -2.975 -15.487  1.00 35.49    -0.235 N 
ATOM      9  HH  ARG D 557     -28.952  -2.785 -17.378  1.00 35.49     0.174 HD
ATOM     10  HH  ARG D 557     -28.200  -3.987 -16.937  1.00 35.49     0.174 HD
ATOM     11  HH  ARG D 557     -26.056  -2.476 -15.019  1.00 35.49     0.174 HD
ATOM     12  HH  ARG D 557     -26.461  -3.816 -15.520  1.00 35.49     0.174 HD
ATOM     13  HE  ARG D 557     -27.113  -0.717 -15.525  1.00 35.49     0.178 HD
ENDBRANCH   4   5
ENDBRANCH   3   4
ENDBRANCH   2   3
ENDBRANCH   1   2
END_RES ARG D 557
BEGIN_RES GLU D 570
REMARK  3 active torsions:
REMARK  status: ('A' for Active; 'I' for Inactive)
REMARK    5  A    between atoms: CA   and  CB  
REMARK    6  A    between atoms: CB   and  CG  
REMARK    7  A    between atoms: CG   and  CD  
ROOT
ATOM     14  CA  GLU D 570     -18.033  -6.348 -13.375  1.00 32.92     0.160 C 
ENDROOT
BRANCH  14  15
ATOM     15  CB  GLU D 570     -19.500  -6.345 -13.794  1.00 32.92     0.043 C 
BRANCH  15  16
ATOM     16  CG  GLU D 570     -19.808  -6.004 -15.207  1.00 32.92     0.100 C 
BRANCH  16  17
ATOM     17  CD  GLU D 570     -21.201  -5.449 -15.389  1.00 32.92     0.185 C 
ATOM     18  OE1 GLU D 570     -21.526  -4.981 -16.497  1.00 32.92    -0.647 OA
ATOM     19  OE2 GLU D 570     -21.970  -5.466 -14.408  1.00 32.92    -0.647 OA
ENDBRANCH  16  17
ENDBRANCH  15  16
ENDBRANCH  14  15
END_RES GLU D 570
ENDMDL
MODEL 6
REMARK VINA RESULT:      -3.1      7.037      8.436
REMARK  1 active torsions:
REMARK  status: ('A' for Active; 'I' for Inactive)
REMARK    1  A    between atoms: C_2  and  O_4 
ROOT
HETATM    1  C   UNL     1     -28.713 -15.091 -17.866  1.00  0.00     0.125 C 
HETATM    2  C   UNL     1     -29.659 -14.190 -18.600  1.00  0.00     0.135 C 
HETATM    3  O   UNL     1     -29.348 -13.114 -19.083  1.00  0.00    -0.650 OA
ENDROOT
BRANCH   2   4
HETATM    4  O   UNL     1     -30.912 -14.693 -18.676  1.00  0.00    -0.777 OA
HETATM    5  H   UNL     1     -31.233 -14.810 -19.589  1.00  0.00     0.167 HD
ENDBRANCH   2   4
TORSDOF 1
BEGIN_RES ARG D 557
REMARK  4 active torsions:
REMARK  status: ('A' for Active; 'I' for Inactive)
REMARK    1  A    between atoms: CA   and  CB  
REMARK    2  A    between atoms: CB   and  CG  
REMARK    3  A    between atoms: CG   and  CD  
REMARK    4  A    between atoms: CD   and  NE  
REMARK       I    between atoms: NE   and  CZ  
REMARK       I    between atoms: CZ   and  NH1 
REMARK       I    between atoms: CZ   and  NH2 
ROOT
ATOM      1  CA  ARG D 557     -26.217   2.705 -17.014  1.00 35.49     0.159 C 
ENDROOT
BRANCH   1   2
ATOM      2  CB  ARG D 557     -26.789   1.319 -17.183  1.00 35.49     0.034 C 
BRANCH   2   3
ATOM      3  CG  ARG D 557     -28.230   1.227 -17.447  1.00 35.49     0.027 C 
BRANCH   3   4
ATOM      4  CD  ARG D 557     -28.918   0.311 -16.508  1.00 35.49     0.116 C 
BRANCH   4   5
ATOM      5  NE  ARG D 557     -29.297  -0.927 -17.137  1.00 35.49    -0.212 N 
ATOM      6  CZ  ARG D 557     -28.660  -2.071 -17.026  1.00 35.49     0.666 C 
ATOM      7  NH1 ARG D 557     -27.558  -2.202 -16.310  1.00 35.49    -0.235 N 
ATOM      8  NH2 ARG D 557     -29.158  -3.099 -17.649  1.00 35.49    -0.235 N 
ATOM      9  HH  ARG D 557     -27.214  -1.540 -15.889  1.00 35.49     0.174 HD
ATOM     10  HH  ARG D 557     -27.188  -2.974 -16.271  1.00 35.49     0.174 HD
ATOM     11  HH  ARG D 557     -29.874  -2.986 -18.098  1.00 35.49     0.174 HD
ATOM     12  HH  ARG D 557     -28.777  -3.854 -17.598  1.00 35.49     0.174 HD
ATOM     13  HE  ARG D 557     -29.954  -0.916 -17.676  1.00 35.49     0.178 HD
ENDBRANCH   4   5
ENDBRANCH   3   4
ENDBRANCH   2   3
ENDBRANCH   1   2
END_RES ARG D 557
BEGIN_RES GLU D 570
REMARK  3 active torsions:
REMARK  status: ('A' for Active; 'I' for Inactive)
REMARK    5  A    between atoms: CA   and  CB  
REMARK    6  A    between atoms: CB   and  CG  
REMARK    7  A    between atoms: CG   and  CD  
ROOT
ATOM     14  CA  GLU D 570     -18.033  -6.348 -13.375  1.00 32.92     0.160 C 
ENDROOT
BRANCH  14  15
ATOM     15  CB  GLU D 570     -19.500  -6.345 -13.794  1.00 32.92     0.043 C 
BRANCH  15  16
ATOM     16  CG  GLU D 570     -20.438  -5.513 -12.997  1.00 32.92     0.100 C 
BRANCH  16  17
ATOM     17  CD  GLU D 570     -21.745  -5.253 -13.708  1.00 32.92     0.185 C 
ATOM     18  OE1 GLU D 570     -22.327  -4.166 -13.527  1.00 32.92    -0.647 OA
ATOM     19  OE2 GLU D 570     -22.202  -6.153 -14.440  1.00 32.92    -0.647 OA
ENDBRANCH  16  17
ENDBRANCH  15  16
ENDBRANCH  14  15
END_RES GLU D 570
ENDMDL
MODEL 7
REMARK VINA RESULT:      -2.9      1.812      2.097
REMARK  1 active torsions:
REMARK  status: ('A' for Active; 'I' for Inactive)
REMARK    1  A    between atoms: C_2  and  O_4 
ROOT
HETATM    1  C   UNL     1     -23.528  -3.848  -9.413  1.00  0.00     0.125 C 
HETATM    2  C   UNL     1     -24.635  -3.323 -10.277  1.00  0.00     0.135 C 
HETATM    3  O   UNL     1     -24.487  -2.939 -11.425  1.00  0.00    -0.650 OA
ENDROOT
BRANCH   2   4
HETATM    4  O   UNL     1     -25.832  -3.317  -9.650  1.00  0.00    -0.777 OA
HETATM    5  H   UNL     1     -25.844  -3.829  -8.821  1.00  0.00     0.167 HD
ENDBRANCH   2   4
TORSDOF 1
BEGIN_RES ARG D 557
REMARK  4 active torsions:
REMARK  status: ('A' for Active; 'I' for Inactive)
REMARK    1  A    between atoms: CA   and  CB  
REMARK    2  A    between atoms: CB   and  CG  
REMARK    3  A    between atoms: CG   and  CD  
REMARK    4  A    between atoms: CD   and  NE  
REMARK       I    between atoms: NE   and  CZ  
REMARK       I    between atoms: CZ   and  NH1 
REMARK       I    between atoms: CZ   and  NH2 
ROOT
ATOM      1  CA  ARG D 557     -26.217   2.705 -17.014  1.00 35.49     0.159 C 
ENDROOT
BRANCH   1   2
ATOM      2  CB  ARG D 557     -26.789   1.319 -17.183  1.00 35.49     0.034 C 
BRANCH   2   3
ATOM      3  CG  ARG D 557     -28.233   1.170 -16.968  1.00 35.49     0.027 C 
BRANCH   3   4
ATOM      4  CD  ARG D 557     -28.624  -0.237 -16.717  1.00 35.49     0.116 C 
BRANCH   4   5
ATOM      5  NE  ARG D 557     -27.596  -0.970 -16.026  1.00 35.49    -0.212 N 
ATOM      6  CZ  ARG D 557     -27.409  -2.269 -16.085  1.00 35.49     0.666 C 
ATOM      7  NH1 ARG D 557     -28.181  -3.066 -16.800  1.00 35.49    -0.235 N 
ATOM      8  NH2 ARG D 557     -26.412  -2.763 -15.409  1.00 35.49    -0.235 N 
ATOM      9  HH  ARG D 557     -28.842  -2.762 -17.254  1.00 35.49     0.174 HD
ATOM     10  HH  ARG D 557     -28.009  -3.905 -16.802  1.00 35.49     0.174 HD
ATOM     11  HH  ARG D 557     -25.925  -2.224 -14.962  1.00 35.49     0.174 HD
ATOM     12  HH  ARG D 557     -26.257  -3.596 -15.425  1.00 35.49     0.174 HD
ATOM     13  HE  ARG D 557     -27.097  -0.544 -15.485  1.00 35.49     0.178 HD
ENDBRANCH   4   5
ENDBRANCH   3   4
ENDBRANCH   2   3
ENDBRANCH   1   2
END_RES ARG D 557
BEGIN_RES GLU D 570
REMARK  3 active torsions:
REMARK  status: ('A' for Active; 'I' for Inactive)
REMARK    5  A    between atoms: CA   and  CB  
REMARK    6  A    between atoms: CB   and  CG  
REMARK    7  A    between atoms: CG   and  CD  
ROOT
ATOM     14  CA  GLU D 570     -18.033  -6.348 -13.375  1.00 32.92     0.160 C 
ENDROOT
BRANCH  14  15
ATOM     15  CB  GLU D 570     -19.500  -6.345 -13.794  1.00 32.92     0.043 C 
BRANCH  15  16
ATOM     16  CG  GLU D 570     -20.440  -5.522 -12.990  1.00 32.92     0.100 C 
BRANCH  16  17
ATOM     17  CD  GLU D 570     -21.710  -5.181 -13.734  1.00 32.92     0.185 C 
ATOM     18  OE1 GLU D 570     -21.646  -4.916 -14.950  1.00 32.92    -0.647 OA
ATOM     19  OE2 GLU D 570     -22.777  -5.161 -13.091  1.00 32.92    -0.647 OA
ENDBRANCH  16  17
ENDBRANCH  15  16
ENDBRANCH  14  15
END_RES GLU D 570
ENDMDL
MODEL 8
REMARK VINA RESULT:      -2.9      5.316      5.637
REMARK  1 active torsions:
REMARK  status: ('A' for Active; 'I' for Inactive)
REMARK    1  A    between atoms: C_2  and  O_4 
ROOT
HETATM    1  C   UNL     1     -33.287  -4.543 -11.355  1.00  0.00     0.125 C 
HETATM    2  C   UNL     1     -34.217  -5.710 -11.220  1.00  0.00     0.135 C 
HETATM    3  O   UNL     1     -34.443  -6.292 -10.172  1.00  0.00    -0.650 OA
ENDROOT
BRANCH   2   4
HETATM    4  O   UNL     1     -34.792  -6.062 -12.392  1.00  0.00    -0.777 OA
HETATM    5  H   UNL     1     -35.736  -5.826 -12.453  1.00  0.00     0.167 HD
ENDBRANCH   2   4
TORSDOF 1
BEGIN_RES ARG D 557
REMARK  4 active torsions:
REMARK  status: ('A' for Active; 'I' for Inactive)
REMARK    1  A    between atoms: CA   and  CB  
REMARK    2  A    between atoms: CB   and  CG  
REMARK    3  A    between atoms: CG   and  CD  
REMARK    4  A    between atoms: CD   and  NE  
REMARK       I    between atoms: NE   and  CZ  
REMARK       I    between atoms: CZ   and  NH1 
REMARK       I    between atoms: CZ   and  NH2 
ROOT
ATOM      1  CA  ARG D 557     -26.217   2.705 -17.014  1.00 35.49     0.159 C 
ENDROOT
BRANCH   1   2
ATOM      2  CB  ARG D 557     -26.789   1.319 -17.183  1.00 35.49     0.034 C 
BRANCH   2   3
ATOM      3  CG  ARG D 557     -25.835   0.203 -17.162  1.00 35.49     0.027 C 
BRANCH   3   4
ATOM      4  CD  ARG D 557     -24.748   0.409 -16.178  1.00 35.49     0.116 C 
BRANCH   4   5
ATOM      5  NE  ARG D 557     -24.897  -0.434 -15.021  1.00 35.49    -0.212 N 
ATOM      6  CZ  ARG D 557     -24.085  -1.405 -14.668  1.00 35.49     0.666 C 
ATOM      7  NH1 ARG D 557     -23.016  -1.727 -15.374  1.00 35.49    -0.235 N 
ATOM      8  NH2 ARG D 557     -24.363  -2.053 -13.574  1.00 35.49    -0.235 N 
ATOM      9  HH  ARG D 557     -22.813  -1.312 -16.095  1.00 35.49     0.174 HD
ATOM     10  HH  ARG D 557     -22.521  -2.368 -15.093  1.00 35.49     0.174 HD
ATOM     11  HH  ARG D 557     -25.055  -1.818 -13.135  1.00 35.49     0.174 HD
ATOM     12  HH  ARG D 557     -23.860  -2.683 -13.313  1.00 35.49     0.174 HD
ATOM     13  HE  ARG D 557     -25.598  -0.343 -14.548  1.00 35.49     0.178 HD
ENDBRANCH   4   5
ENDBRANCH   3   4
ENDBRANCH   2   3
ENDBRANCH   1   2
END_RES ARG D 557
BEGIN_RES GLU D 570
REMARK  3 active torsions:
REMARK  status: ('A' for Active; 'I' for Inactive)
REMARK    5  A    between atoms: CA   and  CB  
REMARK    6  A    between atoms: CB   and  CG  
REMARK    7  A    between atoms: CG   and  CD  
ROOT
ATOM     14  CA  GLU D 570     -18.033  -6.348 -13.375  1.00 32.92     0.160 C 
ENDROOT
BRANCH  14  15
ATOM     15  CB  GLU D 570     -19.500  -6.345 -13.794  1.00 32.92     0.043 C 
BRANCH  15  16
ATOM     16  CG  GLU D 570     -20.441  -5.529 -12.985  1.00 32.92     0.100 C 
BRANCH  16  17
ATOM     17  CD  GLU D 570     -21.736  -5.234 -13.706  1.00 32.92     0.185 C 
ATOM     18  OE1 GLU D 570     -22.317  -4.153 -13.490  1.00 32.92    -0.647 OA
ATOM     19  OE2 GLU D 570     -22.183  -6.101 -14.483  1.00 32.92    -0.647 OA
ENDBRANCH  16  17
ENDBRANCH  15  16
ENDBRANCH  14  15
END_RES GLU D 570
ENDMDL
MODEL 9
REMARK VINA RESULT:      -2.8      4.903      5.500
REMARK  1 active torsions:
REMARK  status: ('A' for Active; 'I' for Inactive)
REMARK    1  A    between atoms: C_2  and  O_4 
ROOT
HETATM    1  C   UNL     1     -26.804   7.197 -11.011  1.00  0.00     0.125 C 
HETATM    2  C   UNL     1     -25.496   6.494 -10.807  1.00  0.00     0.135 C 
HETATM    3  O   UNL     1     -24.410   6.959 -11.112  1.00  0.00    -0.650 OA
ENDROOT
BRANCH   2   4
HETATM    4  O   UNL     1     -25.638   5.275 -10.241  1.00  0.00    -0.777 OA
HETATM    5  H   UNL     1     -26.052   4.616 -10.828  1.00  0.00     0.167 HD
ENDBRANCH   2   4
TORSDOF 1
BEGIN_RES ARG D 557
REMARK  4 active torsions:
REMARK  status: ('A' for Active; 'I' for Inactive)
REMARK    1  A    between atoms: CA   and  CB  
REMARK    2  A    between atoms: CB   and  CG  
REMARK    3  A    between atoms: CG   and  CD  
REMARK    4  A    between atoms: CD   and  NE  
REMARK       I    between atoms: NE   and  CZ  
REMARK       I    between atoms: CZ   and  NH1 
REMARK       I    between atoms: CZ   and  NH2 
ROOT
ATOM      1  CA  ARG D 557     -26.217   2.705 -17.014  1.00 35.49     0.159 C 
ENDROOT
BRANCH   1   2
ATOM      2  CB  ARG D 557     -26.789   1.319 -17.183  1.00 35.49     0.034 C 
BRANCH   2   3
ATOM      3  CG  ARG D 557     -25.861   0.195 -17.008  1.00 35.49     0.027 C 
BRANCH   3   4
ATOM      4  CD  ARG D 557     -26.253  -0.692 -15.889  1.00 35.49     0.116 C 
BRANCH   4   5
ATOM      5  NE  ARG D 557     -25.182  -0.883 -14.948  1.00 35.49    -0.212 N 
ATOM      6  CZ  ARG D 557     -24.865  -2.018 -14.365  1.00 35.49     0.666 C 
ATOM      7  NH1 ARG D 557     -25.531  -3.137 -14.583  1.00 35.49    -0.235 N 
ATOM      8  NH2 ARG D 557     -23.848  -2.012 -13.553  1.00 35.49    -0.235 N 
ATOM      9  HH  ARG D 557     -26.202  -3.164 -15.115  1.00 35.49     0.174 HD
ATOM     10  HH  ARG D 557     -25.276  -3.847 -14.177  1.00 35.49     0.174 HD
ATOM     11  HH  ARG D 557     -23.432  -1.277 -13.438  1.00 35.49     0.174 HD
ATOM     12  HH  ARG D 557     -23.610  -2.726 -13.162  1.00 35.49     0.174 HD
ATOM     13  HE  ARG D 557     -24.746  -0.199 -14.694  1.00 35.49     0.178 HD
ENDBRANCH   4   5
ENDBRANCH   3   4
ENDBRANCH   2   3
ENDBRANCH   1   2
END_RES ARG D 557
BEGIN_RES GLU D 570
REMARK  3 active torsions:
REMARK  status: ('A' for Active; 'I' for Inactive)
REMARK    5  A    between atoms: CA   and  CB  
REMARK    6  A    between atoms: CB   and  CG  
REMARK    7  A    between atoms: CG   and  CD  
ROOT
ATOM     14  CA  GLU D 570     -18.033  -6.348 -13.375  1.00 32.92     0.160 C 
ENDROOT
BRANCH  14  15
ATOM     15  CB  GLU D 570     -19.500  -6.345 -13.794  1.00 32.92     0.043 C 
BRANCH  15  16
ATOM     16  CG  GLU D 570     -20.446  -5.551 -12.968  1.00 32.92     0.100 C 
BRANCH  16  17
ATOM     17  CD  GLU D 570     -21.676  -5.120 -13.732  1.00 32.92     0.185 C 
ATOM     18  OE1 GLU D 570     -22.716  -4.848 -13.101  1.00 32.92    -0.647 OA
ATOM     19  OE2 GLU D 570     -21.605  -5.069 -14.975  1.00 32.92    -0.647 OA
ENDBRANCH  16  17
ENDBRANCH  15  16
ENDBRANCH  14  15
END_RES GLU D 570
ENDMDL
