MODEL 1
REMARK VINA RESULT:      -6.5      0.000      0.000
REMARK  2 active torsions:
REMARK  status: ('A' for Active; 'I' for Inactive)
REMARK    1  A    between atoms: C_5  and  C_9 
REMARK    2  A    between atoms: C_6  and  O_8 
ROOT
HETATM    1  C   UNL     1     -21.359  -4.069  -8.788  1.00  0.00     0.010 C 
HETATM    2  C   UNL     1     -21.901  -4.736 -10.058  1.00  0.00    -0.016 C 
HETATM    3  C   UNL     1     -21.270  -4.123 -11.319  1.00  0.00     0.005 C 
HETATM    4  C   UNL     1     -21.851  -2.752 -11.677  1.00  0.00     0.008 C 
HETATM    5  C   UNL     1     -23.391  -2.782 -11.823  1.00  0.00     0.018 C 
HETATM    6  C   UNL     1     -23.957  -3.280 -10.471  1.00  0.00     0.122 C 
HETATM    7  C   UNL     1     -23.436  -4.675 -10.109  1.00  0.00     0.036 C 
ENDROOT
BRANCH   5   8
HETATM    8  C   UNL     1     -23.856  -3.575 -13.094  1.00  0.00    -0.016 C 
HETATM    9  C   UNL     1     -25.150  -3.037 -13.717  1.00  0.00     0.010 C 
HETATM   10  C   UNL     1     -22.777  -3.575 -14.189  1.00  0.00     0.010 C 
ENDBRANCH   5   8
BRANCH   6  11
HETATM   11  O   UNL     1     -25.376  -3.225 -10.433  1.00  0.00    -0.395 OA
HETATM   12  H   UNL     1     -25.646  -2.458  -9.900  1.00  0.00     0.210 HD
ENDBRANCH   6  11
TORSDOF 2
BEGIN_RES ARG D 557
REMARK  4 active torsions:
REMARK  status: ('A' for Active; 'I' for Inactive)
REMARK    1  A    between atoms: CA   and  CB  
REMARK    2  A    between atoms: CB   and  CG  
REMARK    3  A    between atoms: CG   and  CD  
REMARK    4  A    between atoms: CD   and  NE  
REMARK       I    between atoms: NE   and  CZ  
REMARK       I    between atoms: CZ   and  NH1 
REMARK       I    between atoms: CZ   and  NH2 
ROOT
ATOM      1  CA  ARG D 557     -26.217   2.705 -17.014  1.00 35.49     0.159 C 
ENDROOT
BRANCH   1   2
ATOM      2  CB  ARG D 557     -26.789   1.319 -17.183  1.00 35.49     0.034 C 
BRANCH   2   3
ATOM      3  CG  ARG D 557     -28.230   1.227 -17.446  1.00 35.49     0.027 C 
BRANCH   3   4
ATOM      4  CD  ARG D 557     -28.918   0.311 -16.507  1.00 35.49     0.116 C 
BRANCH   4   5
ATOM      5  NE  ARG D 557     -29.321  -0.916 -17.143  1.00 35.49    -0.212 N 
ATOM      6  CZ  ARG D 557     -28.702  -2.071 -17.046  1.00 35.49     0.666 C 
ATOM      7  NH1 ARG D 557     -27.598  -2.227 -16.340  1.00 35.49    -0.235 N 
ATOM      8  NH2 ARG D 557     -29.222  -3.085 -17.675  1.00 35.49    -0.235 N 
ATOM      9  HH  ARG D 557     -27.239  -1.574 -15.917  1.00 35.49     0.174 HD
ATOM     10  HH  ARG D 557     -27.239  -3.005 -16.311  1.00 35.49     0.174 HD
ATOM     11  HH  ARG D 557     -29.940  -2.957 -18.117  1.00 35.49     0.174 HD
ATOM     12  HH  ARG D 557     -28.853  -3.847 -17.632  1.00 35.49     0.174 HD
ATOM     13  HE  ARG D 557     -29.983  -0.890 -17.677  1.00 35.49     0.178 HD
ENDBRANCH   4   5
ENDBRANCH   3   4
ENDBRANCH   2   3
ENDBRANCH   1   2
END_RES ARG D 557
BEGIN_RES GLU D 570
REMARK  3 active torsions:
REMARK  status: ('A' for Active; 'I' for Inactive)
REMARK    5  A    between atoms: CA   and  CB  
REMARK    6  A    between atoms: CB   and  CG  
REMARK    7  A    between atoms: CG   and  CD  
ROOT
ATOM     14  CA  GLU D 570     -18.033  -6.348 -13.375  1.00 32.92     0.160 C 
ENDROOT
BRANCH  14  15
ATOM     15  CB  GLU D 570     -19.500  -6.345 -13.794  1.00 32.92     0.043 C 
BRANCH  15  16
ATOM     16  CG  GLU D 570     -20.104  -7.646 -14.182  1.00 32.92     0.100 C 
BRANCH  16  17
ATOM     17  CD  GLU D 570     -20.703  -7.627 -15.569  1.00 32.92     0.185 C 
ATOM     18  OE1 GLU D 570     -21.145  -6.555 -16.023  1.00 32.92    -0.647 OA
ATOM     19  OE2 GLU D 570     -20.746  -8.701 -16.201  1.00 32.92    -0.647 OA
ENDBRANCH  16  17
ENDBRANCH  15  16
ENDBRANCH  14  15
END_RES GLU D 570
ENDMDL
MODEL 2
REMARK VINA RESULT:      -6.5      1.400      3.154
REMARK  2 active torsions:
REMARK  status: ('A' for Active; 'I' for Inactive)
REMARK    1  A    between atoms: C_5  and  C_9 
REMARK    2  A    between atoms: C_6  and  O_8 
ROOT
HETATM    1  C   UNL     1     -23.233  -3.277 -13.463  1.00  0.00     0.010 C 
HETATM    2  C   UNL     1     -22.948  -2.637 -12.099  1.00  0.00    -0.016 C 
HETATM    3  C   UNL     1     -21.544  -3.006 -11.596  1.00  0.00     0.005 C 
HETATM    4  C   UNL     1     -21.457  -4.436 -11.050  1.00  0.00     0.008 C 
HETATM    5  C   UNL     1     -22.499  -4.710  -9.942  1.00  0.00     0.018 C 
HETATM    6  C   UNL     1     -23.892  -4.446 -10.565  1.00  0.00     0.122 C 
HETATM    7  C   UNL     1     -24.031  -3.007 -11.073  1.00  0.00     0.036 C 
ENDROOT
BRANCH   5   8
HETATM    8  C   UNL     1     -22.183  -3.932  -8.617  1.00  0.00    -0.016 C 
HETATM    9  C   UNL     1     -22.959  -4.448  -7.399  1.00  0.00     0.010 C 
HETATM   10  C   UNL     1     -20.686  -3.984  -8.272  1.00  0.00     0.010 C 
ENDBRANCH   5   8
BRANCH   6  11
HETATM   11  O   UNL     1     -24.948  -4.794  -9.680  1.00  0.00    -0.395 OA
HETATM   12  H   UNL     1     -25.638  -5.258 -10.183  1.00  0.00     0.210 HD
ENDBRANCH   6  11
TORSDOF 2
BEGIN_RES ARG D 557
REMARK  4 active torsions:
REMARK  status: ('A' for Active; 'I' for Inactive)
REMARK    1  A    between atoms: CA   and  CB  
REMARK    2  A    between atoms: CB   and  CG  
REMARK    3  A    between atoms: CG   and  CD  
REMARK    4  A    between atoms: CD   and  NE  
REMARK       I    between atoms: NE   and  CZ  
REMARK       I    between atoms: CZ   and  NH1 
REMARK       I    between atoms: CZ   and  NH2 
ROOT
ATOM      1  CA  ARG D 557     -26.217   2.705 -17.014  1.00 35.49     0.159 C 
ENDROOT
BRANCH   1   2
ATOM      2  CB  ARG D 557     -26.789   1.319 -17.183  1.00 35.49     0.034 C 
BRANCH   2   3
ATOM      3  CG  ARG D 557     -28.229   1.165 -16.942  1.00 35.49     0.027 C 
BRANCH   3   4
ATOM      4  CD  ARG D 557     -28.610  -0.243 -16.686  1.00 35.49     0.116 C 
BRANCH   4   5
ATOM      5  NE  ARG D 557     -27.582  -0.964 -15.982  1.00 35.49    -0.212 N 
ATOM      6  CZ  ARG D 557     -27.368  -2.259 -16.051  1.00 35.49     0.666 C 
ATOM      7  NH1 ARG D 557     -28.111  -3.063 -16.790  1.00 35.49    -0.235 N 
ATOM      8  NH2 ARG D 557     -26.376  -2.741 -15.361  1.00 35.49    -0.235 N 
ATOM      9  HH  ARG D 557     -28.767  -2.767 -17.254  1.00 35.49     0.174 HD
ATOM     10  HH  ARG D 557     -27.922  -3.898 -16.798  1.00 35.49     0.174 HD
ATOM     11  HH  ARG D 557     -25.909  -2.197 -14.898  1.00 35.49     0.174 HD
ATOM     12  HH  ARG D 557     -26.204  -3.571 -15.383  1.00 35.49     0.174 HD
ATOM     13  HE  ARG D 557     -27.103  -0.535 -15.427  1.00 35.49     0.178 HD
ENDBRANCH   4   5
ENDBRANCH   3   4
ENDBRANCH   2   3
ENDBRANCH   1   2
END_RES ARG D 557
BEGIN_RES GLU D 570
REMARK  3 active torsions:
REMARK  status: ('A' for Active; 'I' for Inactive)
REMARK    5  A    between atoms: CA   and  CB  
REMARK    6  A    between atoms: CB   and  CG  
REMARK    7  A    between atoms: CG   and  CD  
ROOT
ATOM     14  CA  GLU D 570     -18.033  -6.348 -13.375  1.00 32.92     0.160 C 
ENDROOT
BRANCH  14  15
ATOM     15  CB  GLU D 570     -19.500  -6.345 -13.794  1.00 32.92     0.043 C 
BRANCH  15  16
ATOM     16  CG  GLU D 570     -19.808  -6.001 -15.206  1.00 32.92     0.100 C 
BRANCH  16  17
ATOM     17  CD  GLU D 570     -21.278  -5.745 -15.443  1.00 32.92     0.185 C 
ATOM     18  OE1 GLU D 570     -21.615  -4.876 -16.270  1.00 32.92    -0.647 OA
ATOM     19  OE2 GLU D 570     -22.101  -6.408 -14.783  1.00 32.92    -0.647 OA
ENDBRANCH  16  17
ENDBRANCH  15  16
ENDBRANCH  14  15
END_RES GLU D 570
ENDMDL
MODEL 3
REMARK VINA RESULT:      -6.2      2.757      3.945
REMARK  2 active torsions:
REMARK  status: ('A' for Active; 'I' for Inactive)
REMARK    1  A    between atoms: C_5  and  C_9 
REMARK    2  A    between atoms: C_6  and  O_8 
ROOT
HETATM    1  C   UNL     1     -20.128  -4.833  -5.173  1.00  0.00     0.010 C 
HETATM    2  C   UNL     1     -20.371  -5.566  -6.498  1.00  0.00    -0.016 C 
HETATM    3  C   UNL     1     -19.506  -4.978  -7.624  1.00  0.00     0.005 C 
HETATM    4  C   UNL     1     -20.036  -3.642  -8.155  1.00  0.00     0.008 C 
HETATM    5  C   UNL     1     -21.508  -3.734  -8.620  1.00  0.00     0.018 C 
HETATM    6  C   UNL     1     -22.333  -4.201  -7.396  1.00  0.00     0.122 C 
HETATM    7  C   UNL     1     -21.862  -5.562  -6.872  1.00  0.00     0.036 C 
ENDROOT
BRANCH   5   8
HETATM    8  C   UNL     1     -21.672  -4.589  -9.924  1.00  0.00    -0.016 C 
HETATM    9  C   UNL     1     -22.986  -4.329 -10.671  1.00  0.00     0.010 C 
HETATM   10  C   UNL     1     -20.520  -4.344 -10.911  1.00  0.00     0.010 C 
ENDBRANCH   5   8
BRANCH   6  11
HETATM   11  O   UNL     1     -23.729  -4.196  -7.659  1.00  0.00    -0.395 OA
HETATM   12  H   UNL     1     -23.872  -4.398  -8.599  1.00  0.00     0.210 HD
ENDBRANCH   6  11
TORSDOF 2
BEGIN_RES ARG D 557
REMARK  4 active torsions:
REMARK  status: ('A' for Active; 'I' for Inactive)
REMARK    1  A    between atoms: CA   and  CB  
REMARK    2  A    between atoms: CB   and  CG  
REMARK    3  A    between atoms: CG   and  CD  
REMARK    4  A    between atoms: CD   and  NE  
REMARK       I    between atoms: NE   and  CZ  
REMARK       I    between atoms: CZ   and  NH1 
REMARK       I    between atoms: CZ   and  NH2 
ROOT
ATOM      1  CA  ARG D 557     -26.217   2.705 -17.014  1.00 35.49     0.159 C 
ENDROOT
BRANCH   1   2
ATOM      2  CB  ARG D 557     -26.789   1.319 -17.183  1.00 35.49     0.034 C 
BRANCH   2   3
ATOM      3  CG  ARG D 557     -25.839   0.201 -17.133  1.00 35.49     0.027 C 
BRANCH   3   4
ATOM      4  CD  ARG D 557     -24.757   0.424 -16.146  1.00 35.49     0.116 C 
BRANCH   4   5
ATOM      5  NE  ARG D 557     -24.874  -0.450 -15.008  1.00 35.49    -0.212 N 
ATOM      6  CZ  ARG D 557     -24.040  -1.416 -14.693  1.00 35.49     0.666 C 
ATOM      7  NH1 ARG D 557     -22.979  -1.703 -15.424  1.00 35.49    -0.235 N 
ATOM      8  NH2 ARG D 557     -24.290  -2.096 -13.612  1.00 35.49    -0.235 N 
ATOM      9  HH  ARG D 557     -22.794  -1.268 -16.139  1.00 35.49     0.174 HD
ATOM     10  HH  ARG D 557     -22.469  -2.343 -15.168  1.00 35.49     0.174 HD
ATOM     11  HH  ARG D 557     -24.979  -1.883 -13.156  1.00 35.49     0.174 HD
ATOM     12  HH  ARG D 557     -23.773  -2.724 -13.374  1.00 35.49     0.174 HD
ATOM     13  HE  ARG D 557     -25.568  -0.383 -14.522  1.00 35.49     0.178 HD
ENDBRANCH   4   5
ENDBRANCH   3   4
ENDBRANCH   2   3
ENDBRANCH   1   2
END_RES ARG D 557
BEGIN_RES GLU D 570
REMARK  3 active torsions:
REMARK  status: ('A' for Active; 'I' for Inactive)
REMARK    5  A    between atoms: CA   and  CB  
REMARK    6  A    between atoms: CB   and  CG  
REMARK    7  A    between atoms: CG   and  CD  
ROOT
ATOM     14  CA  GLU D 570     -18.033  -6.348 -13.375  1.00 32.92     0.160 C 
ENDROOT
BRANCH  14  15
ATOM     15  CB  GLU D 570     -19.500  -6.345 -13.794  1.00 32.92     0.043 C 
BRANCH  15  16
ATOM     16  CG  GLU D 570     -19.821  -5.851 -15.158  1.00 32.92     0.100 C 
BRANCH  16  17
ATOM     17  CD  GLU D 570     -21.301  -5.636 -15.373  1.00 32.92     0.185 C 
ATOM     18  OE1 GLU D 570     -21.701  -4.523 -15.766  1.00 32.92    -0.647 OA
ATOM     19  OE2 GLU D 570     -22.071  -6.586 -15.130  1.00 32.92    -0.647 OA
ENDBRANCH  16  17
ENDBRANCH  15  16
ENDBRANCH  14  15
END_RES GLU D 570
ENDMDL
MODEL 4
REMARK VINA RESULT:      -6.2      3.684      7.108
REMARK  2 active torsions:
REMARK  status: ('A' for Active; 'I' for Inactive)
REMARK    1  A    between atoms: C_5  and  C_9 
REMARK    2  A    between atoms: C_6  and  O_8 
ROOT
HETATM    1  C   UNL     1     -30.554  -7.629 -18.411  1.00  0.00     0.010 C 
HETATM    2  C   UNL     1     -30.408  -6.653 -17.238  1.00  0.00    -0.016 C 
HETATM    3  C   UNL     1     -30.445  -5.194 -17.722  1.00  0.00     0.005 C 
HETATM    4  C   UNL     1     -29.137  -4.746 -18.382  1.00  0.00     0.008 C 
HETATM    5  C   UNL     1     -27.909  -4.963 -17.468  1.00  0.00     0.018 C 
HETATM    6  C   UNL     1     -27.863  -6.474 -17.135  1.00  0.00     0.122 C 
HETATM    7  C   UNL     1     -29.137  -6.945 -16.424  1.00  0.00     0.036 C 
ENDROOT
BRANCH   5   8
HETATM    8  C   UNL     1     -27.898  -3.990 -16.238  1.00  0.00    -0.016 C 
HETATM    9  C   UNL     1     -26.585  -4.010 -15.447  1.00  0.00     0.010 C 
HETATM   10  C   UNL     1     -28.164  -2.537 -16.663  1.00  0.00     0.010 C 
ENDBRANCH   5   8
BRANCH   6  11
HETATM   11  O   UNL     1     -26.696  -6.826 -16.405  1.00  0.00    -0.395 OA
HETATM   12  H   UNL     1     -25.916  -6.638 -16.953  1.00  0.00     0.210 HD
ENDBRANCH   6  11
TORSDOF 2
BEGIN_RES ARG D 557
REMARK  4 active torsions:
REMARK  status: ('A' for Active; 'I' for Inactive)
REMARK    1  A    between atoms: CA   and  CB  
REMARK    2  A    between atoms: CB   and  CG  
REMARK    3  A    between atoms: CG   and  CD  
REMARK    4  A    between atoms: CD   and  NE  
REMARK       I    between atoms: NE   and  CZ  
REMARK       I    between atoms: CZ   and  NH1 
REMARK       I    between atoms: CZ   and  NH2 
ROOT
ATOM      1  CA  ARG D 557     -26.217   2.705 -17.014  1.00 35.49     0.159 C 
ENDROOT
BRANCH   1   2
ATOM      2  CB  ARG D 557     -26.789   1.319 -17.183  1.00 35.49     0.034 C 
BRANCH   2   3
ATOM      3  CG  ARG D 557     -25.835   0.203 -17.158  1.00 35.49     0.027 C 
BRANCH   3   4
ATOM      4  CD  ARG D 557     -24.736   0.421 -16.190  1.00 35.49     0.116 C 
BRANCH   4   5
ATOM      5  NE  ARG D 557     -24.867  -0.412 -15.024  1.00 35.49    -0.212 N 
ATOM      6  CZ  ARG D 557     -24.049  -1.379 -14.675  1.00 35.49     0.666 C 
ATOM      7  NH1 ARG D 557     -22.991  -1.706 -15.394  1.00 35.49    -0.235 N 
ATOM      8  NH2 ARG D 557     -24.310  -2.018 -13.572  1.00 35.49    -0.235 N 
ATOM      9  HH  ARG D 557     -22.798  -1.297 -16.122  1.00 35.49     0.174 HD
ATOM     10  HH  ARG D 557     -22.491  -2.344 -15.115  1.00 35.49     0.174 HD
ATOM     11  HH  ARG D 557     -24.996  -1.780 -13.125  1.00 35.49     0.174 HD
ATOM     12  HH  ARG D 557     -23.803  -2.646 -13.312  1.00 35.49     0.174 HD
ATOM     13  HE  ARG D 557     -25.562  -0.318 -14.542  1.00 35.49     0.178 HD
ENDBRANCH   4   5
ENDBRANCH   3   4
ENDBRANCH   2   3
ENDBRANCH   1   2
END_RES ARG D 557
BEGIN_RES GLU D 570
REMARK  3 active torsions:
REMARK  status: ('A' for Active; 'I' for Inactive)
REMARK    5  A    between atoms: CA   and  CB  
REMARK    6  A    between atoms: CB   and  CG  
REMARK    7  A    between atoms: CG   and  CD  
ROOT
ATOM     14  CA  GLU D 570     -18.033  -6.348 -13.375  1.00 32.92     0.160 C 
ENDROOT
BRANCH  14  15
ATOM     15  CB  GLU D 570     -19.500  -6.345 -13.794  1.00 32.92     0.043 C 
BRANCH  15  16
ATOM     16  CG  GLU D 570     -20.440  -5.522 -12.990  1.00 32.92     0.100 C 
BRANCH  16  17
ATOM     17  CD  GLU D 570     -21.743  -5.248 -13.704  1.00 32.92     0.185 C 
ATOM     18  OE1 GLU D 570     -22.223  -6.127 -14.445  1.00 32.92    -0.647 OA
ATOM     19  OE2 GLU D 570     -22.281  -4.137 -13.534  1.00 32.92    -0.647 OA
ENDBRANCH  16  17
ENDBRANCH  15  16
ENDBRANCH  14  15
END_RES GLU D 570
ENDMDL
MODEL 5
REMARK VINA RESULT:      -6.0      1.986      3.175
REMARK  2 active torsions:
REMARK  status: ('A' for Active; 'I' for Inactive)
REMARK    1  A    between atoms: C_5  and  C_9 
REMARK    2  A    between atoms: C_6  and  O_8 
ROOT
HETATM    1  C   UNL     1     -20.161  -4.838  -5.225  1.00  0.00     0.010 C 
HETATM    2  C   UNL     1     -20.402  -5.559  -6.556  1.00  0.00    -0.016 C 
HETATM    3  C   UNL     1     -19.534  -4.961  -7.675  1.00  0.00     0.005 C 
HETATM    4  C   UNL     1     -20.064  -3.621  -8.196  1.00  0.00     0.008 C 
HETATM    5  C   UNL     1     -21.535  -3.708  -8.664  1.00  0.00     0.018 C 
HETATM    6  C   UNL     1     -22.362  -4.187  -7.446  1.00  0.00     0.122 C 
HETATM    7  C   UNL     1     -21.892  -5.552  -6.933  1.00  0.00     0.036 C 
ENDROOT
BRANCH   5   8
HETATM    8  C   UNL     1     -21.697  -4.552  -9.976  1.00  0.00    -0.016 C 
HETATM    9  C   UNL     1     -22.992  -4.257 -10.743  1.00  0.00     0.010 C 
HETATM   10  C   UNL     1     -20.523  -4.328 -10.943  1.00  0.00     0.010 C 
ENDBRANCH   5   8
BRANCH   6  11
HETATM   11  O   UNL     1     -23.758  -4.179  -7.711  1.00  0.00    -0.395 OA
HETATM   12  H   UNL     1     -24.106  -5.078  -7.584  1.00  0.00     0.210 HD
ENDBRANCH   6  11
TORSDOF 2
BEGIN_RES ARG D 557
REMARK  4 active torsions:
REMARK  status: ('A' for Active; 'I' for Inactive)
REMARK    1  A    between atoms: CA   and  CB  
REMARK    2  A    between atoms: CB   and  CG  
REMARK    3  A    between atoms: CG   and  CD  
REMARK    4  A    between atoms: CD   and  NE  
REMARK       I    between atoms: NE   and  CZ  
REMARK       I    between atoms: CZ   and  NH1 
REMARK       I    between atoms: CZ   and  NH2 
ROOT
ATOM      1  CA  ARG D 557     -26.217   2.705 -17.014  1.00 35.49     0.159 C 
ENDROOT
BRANCH   1   2
ATOM      2  CB  ARG D 557     -26.789   1.319 -17.183  1.00 35.49     0.034 C 
BRANCH   2   3
ATOM      3  CG  ARG D 557     -28.222   1.157 -16.907  1.00 35.49     0.027 C 
BRANCH   3   4
ATOM      4  CD  ARG D 557     -28.605  -0.261 -16.727  1.00 35.49     0.116 C 
BRANCH   4   5
ATOM      5  NE  ARG D 557     -27.596  -1.011 -16.026  1.00 35.49    -0.212 N 
ATOM      6  CZ  ARG D 557     -27.418  -2.311 -16.096  1.00 35.49     0.666 C 
ATOM      7  NH1 ARG D 557     -28.185  -3.094 -16.833  1.00 35.49    -0.235 N 
ATOM      8  NH2 ARG D 557     -26.438  -2.821 -15.408  1.00 35.49    -0.235 N 
ATOM      9  HH  ARG D 557     -28.834  -2.779 -17.295  1.00 35.49     0.174 HD
ATOM     10  HH  ARG D 557     -28.020  -3.934 -16.841  1.00 35.49     0.174 HD
ATOM     11  HH  ARG D 557     -25.955  -2.291 -14.947  1.00 35.49     0.174 HD
ATOM     12  HH  ARG D 557     -26.290  -3.655 -15.431  1.00 35.49     0.174 HD
ATOM     13  HE  ARG D 557     -27.103  -0.596 -15.472  1.00 35.49     0.178 HD
ENDBRANCH   4   5
ENDBRANCH   3   4
ENDBRANCH   2   3
ENDBRANCH   1   2
END_RES ARG D 557
BEGIN_RES GLU D 570
REMARK  3 active torsions:
REMARK  status: ('A' for Active; 'I' for Inactive)
REMARK    5  A    between atoms: CA   and  CB  
REMARK    6  A    between atoms: CB   and  CG  
REMARK    7  A    between atoms: CG   and  CD  
ROOT
ATOM     14  CA  GLU D 570     -18.033  -6.348 -13.375  1.00 32.92     0.160 C 
ENDROOT
BRANCH  14  15
ATOM     15  CB  GLU D 570     -19.500  -6.345 -13.794  1.00 32.92     0.043 C 
BRANCH  15  16
ATOM     16  CG  GLU D 570     -19.809  -5.987 -15.203  1.00 32.92     0.100 C 
BRANCH  16  17
ATOM     17  CD  GLU D 570     -21.143  -5.294 -15.356  1.00 32.92     0.185 C 
ATOM     18  OE1 GLU D 570     -21.807  -5.028 -14.336  1.00 32.92    -0.647 OA
ATOM     19  OE2 GLU D 570     -21.535  -5.029 -16.509  1.00 32.92    -0.647 OA
ENDBRANCH  16  17
ENDBRANCH  15  16
ENDBRANCH  14  15
END_RES GLU D 570
ENDMDL
MODEL 6
REMARK VINA RESULT:      -5.7      1.254      2.964
REMARK  2 active torsions:
REMARK  status: ('A' for Active; 'I' for Inactive)
REMARK    1  A    between atoms: C_5  and  C_9 
REMARK    2  A    between atoms: C_6  and  O_8 
ROOT
HETATM    1  C   UNL     1     -24.756  -3.677 -14.463  1.00  0.00     0.010 C 
HETATM    2  C   UNL     1     -23.562  -3.080 -13.709  1.00  0.00    -0.016 C 
HETATM    3  C   UNL     1     -22.437  -4.114 -13.544  1.00  0.00     0.005 C 
HETATM    4  C   UNL     1     -22.728  -5.151 -12.455  1.00  0.00     0.008 C 
HETATM    5  C   UNL     1     -23.045  -4.499 -11.088  1.00  0.00     0.018 C 
HETATM    6  C   UNL     1     -24.269  -3.578 -11.308  1.00  0.00     0.122 C 
HETATM    7  C   UNL     1     -23.993  -2.494 -12.355  1.00  0.00     0.036 C 
ENDROOT
BRANCH   5   8
HETATM    8  C   UNL     1     -21.786  -3.823 -10.441  1.00  0.00    -0.016 C 
HETATM    9  C   UNL     1     -21.756  -3.915  -8.911  1.00  0.00     0.010 C 
HETATM   10  C   UNL     1     -20.479  -4.435 -10.970  1.00  0.00     0.010 C 
ENDBRANCH   5   8
BRANCH   6  11
HETATM   11  O   UNL     1     -24.744  -3.021 -10.090  1.00  0.00    -0.395 OA
HETATM   12  H   UNL     1     -24.282  -3.447  -9.349  1.00  0.00     0.210 HD
ENDBRANCH   6  11
TORSDOF 2
BEGIN_RES ARG D 557
REMARK  4 active torsions:
REMARK  status: ('A' for Active; 'I' for Inactive)
REMARK    1  A    between atoms: CA   and  CB  
REMARK    2  A    between atoms: CB   and  CG  
REMARK    3  A    between atoms: CG   and  CD  
REMARK    4  A    between atoms: CD   and  NE  
REMARK       I    between atoms: NE   and  CZ  
REMARK       I    between atoms: CZ   and  NH1 
REMARK       I    between atoms: CZ   and  NH2 
ROOT
ATOM      1  CA  ARG D 557     -26.217   2.705 -17.014  1.00 35.49     0.159 C 
ENDROOT
BRANCH   1   2
ATOM      2  CB  ARG D 557     -26.789   1.319 -17.183  1.00 35.49     0.034 C 
BRANCH   2   3
ATOM      3  CG  ARG D 557     -25.957   0.200 -16.724  1.00 35.49     0.027 C 
BRANCH   3   4
ATOM      4  CD  ARG D 557     -26.749  -0.851 -16.046  1.00 35.49     0.116 C 
BRANCH   4   5
ATOM      5  NE  ARG D 557     -27.995  -1.110 -16.719  1.00 35.49    -0.212 N 
ATOM      6  CZ  ARG D 557     -28.509  -2.296 -16.955  1.00 35.49     0.666 C 
ATOM      7  NH1 ARG D 557     -27.905  -3.415 -16.597  1.00 35.49    -0.235 N 
ATOM      8  NH2 ARG D 557     -29.660  -2.342 -17.559  1.00 35.49    -0.235 N 
ATOM      9  HH  ARG D 557     -27.147  -3.408 -16.197  1.00 35.49     0.174 HD
ATOM     10  HH  ARG D 557     -28.289  -4.159 -16.775  1.00 35.49     0.174 HD
ATOM     11  HH  ARG D 557     -30.031  -1.604 -17.771  1.00 35.49     0.174 HD
ATOM     12  HH  ARG D 557     -30.025  -3.090 -17.725  1.00 35.49     0.174 HD
ATOM     13  HE  ARG D 557     -28.416  -0.448 -17.048  1.00 35.49     0.178 HD
ENDBRANCH   4   5
ENDBRANCH   3   4
ENDBRANCH   2   3
ENDBRANCH   1   2
END_RES ARG D 557
BEGIN_RES GLU D 570
REMARK  3 active torsions:
REMARK  status: ('A' for Active; 'I' for Inactive)
REMARK    5  A    between atoms: CA   and  CB  
REMARK    6  A    between atoms: CB   and  CG  
REMARK    7  A    between atoms: CG   and  CD  
ROOT
ATOM     14  CA  GLU D 570     -18.033  -6.348 -13.375  1.00 32.92     0.160 C 
ENDROOT
BRANCH  14  15
ATOM     15  CB  GLU D 570     -19.500  -6.345 -13.794  1.00 32.92     0.043 C 
BRANCH  15  16
ATOM     16  CG  GLU D 570     -19.796  -6.350 -15.250  1.00 32.92     0.100 C 
BRANCH  16  17
ATOM     17  CD  GLU D 570     -20.905  -7.306 -15.622  1.00 32.92     0.185 C 
ATOM     18  OE1 GLU D 570     -20.655  -8.525 -15.696  1.00 32.92    -0.647 OA
ATOM     19  OE2 GLU D 570     -22.033  -6.830 -15.860  1.00 32.92    -0.647 OA
ENDBRANCH  16  17
ENDBRANCH  15  16
ENDBRANCH  14  15
END_RES GLU D 570
ENDMDL
MODEL 7
REMARK VINA RESULT:      -5.6      1.623      3.474
REMARK  2 active torsions:
REMARK  status: ('A' for Active; 'I' for Inactive)
REMARK    1  A    between atoms: C_5  and  C_9 
REMARK    2  A    between atoms: C_6  and  O_8 
ROOT
HETATM    1  C   UNL     1     -24.267  -3.742 -12.777  1.00  0.00     0.010 C 
HETATM    2  C   UNL     1     -23.416  -4.761 -12.010  1.00  0.00    -0.016 C 
HETATM    3  C   UNL     1     -23.879  -4.881 -10.549  1.00  0.00     0.005 C 
HETATM    4  C   UNL     1     -23.428  -3.705  -9.676  1.00  0.00     0.008 C 
HETATM    5  C   UNL     1     -21.898  -3.485  -9.725  1.00  0.00     0.018 C 
HETATM    6  C   UNL     1     -21.531  -3.238 -11.209  1.00  0.00     0.122 C 
HETATM    7  C   UNL     1     -21.921  -4.421 -12.102  1.00  0.00     0.036 C 
ENDROOT
BRANCH   5   8
HETATM    8  C   UNL     1     -21.106  -4.630  -9.005  1.00  0.00    -0.016 C 
HETATM    9  C   UNL     1     -19.696  -4.220  -8.562  1.00  0.00     0.010 C 
HETATM   10  C   UNL     1     -21.853  -5.142  -7.763  1.00  0.00     0.010 C 
ENDBRANCH   5   8
BRANCH   6  11
HETATM   11  O   UNL     1     -20.164  -2.888 -11.370  1.00  0.00    -0.395 OA
HETATM   12  H   UNL     1     -19.757  -3.499 -12.007  1.00  0.00     0.210 HD
ENDBRANCH   6  11
TORSDOF 2
BEGIN_RES ARG D 557
REMARK  4 active torsions:
REMARK  status: ('A' for Active; 'I' for Inactive)
REMARK    1  A    between atoms: CA   and  CB  
REMARK    2  A    between atoms: CB   and  CG  
REMARK    3  A    between atoms: CG   and  CD  
REMARK    4  A    between atoms: CD   and  NE  
REMARK       I    between atoms: NE   and  CZ  
REMARK       I    between atoms: CZ   and  NH1 
REMARK       I    between atoms: CZ   and  NH2 
ROOT
ATOM      1  CA  ARG D 557     -26.217   2.705 -17.014  1.00 35.49     0.159 C 
ENDROOT
BRANCH   1   2
ATOM      2  CB  ARG D 557     -26.789   1.319 -17.183  1.00 35.49     0.034 C 
BRANCH   2   3
ATOM      3  CG  ARG D 557     -28.233   1.169 -16.965  1.00 35.49     0.027 C 
BRANCH   3   4
ATOM      4  CD  ARG D 557     -28.629  -0.243 -16.762  1.00 35.49     0.116 C 
BRANCH   4   5
ATOM      5  NE  ARG D 557     -27.620  -0.994 -16.063  1.00 35.49    -0.212 N 
ATOM      6  CZ  ARG D 557     -27.448  -2.296 -16.130  1.00 35.49     0.666 C 
ATOM      7  NH1 ARG D 557     -28.221  -3.077 -16.861  1.00 35.49    -0.235 N 
ATOM      8  NH2 ARG D 557     -26.466  -2.807 -15.445  1.00 35.49    -0.235 N 
ATOM      9  HH  ARG D 557     -28.871  -2.762 -17.321  1.00 35.49     0.174 HD
ATOM     10  HH  ARG D 557     -28.059  -3.919 -16.868  1.00 35.49     0.174 HD
ATOM     11  HH  ARG D 557     -25.979  -2.277 -14.988  1.00 35.49     0.174 HD
ATOM     12  HH  ARG D 557     -26.321  -3.642 -15.465  1.00 35.49     0.174 HD
ATOM     13  HE  ARG D 557     -27.123  -0.579 -15.512  1.00 35.49     0.178 HD
ENDBRANCH   4   5
ENDBRANCH   3   4
ENDBRANCH   2   3
ENDBRANCH   1   2
END_RES ARG D 557
BEGIN_RES GLU D 570
REMARK  3 active torsions:
REMARK  status: ('A' for Active; 'I' for Inactive)
REMARK    5  A    between atoms: CA   and  CB  
REMARK    6  A    between atoms: CB   and  CG  
REMARK    7  A    between atoms: CG   and  CD  
ROOT
ATOM     14  CA  GLU D 570     -18.033  -6.348 -13.375  1.00 32.92     0.160 C 
ENDROOT
BRANCH  14  15
ATOM     15  CB  GLU D 570     -19.500  -6.345 -13.794  1.00 32.92     0.043 C 
BRANCH  15  16
ATOM     16  CG  GLU D 570     -20.072  -7.623 -14.291  1.00 32.92     0.100 C 
BRANCH  16  17
ATOM     17  CD  GLU D 570     -21.175  -7.420 -15.304  1.00 32.92     0.185 C 
ATOM     18  OE1 GLU D 570     -21.201  -8.137 -16.323  1.00 32.92    -0.647 OA
ATOM     19  OE2 GLU D 570     -22.013  -6.523 -15.084  1.00 32.92    -0.647 OA
ENDBRANCH  16  17
ENDBRANCH  15  16
ENDBRANCH  14  15
END_RES GLU D 570
ENDMDL
MODEL 8
REMARK VINA RESULT:      -5.6      7.680      9.450
REMARK  2 active torsions:
REMARK  status: ('A' for Active; 'I' for Inactive)
REMARK    1  A    between atoms: C_5  and  C_9 
REMARK    2  A    between atoms: C_6  and  O_8 
ROOT
HETATM    1  C   UNL     1     -22.458 -12.255   0.662  1.00  0.00     0.010 C 
HETATM    2  C   UNL     1     -22.682 -11.428  -0.609  1.00  0.00    -0.016 C 
HETATM    3  C   UNL     1     -21.345 -11.018  -1.247  1.00  0.00     0.005 C 
HETATM    4  C   UNL     1     -20.653  -9.868  -0.507  1.00  0.00     0.008 C 
HETATM    5  C   UNL     1     -21.565  -8.628  -0.357  1.00  0.00     0.018 C 
HETATM    6  C   UNL     1     -22.826  -9.093   0.411  1.00  0.00     0.122 C 
HETATM    7  C   UNL     1     -23.573 -10.207  -0.331  1.00  0.00     0.036 C 
ENDROOT
BRANCH   5   8
HETATM    8  C   UNL     1     -21.824  -7.907  -1.726  1.00  0.00    -0.016 C 
HETATM    9  C   UNL     1     -22.226  -6.434  -1.580  1.00  0.00     0.010 C 
HETATM   10  C   UNL     1     -20.588  -7.963  -2.639  1.00  0.00     0.010 C 
ENDBRANCH   5   8
BRANCH   6  11
HETATM   11  O   UNL     1     -23.687  -8.009   0.730  1.00  0.00    -0.395 OA
HETATM   12  H   UNL     1     -23.208  -7.385   1.300  1.00  0.00     0.210 HD
ENDBRANCH   6  11
TORSDOF 2
BEGIN_RES ARG D 557
REMARK  4 active torsions:
REMARK  status: ('A' for Active; 'I' for Inactive)
REMARK    1  A    between atoms: CA   and  CB  
REMARK    2  A    between atoms: CB   and  CG  
REMARK    3  A    between atoms: CG   and  CD  
REMARK    4  A    between atoms: CD   and  NE  
REMARK       I    between atoms: NE   and  CZ  
REMARK       I    between atoms: CZ   and  NH1 
REMARK       I    between atoms: CZ   and  NH2 
ROOT
ATOM      1  CA  ARG D 557     -26.217   2.705 -17.014  1.00 35.49     0.159 C 
ENDROOT
BRANCH   1   2
ATOM      2  CB  ARG D 557     -26.789   1.319 -17.183  1.00 35.49     0.034 C 
BRANCH   2   3
ATOM      3  CG  ARG D 557     -25.836   0.203 -17.154  1.00 35.49     0.027 C 
BRANCH   3   4
ATOM      4  CD  ARG D 557     -24.753   0.412 -16.166  1.00 35.49     0.116 C 
BRANCH   4   5
ATOM      5  NE  ARG D 557     -24.900  -0.437 -15.013  1.00 35.49    -0.212 N 
ATOM      6  CZ  ARG D 557     -24.087  -1.410 -14.667  1.00 35.49     0.666 C 
ATOM      7  NH1 ARG D 557     -23.020  -1.729 -15.376  1.00 35.49    -0.235 N 
ATOM      8  NH2 ARG D 557     -24.363  -2.064 -13.576  1.00 35.49    -0.235 N 
ATOM      9  HH  ARG D 557     -22.818  -1.311 -16.096  1.00 35.49     0.174 HD
ATOM     10  HH  ARG D 557     -22.525  -2.372 -15.100  1.00 35.49     0.174 HD
ATOM     11  HH  ARG D 557     -25.054  -1.831 -13.134  1.00 35.49     0.174 HD
ATOM     12  HH  ARG D 557     -23.860  -2.696 -13.318  1.00 35.49     0.174 HD
ATOM     13  HE  ARG D 557     -25.600  -0.349 -14.538  1.00 35.49     0.178 HD
ENDBRANCH   4   5
ENDBRANCH   3   4
ENDBRANCH   2   3
ENDBRANCH   1   2
END_RES ARG D 557
BEGIN_RES GLU D 570
REMARK  3 active torsions:
REMARK  status: ('A' for Active; 'I' for Inactive)
REMARK    5  A    between atoms: CA   and  CB  
REMARK    6  A    between atoms: CB   and  CG  
REMARK    7  A    between atoms: CG   and  CD  
ROOT
ATOM     14  CA  GLU D 570     -18.033  -6.348 -13.375  1.00 32.92     0.160 C 
ENDROOT
BRANCH  14  15
ATOM     15  CB  GLU D 570     -19.500  -6.345 -13.794  1.00 32.92     0.043 C 
BRANCH  15  16
ATOM     16  CG  GLU D 570     -20.443  -5.536 -12.980  1.00 32.92     0.100 C 
BRANCH  16  17
ATOM     17  CD  GLU D 570     -21.735  -5.233 -13.701  1.00 32.92     0.185 C 
ATOM     18  OE1 GLU D 570     -22.307  -4.146 -13.489  1.00 32.92    -0.647 OA
ATOM     19  OE2 GLU D 570     -22.190  -6.099 -14.475  1.00 32.92    -0.647 OA
ENDBRANCH  16  17
ENDBRANCH  15  16
ENDBRANCH  14  15
END_RES GLU D 570
ENDMDL
MODEL 9
REMARK VINA RESULT:      -5.4      6.381      8.178
REMARK  2 active torsions:
REMARK  status: ('A' for Active; 'I' for Inactive)
REMARK    1  A    between atoms: C_5  and  C_9 
REMARK    2  A    between atoms: C_6  and  O_8 
ROOT
HETATM    1  C   UNL     1     -21.175  -8.570   1.211  1.00  0.00     0.010 C 
HETATM    2  C   UNL     1     -21.912  -8.984  -0.069  1.00  0.00    -0.016 C 
HETATM    3  C   UNL     1     -20.944  -9.600  -1.091  1.00  0.00     0.005 C 
HETATM    4  C   UNL     1     -20.083  -8.555  -1.811  1.00  0.00     0.008 C 
HETATM    5  C   UNL     1     -20.933  -7.456  -2.490  1.00  0.00     0.018 C 
HETATM    6  C   UNL     1     -21.779  -6.794  -1.374  1.00  0.00     0.122 C 
HETATM    7  C   UNL     1     -22.691  -7.804  -0.670  1.00  0.00     0.036 C 
ENDROOT
BRANCH   5   8
HETATM    8  C   UNL     1     -21.733  -7.996  -3.726  1.00  0.00    -0.016 C 
HETATM    9  C   UNL     1     -22.086  -6.913  -4.753  1.00  0.00     0.010 C 
HETATM   10  C   UNL     1     -20.959  -9.101  -4.463  1.00  0.00     0.010 C 
ENDBRANCH   5   8
BRANCH   6  11
HETATM   11  O   UNL     1     -22.508  -5.673  -1.851  1.00  0.00    -0.395 OA
HETATM   12  H   UNL     1     -23.296  -5.552  -1.295  1.00  0.00     0.210 HD
ENDBRANCH   6  11
TORSDOF 2
BEGIN_RES ARG D 557
REMARK  4 active torsions:
REMARK  status: ('A' for Active; 'I' for Inactive)
REMARK    1  A    between atoms: CA   and  CB  
REMARK    2  A    between atoms: CB   and  CG  
REMARK    3  A    between atoms: CG   and  CD  
REMARK    4  A    between atoms: CD   and  NE  
REMARK       I    between atoms: NE   and  CZ  
REMARK       I    between atoms: CZ   and  NH1 
REMARK       I    between atoms: CZ   and  NH2 
ROOT
ATOM      1  CA  ARG D 557     -26.217   2.705 -17.014  1.00 35.49     0.159 C 
ENDROOT
BRANCH   1   2
ATOM      2  CB  ARG D 557     -26.789   1.319 -17.183  1.00 35.49     0.034 C 
BRANCH   2   3
ATOM      3  CG  ARG D 557     -25.861   0.195 -17.008  1.00 35.49     0.027 C 
BRANCH   3   4
ATOM      4  CD  ARG D 557     -26.321  -0.762 -15.977  1.00 35.49     0.116 C 
BRANCH   4   5
ATOM      5  NE  ARG D 557     -25.349  -0.942 -14.931  1.00 35.49    -0.212 N 
ATOM      6  CZ  ARG D 557     -25.073  -2.075 -14.325  1.00 35.49     0.666 C 
ATOM      7  NH1 ARG D 557     -25.693  -3.204 -14.616  1.00 35.49    -0.235 N 
ATOM      8  NH2 ARG D 557     -24.146  -2.057 -13.412  1.00 35.49    -0.235 N 
ATOM      9  HH  ARG D 557     -26.305  -3.239 -15.214  1.00 35.49     0.174 HD
ATOM     10  HH  ARG D 557     -25.469  -3.912 -14.189  1.00 35.49     0.174 HD
ATOM     11  HH  ARG D 557     -23.757  -1.315 -13.251  1.00 35.49     0.174 HD
ATOM     12  HH  ARG D 557     -23.937  -2.769 -13.002  1.00 35.49     0.174 HD
ATOM     13  HE  ARG D 557     -24.954  -0.251 -14.630  1.00 35.49     0.178 HD
ENDBRANCH   4   5
ENDBRANCH   3   4
ENDBRANCH   2   3
ENDBRANCH   1   2
END_RES ARG D 557
BEGIN_RES GLU D 570
REMARK  3 active torsions:
REMARK  status: ('A' for Active; 'I' for Inactive)
REMARK    5  A    between atoms: CA   and  CB  
REMARK    6  A    between atoms: CB   and  CG  
REMARK    7  A    between atoms: CG   and  CD  
ROOT
ATOM     14  CA  GLU D 570     -18.033  -6.348 -13.375  1.00 32.92     0.160 C 
ENDROOT
BRANCH  14  15
ATOM     15  CB  GLU D 570     -19.500  -6.345 -13.794  1.00 32.92     0.043 C 
BRANCH  15  16
ATOM     16  CG  GLU D 570     -20.446  -5.552 -12.968  1.00 32.92     0.100 C 
BRANCH  16  17
ATOM     17  CD  GLU D 570     -21.758  -5.282 -13.668  1.00 32.92     0.185 C 
ATOM     18  OE1 GLU D 570     -22.358  -4.215 -13.439  1.00 32.92    -0.647 OA
ATOM     19  OE2 GLU D 570     -22.197  -6.156 -14.442  1.00 32.92    -0.647 OA
ENDBRANCH  16  17
ENDBRANCH  15  16
ENDBRANCH  14  15
END_RES GLU D 570
ENDMDL
