MODEL 1
REMARK VINA RESULT:      -1.3      0.000      0.000
REMARK  4 active torsions:
REMARK  status: ('A' for Active; 'I' for Inactive)
REMARK    1  A    between atoms: C_6  and  S_7 
REMARK    2  A    between atoms: S_7  and  O_9 
REMARK    3  A    between atoms: C_11  and  O_29 
REMARK    4  A    between atoms: C_22  and  S_25 
ROOT
HETATM    1 NA   UNL     3     -32.370  -8.530   4.528  1.00  0.00     0.000 Na
ENDROOT
TORSDOF 4
BEGIN_RES ARG D 557
REMARK  4 active torsions:
REMARK  status: ('A' for Active; 'I' for Inactive)
REMARK    1  A    between atoms: CA   and  CB  
REMARK    2  A    between atoms: CB   and  CG  
REMARK    3  A    between atoms: CG   and  CD  
REMARK    4  A    between atoms: CD   and  NE  
REMARK       I    between atoms: NE   and  CZ  
REMARK       I    between atoms: CZ   and  NH1 
REMARK       I    between atoms: CZ   and  NH2 
ROOT
ATOM      1  CA  ARG D 557     -26.217   2.705 -17.014  1.00 35.49     0.159 C 
ENDROOT
BRANCH   1   2
ATOM      2  CB  ARG D 557     -26.789   1.319 -17.183  1.00 35.49     0.034 C 
BRANCH   2   3
ATOM      3  CG  ARG D 557     -25.836   0.203 -17.150  1.00 35.49     0.027 C 
BRANCH   3   4
ATOM      4  CD  ARG D 557     -24.756   0.412 -16.158  1.00 35.49     0.116 C 
BRANCH   4   5
ATOM      5  NE  ARG D 557     -24.900  -0.445 -15.011  1.00 35.49    -0.212 N 
ATOM      6  CZ  ARG D 557     -24.080  -1.413 -14.668  1.00 35.49     0.666 C 
ATOM      7  NH1 ARG D 557     -23.008  -1.719 -15.376  1.00 35.49    -0.235 N 
ATOM      8  NH2 ARG D 557     -24.354  -2.076 -13.582  1.00 35.49    -0.235 N 
ATOM      9  HH  ARG D 557     -22.807  -1.294 -16.093  1.00 35.49     0.174 HD
ATOM     10  HH  ARG D 557     -22.508  -2.358 -15.102  1.00 35.49     0.174 HD
ATOM     11  HH  ARG D 557     -25.049  -1.851 -13.141  1.00 35.49     0.174 HD
ATOM     12  HH  ARG D 557     -23.846  -2.705 -13.327  1.00 35.49     0.174 HD
ATOM     13  HE  ARG D 557     -25.602  -0.366 -14.539  1.00 35.49     0.178 HD
ENDBRANCH   4   5
ENDBRANCH   3   4
ENDBRANCH   2   3
ENDBRANCH   1   2
END_RES ARG D 557
BEGIN_RES GLU D 570
REMARK  3 active torsions:
REMARK  status: ('A' for Active; 'I' for Inactive)
REMARK    5  A    between atoms: CA   and  CB  
REMARK    6  A    between atoms: CB   and  CG  
REMARK    7  A    between atoms: CG   and  CD  
ROOT
ATOM     14  CA  GLU D 570     -18.033  -6.348 -13.375  1.00 32.92     0.160 C 
ENDROOT
BRANCH  14  15
ATOM     15  CB  GLU D 570     -19.500  -6.345 -13.794  1.00 32.92     0.043 C 
BRANCH  15  16
ATOM     16  CG  GLU D 570     -20.440  -5.523 -12.989  1.00 32.92     0.100 C 
BRANCH  16  17
ATOM     17  CD  GLU D 570     -21.735  -5.232 -13.711  1.00 32.92     0.185 C 
ATOM     18  OE1 GLU D 570     -22.200  -6.088 -14.489  1.00 32.92    -0.647 OA
ATOM     19  OE2 GLU D 570     -22.283  -4.131 -13.509  1.00 32.92    -0.647 OA
ENDBRANCH  16  17
ENDBRANCH  15  16
ENDBRANCH  14  15
END_RES GLU D 570
ENDMDL
MODEL 2
REMARK VINA RESULT:      -1.2      7.090      7.151
REMARK  4 active torsions:
REMARK  status: ('A' for Active; 'I' for Inactive)
REMARK    1  A    between atoms: C_6  and  S_7 
REMARK    2  A    between atoms: S_7  and  O_9 
REMARK    3  A    between atoms: C_11  and  O_29 
REMARK    4  A    between atoms: C_22  and  S_25 
ROOT
HETATM    1 NA   UNL     3     -11.263   1.623   2.445  1.00  0.00     0.000 Na
ENDROOT
TORSDOF 4
BEGIN_RES ARG D 557
REMARK  4 active torsions:
REMARK  status: ('A' for Active; 'I' for Inactive)
REMARK    1  A    between atoms: CA   and  CB  
REMARK    2  A    between atoms: CB   and  CG  
REMARK    3  A    between atoms: CG   and  CD  
REMARK    4  A    between atoms: CD   and  NE  
REMARK       I    between atoms: NE   and  CZ  
REMARK       I    between atoms: CZ   and  NH1 
REMARK       I    between atoms: CZ   and  NH2 
ROOT
ATOM      1  CA  ARG D 557     -26.217   2.705 -17.014  1.00 35.49     0.159 C 
ENDROOT
BRANCH   1   2
ATOM      2  CB  ARG D 557     -26.789   1.319 -17.183  1.00 35.49     0.034 C 
BRANCH   2   3
ATOM      3  CG  ARG D 557     -25.834   0.204 -17.172  1.00 35.49     0.027 C 
BRANCH   3   4
ATOM      4  CD  ARG D 557     -24.742   0.407 -16.193  1.00 35.49     0.116 C 
BRANCH   4   5
ATOM      5  NE  ARG D 557     -24.891  -0.432 -15.033  1.00 35.49    -0.212 N 
ATOM      6  CZ  ARG D 557     -24.077  -1.400 -14.675  1.00 35.49     0.666 C 
ATOM      7  NH1 ARG D 557     -23.007  -1.723 -15.378  1.00 35.49    -0.235 N 
ATOM      8  NH2 ARG D 557     -24.355  -2.045 -13.580  1.00 35.49    -0.235 N 
ATOM      9  HH  ARG D 557     -22.803  -1.310 -16.101  1.00 35.49     0.174 HD
ATOM     10  HH  ARG D 557     -22.511  -2.361 -15.094  1.00 35.49     0.174 HD
ATOM     11  HH  ARG D 557     -25.049  -1.810 -13.142  1.00 35.49     0.174 HD
ATOM     12  HH  ARG D 557     -23.851  -2.673 -13.315  1.00 35.49     0.174 HD
ATOM     13  HE  ARG D 557     -25.593  -0.342 -14.562  1.00 35.49     0.178 HD
ENDBRANCH   4   5
ENDBRANCH   3   4
ENDBRANCH   2   3
ENDBRANCH   1   2
END_RES ARG D 557
BEGIN_RES GLU D 570
REMARK  3 active torsions:
REMARK  status: ('A' for Active; 'I' for Inactive)
REMARK    5  A    between atoms: CA   and  CB  
REMARK    6  A    between atoms: CB   and  CG  
REMARK    7  A    between atoms: CG   and  CD  
ROOT
ATOM     14  CA  GLU D 570     -18.033  -6.348 -13.375  1.00 32.92     0.160 C 
ENDROOT
BRANCH  14  15
ATOM     15  CB  GLU D 570     -19.500  -6.345 -13.794  1.00 32.92     0.043 C 
BRANCH  15  16
ATOM     16  CG  GLU D 570     -20.442  -5.530 -12.984  1.00 32.92     0.100 C 
BRANCH  16  17
ATOM     17  CD  GLU D 570     -21.739  -5.240 -13.702  1.00 32.92     0.185 C 
ATOM     18  OE1 GLU D 570     -22.339  -4.175 -13.461  1.00 32.92    -0.647 OA
ATOM     19  OE2 GLU D 570     -22.168  -6.094 -14.502  1.00 32.92    -0.647 OA
ENDBRANCH  16  17
ENDBRANCH  15  16
ENDBRANCH  14  15
END_RES GLU D 570
ENDMDL
MODEL 3
REMARK VINA RESULT:      -1.1      3.721      3.721
REMARK  4 active torsions:
REMARK  status: ('A' for Active; 'I' for Inactive)
REMARK    1  A    between atoms: C_6  and  S_7 
REMARK    2  A    between atoms: S_7  and  O_9 
REMARK    3  A    between atoms: C_11  and  O_29 
REMARK    4  A    between atoms: C_22  and  S_25 
ROOT
HETATM    1 NA   UNL     3     -25.219  -5.255  -4.979  1.00  0.00     0.000 Na
ENDROOT
TORSDOF 4
BEGIN_RES ARG D 557
REMARK  4 active torsions:
REMARK  status: ('A' for Active; 'I' for Inactive)
REMARK    1  A    between atoms: CA   and  CB  
REMARK    2  A    between atoms: CB   and  CG  
REMARK    3  A    between atoms: CG   and  CD  
REMARK    4  A    between atoms: CD   and  NE  
REMARK       I    between atoms: NE   and  CZ  
REMARK       I    between atoms: CZ   and  NH1 
REMARK       I    between atoms: CZ   and  NH2 
ROOT
ATOM      1  CA  ARG D 557     -26.217   2.705 -17.014  1.00 35.49     0.159 C 
ENDROOT
BRANCH   1   2
ATOM      2  CB  ARG D 557     -26.789   1.319 -17.183  1.00 35.49     0.034 C 
BRANCH   2   3
ATOM      3  CG  ARG D 557     -25.836   0.203 -17.154  1.00 35.49     0.027 C 
BRANCH   3   4
ATOM      4  CD  ARG D 557     -24.750   0.413 -16.169  1.00 35.49     0.116 C 
BRANCH   4   5
ATOM      5  NE  ARG D 557     -24.894  -0.434 -15.015  1.00 35.49    -0.212 N 
ATOM      6  CZ  ARG D 557     -24.077  -1.403 -14.667  1.00 35.49     0.666 C 
ATOM      7  NH1 ARG D 557     -23.009  -1.720 -15.377  1.00 35.49    -0.235 N 
ATOM      8  NH2 ARG D 557     -24.350  -2.056 -13.575  1.00 35.49    -0.235 N 
ATOM      9  HH  ARG D 557     -22.809  -1.302 -16.098  1.00 35.49     0.174 HD
ATOM     10  HH  ARG D 557     -22.512  -2.360 -15.100  1.00 35.49     0.174 HD
ATOM     11  HH  ARG D 557     -25.042  -1.825 -13.133  1.00 35.49     0.174 HD
ATOM     12  HH  ARG D 557     -23.845  -2.686 -13.317  1.00 35.49     0.174 HD
ATOM     13  HE  ARG D 557     -25.594  -0.348 -14.540  1.00 35.49     0.178 HD
ENDBRANCH   4   5
ENDBRANCH   3   4
ENDBRANCH   2   3
ENDBRANCH   1   2
END_RES ARG D 557
BEGIN_RES GLU D 570
REMARK  3 active torsions:
REMARK  status: ('A' for Active; 'I' for Inactive)
REMARK    5  A    between atoms: CA   and  CB  
REMARK    6  A    between atoms: CB   and  CG  
REMARK    7  A    between atoms: CG   and  CD  
ROOT
ATOM     14  CA  GLU D 570     -18.033  -6.348 -13.375  1.00 32.92     0.160 C 
ENDROOT
BRANCH  14  15
ATOM     15  CB  GLU D 570     -19.500  -6.345 -13.794  1.00 32.92     0.043 C 
BRANCH  15  16
ATOM     16  CG  GLU D 570     -20.443  -5.538 -12.978  1.00 32.92     0.100 C 
BRANCH  16  17
ATOM     17  CD  GLU D 570     -21.744  -5.252 -13.691  1.00 32.92     0.185 C 
ATOM     18  OE1 GLU D 570     -22.237  -6.129 -14.426  1.00 32.92    -0.647 OA
ATOM     19  OE2 GLU D 570     -22.267  -4.132 -13.527  1.00 32.92    -0.647 OA
ENDBRANCH  16  17
ENDBRANCH  15  16
ENDBRANCH  14  15
END_RES GLU D 570
ENDMDL
MODEL 4
REMARK VINA RESULT:      -1.0     10.575     10.605
REMARK  4 active torsions:
REMARK  status: ('A' for Active; 'I' for Inactive)
REMARK    1  A    between atoms: C_6  and  S_7 
REMARK    2  A    between atoms: S_7  and  O_9 
REMARK    3  A    between atoms: C_11  and  O_29 
REMARK    4  A    between atoms: C_22  and  S_25 
ROOT
HETATM    1 NA   UNL     3      -9.129   5.871 -17.191  1.00  0.00     0.000 Na
ENDROOT
TORSDOF 4
BEGIN_RES ARG D 557
REMARK  4 active torsions:
REMARK  status: ('A' for Active; 'I' for Inactive)
REMARK    1  A    between atoms: CA   and  CB  
REMARK    2  A    between atoms: CB   and  CG  
REMARK    3  A    between atoms: CG   and  CD  
REMARK    4  A    between atoms: CD   and  NE  
REMARK       I    between atoms: NE   and  CZ  
REMARK       I    between atoms: CZ   and  NH1 
REMARK       I    between atoms: CZ   and  NH2 
ROOT
ATOM      1  CA  ARG D 557     -26.217   2.705 -17.014  1.00 35.49     0.159 C 
ENDROOT
BRANCH   1   2
ATOM      2  CB  ARG D 557     -26.789   1.319 -17.183  1.00 35.49     0.034 C 
BRANCH   2   3
ATOM      3  CG  ARG D 557     -25.864   0.195 -16.995  1.00 35.49     0.027 C 
BRANCH   3   4
ATOM      4  CD  ARG D 557     -26.292  -0.713 -15.907  1.00 35.49     0.116 C 
BRANCH   4   5
ATOM      5  NE  ARG D 557     -25.249  -0.930 -14.939  1.00 35.49    -0.212 N 
ATOM      6  CZ  ARG D 557     -24.969  -2.074 -14.355  1.00 35.49     0.666 C 
ATOM      7  NH1 ARG D 557     -25.651  -3.178 -14.595  1.00 35.49    -0.235 N 
ATOM      8  NH2 ARG D 557     -23.973  -2.092 -13.518  1.00 35.49    -0.235 N 
ATOM      9  HH  ARG D 557     -26.309  -3.189 -15.144  1.00 35.49     0.174 HD
ATOM     10  HH  ARG D 557     -25.422  -3.895 -14.186  1.00 35.49     0.174 HD
ATOM     11  HH  ARG D 557     -23.545  -1.365 -13.389  1.00 35.49     0.174 HD
ATOM     12  HH  ARG D 557     -23.760  -2.812 -13.125  1.00 35.49     0.174 HD
ATOM     13  HE  ARG D 557     -24.806  -0.255 -14.672  1.00 35.49     0.178 HD
ENDBRANCH   4   5
ENDBRANCH   3   4
ENDBRANCH   2   3
ENDBRANCH   1   2
END_RES ARG D 557
BEGIN_RES GLU D 570
REMARK  3 active torsions:
REMARK  status: ('A' for Active; 'I' for Inactive)
REMARK    5  A    between atoms: CA   and  CB  
REMARK    6  A    between atoms: CB   and  CG  
REMARK    7  A    between atoms: CG   and  CD  
ROOT
ATOM     14  CA  GLU D 570     -18.033  -6.348 -13.375  1.00 32.92     0.160 C 
ENDROOT
BRANCH  14  15
ATOM     15  CB  GLU D 570     -19.500  -6.345 -13.794  1.00 32.92     0.043 C 
BRANCH  15  16
ATOM     16  CG  GLU D 570     -20.450  -5.570 -12.955  1.00 32.92     0.100 C 
BRANCH  16  17
ATOM     17  CD  GLU D 570     -21.673  -5.115 -13.716  1.00 32.92     0.185 C 
ATOM     18  OE1 GLU D 570     -21.612  -5.016 -14.957  1.00 32.92    -0.647 OA
ATOM     19  OE2 GLU D 570     -22.699  -4.840 -13.064  1.00 32.92    -0.647 OA
ENDBRANCH  16  17
ENDBRANCH  15  16
ENDBRANCH  14  15
END_RES GLU D 570
ENDMDL
MODEL 5
REMARK VINA RESULT:      -1.0      8.260      8.260
REMARK  4 active torsions:
REMARK  status: ('A' for Active; 'I' for Inactive)
REMARK    1  A    between atoms: C_6  and  S_7 
REMARK    2  A    between atoms: S_7  and  O_9 
REMARK    3  A    between atoms: C_11  and  O_29 
REMARK    4  A    between atoms: C_22  and  S_25 
ROOT
HETATM    1 NA   UNL     3     -11.431   1.506 -10.012  1.00  0.00     0.000 Na
ENDROOT
TORSDOF 4
BEGIN_RES ARG D 557
REMARK  4 active torsions:
REMARK  status: ('A' for Active; 'I' for Inactive)
REMARK    1  A    between atoms: CA   and  CB  
REMARK    2  A    between atoms: CB   and  CG  
REMARK    3  A    between atoms: CG   and  CD  
REMARK    4  A    between atoms: CD   and  NE  
REMARK       I    between atoms: NE   and  CZ  
REMARK       I    between atoms: CZ   and  NH1 
REMARK       I    between atoms: CZ   and  NH2 
ROOT
ATOM      1  CA  ARG D 557     -26.217   2.705 -17.014  1.00 35.49     0.159 C 
ENDROOT
BRANCH   1   2
ATOM      2  CB  ARG D 557     -26.789   1.319 -17.183  1.00 35.49     0.034 C 
BRANCH   2   3
ATOM      3  CG  ARG D 557     -25.836   0.203 -17.149  1.00 35.49     0.027 C 
BRANCH   3   4
ATOM      4  CD  ARG D 557     -24.757   0.412 -16.158  1.00 35.49     0.116 C 
BRANCH   4   5
ATOM      5  NE  ARG D 557     -24.902  -0.443 -15.009  1.00 35.49    -0.212 N 
ATOM      6  CZ  ARG D 557     -24.081  -1.408 -14.662  1.00 35.49     0.666 C 
ATOM      7  NH1 ARG D 557     -23.006  -1.713 -15.366  1.00 35.49    -0.235 N 
ATOM      8  NH2 ARG D 557     -24.357  -2.069 -13.575  1.00 35.49    -0.235 N 
ATOM      9  HH  ARG D 557     -22.804  -1.290 -16.083  1.00 35.49     0.174 HD
ATOM     10  HH  ARG D 557     -22.506  -2.352 -15.089  1.00 35.49     0.174 HD
ATOM     11  HH  ARG D 557     -25.054  -1.845 -13.137  1.00 35.49     0.174 HD
ATOM     12  HH  ARG D 557     -23.849  -2.697 -13.317  1.00 35.49     0.174 HD
ATOM     13  HE  ARG D 557     -25.606  -0.364 -14.539  1.00 35.49     0.178 HD
ENDBRANCH   4   5
ENDBRANCH   3   4
ENDBRANCH   2   3
ENDBRANCH   1   2
END_RES ARG D 557
BEGIN_RES GLU D 570
REMARK  3 active torsions:
REMARK  status: ('A' for Active; 'I' for Inactive)
REMARK    5  A    between atoms: CA   and  CB  
REMARK    6  A    between atoms: CB   and  CG  
REMARK    7  A    between atoms: CG   and  CD  
ROOT
ATOM     14  CA  GLU D 570     -18.033  -6.348 -13.375  1.00 32.92     0.160 C 
ENDROOT
BRANCH  14  15
ATOM     15  CB  GLU D 570     -19.500  -6.345 -13.794  1.00 32.92     0.043 C 
BRANCH  15  16
ATOM     16  CG  GLU D 570     -20.441  -5.525 -12.988  1.00 32.92     0.100 C 
BRANCH  16  17
ATOM     17  CD  GLU D 570     -21.734  -5.230 -13.711  1.00 32.92     0.185 C 
ATOM     18  OE1 GLU D 570     -22.205  -6.088 -14.482  1.00 32.92    -0.647 OA
ATOM     19  OE2 GLU D 570     -22.273  -4.123 -13.516  1.00 32.92    -0.647 OA
ENDBRANCH  16  17
ENDBRANCH  15  16
ENDBRANCH  14  15
END_RES GLU D 570
ENDMDL
MODEL 6
REMARK VINA RESULT:      -0.9      4.950      4.950
REMARK  4 active torsions:
REMARK  status: ('A' for Active; 'I' for Inactive)
REMARK    1  A    between atoms: C_6  and  S_7 
REMARK    2  A    between atoms: S_7  and  O_9 
REMARK    3  A    between atoms: C_11  and  O_29 
REMARK    4  A    between atoms: C_22  and  S_25 
ROOT
HETATM    1 NA   UNL     3     -35.117  -8.573 -11.656  1.00  0.00     0.000 Na
ENDROOT
TORSDOF 4
BEGIN_RES ARG D 557
REMARK  4 active torsions:
REMARK  status: ('A' for Active; 'I' for Inactive)
REMARK    1  A    between atoms: CA   and  CB  
REMARK    2  A    between atoms: CB   and  CG  
REMARK    3  A    between atoms: CG   and  CD  
REMARK    4  A    between atoms: CD   and  NE  
REMARK       I    between atoms: NE   and  CZ  
REMARK       I    between atoms: CZ   and  NH1 
REMARK       I    between atoms: CZ   and  NH2 
ROOT
ATOM      1  CA  ARG D 557     -26.217   2.705 -17.014  1.00 35.49     0.159 C 
ENDROOT
BRANCH   1   2
ATOM      2  CB  ARG D 557     -26.789   1.319 -17.183  1.00 35.49     0.034 C 
BRANCH   2   3
ATOM      3  CG  ARG D 557     -25.834   0.204 -17.167  1.00 35.49     0.027 C 
BRANCH   3   4
ATOM      4  CD  ARG D 557     -24.754   0.400 -16.174  1.00 35.49     0.116 C 
BRANCH   4   5
ATOM      5  NE  ARG D 557     -24.914  -0.452 -15.024  1.00 35.49    -0.212 N 
ATOM      6  CZ  ARG D 557     -24.104  -1.424 -14.670  1.00 35.49     0.666 C 
ATOM      7  NH1 ARG D 557     -23.029  -1.741 -15.367  1.00 35.49    -0.235 N 
ATOM      8  NH2 ARG D 557     -24.393  -2.081 -13.584  1.00 35.49    -0.235 N 
ATOM      9  HH  ARG D 557     -22.819  -1.321 -16.084  1.00 35.49     0.174 HD
ATOM     10  HH  ARG D 557     -22.536  -2.383 -15.087  1.00 35.49     0.174 HD
ATOM     11  HH  ARG D 557     -25.090  -1.849 -13.150  1.00 35.49     0.174 HD
ATOM     12  HH  ARG D 557     -23.892  -2.713 -13.322  1.00 35.49     0.174 HD
ATOM     13  HE  ARG D 557     -25.620  -0.365 -14.558  1.00 35.49     0.178 HD
ENDBRANCH   4   5
ENDBRANCH   3   4
ENDBRANCH   2   3
ENDBRANCH   1   2
END_RES ARG D 557
BEGIN_RES GLU D 570
REMARK  3 active torsions:
REMARK  status: ('A' for Active; 'I' for Inactive)
REMARK    5  A    between atoms: CA   and  CB  
REMARK    6  A    between atoms: CB   and  CG  
REMARK    7  A    between atoms: CG   and  CD  
ROOT
ATOM     14  CA  GLU D 570     -18.033  -6.348 -13.375  1.00 32.92     0.160 C 
ENDROOT
BRANCH  14  15
ATOM     15  CB  GLU D 570     -19.500  -6.345 -13.794  1.00 32.92     0.043 C 
BRANCH  15  16
ATOM     16  CG  GLU D 570     -20.440  -5.524 -12.988  1.00 32.92     0.100 C 
BRANCH  16  17
ATOM     17  CD  GLU D 570     -21.736  -5.233 -13.710  1.00 32.92     0.185 C 
ATOM     18  OE1 GLU D 570     -22.178  -6.070 -14.521  1.00 32.92    -0.647 OA
ATOM     19  OE2 GLU D 570     -22.306  -4.150 -13.474  1.00 32.92    -0.647 OA
ENDBRANCH  16  17
ENDBRANCH  15  16
ENDBRANCH  14  15
END_RES GLU D 570
ENDMDL
MODEL 7
REMARK VINA RESULT:      -0.9      5.944      6.037
REMARK  4 active torsions:
REMARK  status: ('A' for Active; 'I' for Inactive)
REMARK    1  A    between atoms: C_6  and  S_7 
REMARK    2  A    between atoms: S_7  and  O_9 
REMARK    3  A    between atoms: C_11  and  O_29 
REMARK    4  A    between atoms: C_22  and  S_25 
ROOT
HETATM    1 NA   UNL     3     -27.026 -13.655 -13.030  1.00  0.00     0.000 Na
ENDROOT
TORSDOF 4
BEGIN_RES ARG D 557
REMARK  4 active torsions:
REMARK  status: ('A' for Active; 'I' for Inactive)
REMARK    1  A    between atoms: CA   and  CB  
REMARK    2  A    between atoms: CB   and  CG  
REMARK    3  A    between atoms: CG   and  CD  
REMARK    4  A    between atoms: CD   and  NE  
REMARK       I    between atoms: NE   and  CZ  
REMARK       I    between atoms: CZ   and  NH1 
REMARK       I    between atoms: CZ   and  NH2 
ROOT
ATOM      1  CA  ARG D 557     -26.217   2.705 -17.014  1.00 35.49     0.159 C 
ENDROOT
BRANCH   1   2
ATOM      2  CB  ARG D 557     -26.789   1.319 -17.183  1.00 35.49     0.034 C 
BRANCH   2   3
ATOM      3  CG  ARG D 557     -25.934   0.197 -16.775  1.00 35.49     0.027 C 
BRANCH   3   4
ATOM      4  CD  ARG D 557     -26.690  -0.858 -16.063  1.00 35.49     0.116 C 
BRANCH   4   5
ATOM      5  NE  ARG D 557     -25.924  -1.448 -14.997  1.00 35.49    -0.212 N 
ATOM      6  CZ  ARG D 557     -25.912  -2.722 -14.674  1.00 35.49     0.666 C 
ATOM      7  NH1 ARG D 557     -26.640  -3.622 -15.309  1.00 35.49    -0.235 N 
ATOM      8  NH2 ARG D 557     -25.139  -3.085 -13.692  1.00 35.49    -0.235 N 
ATOM      9  HH  ARG D 557     -27.153  -3.406 -15.960  1.00 35.49     0.174 HD
ATOM     10  HH  ARG D 557     -26.589  -4.439 -15.056  1.00 35.49     0.174 HD
ATOM     11  HH  ARG D 557     -24.675  -2.484 -13.304  1.00 35.49     0.174 HD
ATOM     12  HH  ARG D 557     -25.102  -3.899 -13.457  1.00 35.49     0.174 HD
ATOM     13  HE  ARG D 557     -25.481  -0.930 -14.489  1.00 35.49     0.178 HD
ENDBRANCH   4   5
ENDBRANCH   3   4
ENDBRANCH   2   3
ENDBRANCH   1   2
END_RES ARG D 557
BEGIN_RES GLU D 570
REMARK  3 active torsions:
REMARK  status: ('A' for Active; 'I' for Inactive)
REMARK    5  A    between atoms: CA   and  CB  
REMARK    6  A    between atoms: CB   and  CG  
REMARK    7  A    between atoms: CG   and  CD  
ROOT
ATOM     14  CA  GLU D 570     -18.033  -6.348 -13.375  1.00 32.92     0.160 C 
ENDROOT
BRANCH  14  15
ATOM     15  CB  GLU D 570     -19.500  -6.345 -13.794  1.00 32.92     0.043 C 
BRANCH  15  16
ATOM     16  CG  GLU D 570     -20.446  -5.548 -12.970  1.00 32.92     0.100 C 
BRANCH  16  17
ATOM     17  CD  GLU D 570     -21.696  -5.156 -13.722  1.00 32.92     0.185 C 
ATOM     18  OE1 GLU D 570     -22.762  -5.014 -13.092  1.00 32.92    -0.647 OA
ATOM     19  OE2 GLU D 570     -21.613  -5.007 -14.957  1.00 32.92    -0.647 OA
ENDBRANCH  16  17
ENDBRANCH  15  16
ENDBRANCH  14  15
END_RES GLU D 570
ENDMDL
MODEL 8
REMARK VINA RESULT:      -0.9      8.118      8.146
REMARK  4 active torsions:
REMARK  status: ('A' for Active; 'I' for Inactive)
REMARK    1  A    between atoms: C_6  and  S_7 
REMARK    2  A    between atoms: S_7  and  O_9 
REMARK    3  A    between atoms: C_11  and  O_29 
REMARK    4  A    between atoms: C_22  and  S_25 
ROOT
HETATM    1 NA   UNL     3     -35.576  -5.052 -21.931  1.00  0.00     0.000 Na
ENDROOT
TORSDOF 4
BEGIN_RES ARG D 557
REMARK  4 active torsions:
REMARK  status: ('A' for Active; 'I' for Inactive)
REMARK    1  A    between atoms: CA   and  CB  
REMARK    2  A    between atoms: CB   and  CG  
REMARK    3  A    between atoms: CG   and  CD  
REMARK    4  A    between atoms: CD   and  NE  
REMARK       I    between atoms: NE   and  CZ  
REMARK       I    between atoms: CZ   and  NH1 
REMARK       I    between atoms: CZ   and  NH2 
ROOT
ATOM      1  CA  ARG D 557     -26.217   2.705 -17.014  1.00 35.49     0.159 C 
ENDROOT
BRANCH   1   2
ATOM      2  CB  ARG D 557     -26.789   1.319 -17.183  1.00 35.49     0.034 C 
BRANCH   2   3
ATOM      3  CG  ARG D 557     -25.840   0.201 -17.120  1.00 35.49     0.027 C 
BRANCH   3   4
ATOM      4  CD  ARG D 557     -24.776   0.420 -16.114  1.00 35.49     0.116 C 
BRANCH   4   5
ATOM      5  NE  ARG D 557     -24.897  -0.474 -14.992  1.00 35.49    -0.212 N 
ATOM      6  CZ  ARG D 557     -24.057  -1.436 -14.682  1.00 35.49     0.666 C 
ATOM      7  NH1 ARG D 557     -22.982  -1.698 -15.403  1.00 35.49    -0.235 N 
ATOM      8  NH2 ARG D 557     -24.313  -2.136 -13.616  1.00 35.49    -0.235 N 
ATOM      9  HH  ARG D 557     -22.793  -1.248 -16.107  1.00 35.49     0.174 HD
ATOM     10  HH  ARG D 557     -22.469  -2.336 -15.150  1.00 35.49     0.174 HD
ATOM     11  HH  ARG D 557     -25.010  -1.940 -13.165  1.00 35.49     0.174 HD
ATOM     12  HH  ARG D 557     -23.792  -2.763 -13.381  1.00 35.49     0.174 HD
ATOM     13  HE  ARG D 557     -25.599  -0.424 -14.515  1.00 35.49     0.178 HD
ENDBRANCH   4   5
ENDBRANCH   3   4
ENDBRANCH   2   3
ENDBRANCH   1   2
END_RES ARG D 557
BEGIN_RES GLU D 570
REMARK  3 active torsions:
REMARK  status: ('A' for Active; 'I' for Inactive)
REMARK    5  A    between atoms: CA   and  CB  
REMARK    6  A    between atoms: CB   and  CG  
REMARK    7  A    between atoms: CG   and  CD  
ROOT
ATOM     14  CA  GLU D 570     -18.033  -6.348 -13.375  1.00 32.92     0.160 C 
ENDROOT
BRANCH  14  15
ATOM     15  CB  GLU D 570     -19.500  -6.345 -13.794  1.00 32.92     0.043 C 
BRANCH  15  16
ATOM     16  CG  GLU D 570     -20.444  -5.541 -12.976  1.00 32.92     0.100 C 
BRANCH  16  17
ATOM     17  CD  GLU D 570     -21.640  -5.055 -13.762  1.00 32.92     0.185 C 
ATOM     18  OE1 GLU D 570     -22.672  -4.723 -13.149  1.00 32.92    -0.647 OA
ATOM     19  OE2 GLU D 570     -21.548  -5.023 -15.005  1.00 32.92    -0.647 OA
ENDBRANCH  16  17
ENDBRANCH  15  16
ENDBRANCH  14  15
END_RES GLU D 570
ENDMDL
MODEL 9
REMARK VINA RESULT:      -0.8      5.981      5.981
REMARK  4 active torsions:
REMARK  status: ('A' for Active; 'I' for Inactive)
REMARK    1  A    between atoms: C_6  and  S_7 
REMARK    2  A    between atoms: S_7  and  O_9 
REMARK    3  A    between atoms: C_11  and  O_29 
REMARK    4  A    between atoms: C_22  and  S_25 
ROOT
HETATM    1 NA   UNL     3     -13.002  -4.308   5.248  1.00  0.00     0.000 Na
ENDROOT
TORSDOF 4
BEGIN_RES ARG D 557
REMARK  4 active torsions:
REMARK  status: ('A' for Active; 'I' for Inactive)
REMARK    1  A    between atoms: CA   and  CB  
REMARK    2  A    between atoms: CB   and  CG  
REMARK    3  A    between atoms: CG   and  CD  
REMARK    4  A    between atoms: CD   and  NE  
REMARK       I    between atoms: NE   and  CZ  
REMARK       I    between atoms: CZ   and  NH1 
REMARK       I    between atoms: CZ   and  NH2 
ROOT
ATOM      1  CA  ARG D 557     -26.217   2.705 -17.014  1.00 35.49     0.159 C 
ENDROOT
BRANCH   1   2
ATOM      2  CB  ARG D 557     -26.789   1.319 -17.183  1.00 35.49     0.034 C 
BRANCH   2   3
ATOM      3  CG  ARG D 557     -25.836   0.203 -17.156  1.00 35.49     0.027 C 
BRANCH   3   4
ATOM      4  CD  ARG D 557     -24.748   0.413 -16.174  1.00 35.49     0.116 C 
BRANCH   4   5
ATOM      5  NE  ARG D 557     -24.890  -0.432 -15.018  1.00 35.49    -0.212 N 
ATOM      6  CZ  ARG D 557     -24.076  -1.403 -14.671  1.00 35.49     0.666 C 
ATOM      7  NH1 ARG D 557     -23.012  -1.724 -15.384  1.00 35.49    -0.235 N 
ATOM      8  NH2 ARG D 557     -24.348  -2.054 -13.578  1.00 35.49    -0.235 N 
ATOM      9  HH  ARG D 557     -22.812  -1.308 -16.106  1.00 35.49     0.174 HD
ATOM     10  HH  ARG D 557     -22.515  -2.366 -15.107  1.00 35.49     0.174 HD
ATOM     11  HH  ARG D 557     -25.038  -1.820 -13.134  1.00 35.49     0.174 HD
ATOM     12  HH  ARG D 557     -23.844  -2.685 -13.320  1.00 35.49     0.174 HD
ATOM     13  HE  ARG D 557     -25.589  -0.342 -14.541  1.00 35.49     0.178 HD
ENDBRANCH   4   5
ENDBRANCH   3   4
ENDBRANCH   2   3
ENDBRANCH   1   2
END_RES ARG D 557
BEGIN_RES GLU D 570
REMARK  3 active torsions:
REMARK  status: ('A' for Active; 'I' for Inactive)
REMARK    5  A    between atoms: CA   and  CB  
REMARK    6  A    between atoms: CB   and  CG  
REMARK    7  A    between atoms: CG   and  CD  
ROOT
ATOM     14  CA  GLU D 570     -18.033  -6.348 -13.375  1.00 32.92     0.160 C 
ENDROOT
BRANCH  14  15
ATOM     15  CB  GLU D 570     -19.500  -6.345 -13.794  1.00 32.92     0.043 C 
BRANCH  15  16
ATOM     16  CG  GLU D 570     -20.444  -5.543 -12.974  1.00 32.92     0.100 C 
BRANCH  16  17
ATOM     17  CD  GLU D 570     -21.743  -5.250 -13.689  1.00 32.92     0.185 C 
ATOM     18  OE1 GLU D 570     -22.247  -6.131 -14.412  1.00 32.92    -0.647 OA
ATOM     19  OE2 GLU D 570     -22.253  -4.123 -13.537  1.00 32.92    -0.647 OA
ENDBRANCH  16  17
ENDBRANCH  15  16
ENDBRANCH  14  15
END_RES GLU D 570
ENDMDL
