MODEL 1
REMARK VINA RESULT:      -6.3      0.000      0.000
REMARK  6 active torsions:
REMARK  status: ('A' for Active; 'I' for Inactive)
REMARK    1  A    between atoms: C_1  and  C_2 
REMARK    2  A    between atoms: C_1  and  O_12 
REMARK    3  A    between atoms: C_3  and  O_11 
REMARK    4  A    between atoms: C_4  and  O_10 
REMARK    5  A    between atoms: C_5  and  N_9 
REMARK    6  A    between atoms: C_6  and  O_8 
ROOT
HETATM    1  C   UNL     1     -24.025  -2.836 -11.449  1.00  0.00     0.179 C 
HETATM    2  C   UNL     1     -24.691  -3.148 -12.826  1.00  0.00     0.180 C 
HETATM    3  C   UNL     1     -24.068  -4.445 -13.398  1.00  0.00     0.187 C 
HETATM    4  C   UNL     1     -22.523  -4.347 -13.459  1.00  0.00     0.303 C 
HETATM    5  C   UNL     1     -22.004  -3.944 -12.057  1.00  0.00     0.292 C 
HETATM    6  O   UNL     1     -22.604  -2.742 -11.571  1.00  0.00    -0.349 OA
ENDROOT
BRANCH   1   7
HETATM    7  C   UNL     1     -24.479  -3.786 -10.310  1.00  0.00     0.198 C 
BRANCH   7   8
HETATM    8  O   UNL     1     -25.695  -3.351  -9.762  1.00  0.00    -0.398 OA
HETATM    9  H   UNL     1     -25.539  -2.433  -9.416  1.00  0.00     0.209 HD
ENDBRANCH   7   8
ENDBRANCH   1   7
BRANCH   2  10
HETATM   10  O   UNL     1     -24.547  -2.086 -13.747  1.00  0.00    -0.390 OA
HETATM   11  H   UNL     1     -24.340  -1.241 -13.270  1.00  0.00     0.210 HD
ENDBRANCH   2  10
BRANCH   3  12
HETATM   12  O   UNL     1     -24.627  -4.827 -14.631  1.00  0.00    -0.391 OA
HETATM   13  H   UNL     1     -24.158  -5.636 -14.958  1.00  0.00     0.210 HD
ENDBRANCH   3  12
BRANCH   5  14
HETATM   14  O   UNL     1     -20.609  -3.794 -12.083  1.00  0.00    -0.369 OA
HETATM   15  H   UNL     1     -20.267  -4.306 -12.862  1.00  0.00     0.212 HD
ENDBRANCH   5  14
BRANCH   4  16
HETATM   16  N   UNL     1     -22.040  -3.412 -14.486  1.00  0.00     0.090 N 
HETATM   17  H   UNL     1     -21.007  -3.268 -14.458  1.00  0.00     0.313 HD
HETATM   18  H   UNL     1     -22.541  -2.497 -14.425  1.00  0.00     0.313 HD
ENDBRANCH   4  16
TORSDOF 6
BEGIN_RES ARG D 557
REMARK  4 active torsions:
REMARK  status: ('A' for Active; 'I' for Inactive)
REMARK    1  A    between atoms: CA   and  CB  
REMARK    2  A    between atoms: CB   and  CG  
REMARK    3  A    between atoms: CG   and  CD  
REMARK    4  A    between atoms: CD   and  NE  
REMARK       I    between atoms: NE   and  CZ  
REMARK       I    between atoms: CZ   and  NH1 
REMARK       I    between atoms: CZ   and  NH2 
ROOT
ATOM      1  CA  ARG D 557     -26.217   2.705 -17.014  1.00 35.49     0.159 C 
ENDROOT
BRANCH   1   2
ATOM      2  CB  ARG D 557     -26.789   1.319 -17.183  1.00 35.49     0.034 C 
BRANCH   2   3
ATOM      3  CG  ARG D 557     -28.231   1.166 -16.952  1.00 35.49     0.027 C 
BRANCH   3   4
ATOM      4  CD  ARG D 557     -28.654  -0.252 -16.946  1.00 35.49     0.116 C 
BRANCH   4   5
ATOM      5  NE  ARG D 557     -27.719  -1.095 -16.249  1.00 35.49    -0.212 N 
ATOM      6  CZ  ARG D 557     -27.663  -2.406 -16.322  1.00 35.49     0.666 C 
ATOM      7  NH1 ARG D 557     -28.500  -3.111 -17.061  1.00 35.49    -0.235 N 
ATOM      8  NH2 ARG D 557     -26.734  -3.007 -15.637  1.00 35.49    -0.235 N 
ATOM      9  HH  ARG D 557     -29.117  -2.736 -17.522  1.00 35.49     0.174 HD
ATOM     10  HH  ARG D 557     -28.414  -3.963 -17.073  1.00 35.49     0.174 HD
ATOM     11  HH  ARG D 557     -26.203  -2.525 -15.174  1.00 35.49     0.174 HD
ATOM     12  HH  ARG D 557     -26.664  -3.851 -15.662  1.00 35.49     0.174 HD
ATOM     13  HE  ARG D 557     -27.189  -0.729 -15.693  1.00 35.49     0.178 HD
ENDBRANCH   4   5
ENDBRANCH   3   4
ENDBRANCH   2   3
ENDBRANCH   1   2
END_RES ARG D 557
BEGIN_RES GLU D 570
REMARK  3 active torsions:
REMARK  status: ('A' for Active; 'I' for Inactive)
REMARK    5  A    between atoms: CA   and  CB  
REMARK    6  A    between atoms: CB   and  CG  
REMARK    7  A    between atoms: CG   and  CD  
ROOT
ATOM     14  CA  GLU D 570     -18.033  -6.348 -13.375  1.00 32.92     0.160 C 
ENDROOT
BRANCH  14  15
ATOM     15  CB  GLU D 570     -19.500  -6.345 -13.794  1.00 32.92     0.043 C 
BRANCH  15  16
ATOM     16  CG  GLU D 570     -19.796  -6.301 -15.249  1.00 32.92     0.100 C 
BRANCH  16  17
ATOM     17  CD  GLU D 570     -21.050  -7.060 -15.619  1.00 32.92     0.185 C 
ATOM     18  OE1 GLU D 570     -22.103  -6.426 -15.820  1.00 32.92    -0.647 OA
ATOM     19  OE2 GLU D 570     -20.981  -8.302 -15.691  1.00 32.92    -0.647 OA
ENDBRANCH  16  17
ENDBRANCH  15  16
ENDBRANCH  14  15
END_RES GLU D 570
ENDMDL
MODEL 2
REMARK VINA RESULT:      -6.1      1.424      2.743
REMARK  6 active torsions:
REMARK  status: ('A' for Active; 'I' for Inactive)
REMARK    1  A    between atoms: C_1  and  C_2 
REMARK    2  A    between atoms: C_1  and  O_12 
REMARK    3  A    between atoms: C_3  and  O_11 
REMARK    4  A    between atoms: C_4  and  O_10 
REMARK    5  A    between atoms: C_5  and  N_9 
REMARK    6  A    between atoms: C_6  and  O_8 
ROOT
HETATM    1  C   UNL     1     -24.710  -2.419 -13.901  1.00  0.00     0.179 C 
HETATM    2  C   UNL     1     -24.041  -2.494 -12.492  1.00  0.00     0.180 C 
HETATM    3  C   UNL     1     -22.636  -3.127 -12.640  1.00  0.00     0.187 C 
HETATM    4  C   UNL     1     -22.707  -4.491 -13.372  1.00  0.00     0.303 C 
HETATM    5  C   UNL     1     -23.470  -4.289 -14.705  1.00  0.00     0.292 C 
HETATM    6  O   UNL     1     -24.761  -3.707 -14.519  1.00  0.00    -0.349 OA
ENDROOT
BRANCH   1   7
HETATM    7  C   UNL     1     -24.103  -1.325 -14.819  1.00  0.00     0.198 C 
BRANCH   7   8
HETATM    8  O   UNL     1     -24.959  -0.217 -14.894  1.00  0.00    -0.398 OA
HETATM    9  H   UNL     1     -25.826  -0.499 -14.498  1.00  0.00     0.209 HD
ENDBRANCH   7   8
ENDBRANCH   1   7
BRANCH   2  10
HETATM   10  O   UNL     1     -24.816  -3.230 -11.568  1.00  0.00    -0.390 OA
HETATM   11  H   UNL     1     -25.443  -2.631 -11.087  1.00  0.00     0.210 HD
ENDBRANCH   2  10
BRANCH   3  12
HETATM   12  O   UNL     1     -21.939  -3.211 -11.421  1.00  0.00    -0.391 OA
HETATM   13  H   UNL     1     -22.023  -4.134 -11.069  1.00  0.00     0.210 HD
ENDBRANCH   3  12
BRANCH   5  14
HETATM   14  O   UNL     1     -23.602  -5.516 -15.376  1.00  0.00    -0.369 OA
HETATM   15  H   UNL     1     -23.751  -6.218 -14.689  1.00  0.00     0.212 HD
ENDBRANCH   5  14
BRANCH   4  16
HETATM   16  N   UNL     1     -23.330  -5.551 -12.566  1.00  0.00     0.090 N 
HETATM   17  H   UNL     1     -24.028  -5.189 -11.881  1.00  0.00     0.313 HD
HETATM   18  H   UNL     1     -22.605  -6.129 -12.084  1.00  0.00     0.313 HD
ENDBRANCH   4  16
TORSDOF 6
BEGIN_RES ARG D 557
REMARK  4 active torsions:
REMARK  status: ('A' for Active; 'I' for Inactive)
REMARK    1  A    between atoms: CA   and  CB  
REMARK    2  A    between atoms: CB   and  CG  
REMARK    3  A    between atoms: CG   and  CD  
REMARK    4  A    between atoms: CD   and  NE  
REMARK       I    between atoms: NE   and  CZ  
REMARK       I    between atoms: CZ   and  NH1 
REMARK       I    between atoms: CZ   and  NH2 
ROOT
ATOM      1  CA  ARG D 557     -26.217   2.705 -17.014  1.00 35.49     0.159 C 
ENDROOT
BRANCH   1   2
ATOM      2  CB  ARG D 557     -26.789   1.319 -17.183  1.00 35.49     0.034 C 
BRANCH   2   3
ATOM      3  CG  ARG D 557     -28.238   1.224 -17.401  1.00 35.49     0.027 C 
BRANCH   3   4
ATOM      4  CD  ARG D 557     -28.882   0.248 -16.493  1.00 35.49     0.116 C 
BRANCH   4   5
ATOM      5  NE  ARG D 557     -28.006  -0.845 -16.162  1.00 35.49    -0.212 N 
ATOM      6  CZ  ARG D 557     -28.125  -2.082 -16.592  1.00 35.49     0.666 C 
ATOM      7  NH1 ARG D 557     -29.105  -2.464 -17.390  1.00 35.49    -0.235 N 
ATOM      8  NH2 ARG D 557     -27.225  -2.940 -16.207  1.00 35.49    -0.235 N 
ATOM      9  HH  ARG D 557     -29.706  -1.915 -17.657  1.00 35.49     0.174 HD
ATOM     10  HH  ARG D 557     -29.130  -3.283 -17.640  1.00 35.49     0.174 HD
ATOM     11  HH  ARG D 557     -26.600  -2.663 -15.698  1.00 35.49     0.174 HD
ATOM     12  HH  ARG D 557     -27.266  -3.746 -16.467  1.00 35.49     0.174 HD
ATOM     13  HE  ARG D 557     -27.388  -0.705 -15.595  1.00 35.49     0.178 HD
ENDBRANCH   4   5
ENDBRANCH   3   4
ENDBRANCH   2   3
ENDBRANCH   1   2
END_RES ARG D 557
BEGIN_RES GLU D 570
REMARK  3 active torsions:
REMARK  status: ('A' for Active; 'I' for Inactive)
REMARK    5  A    between atoms: CA   and  CB  
REMARK    6  A    between atoms: CB   and  CG  
REMARK    7  A    between atoms: CG   and  CD  
ROOT
ATOM     14  CA  GLU D 570     -18.033  -6.348 -13.375  1.00 32.92     0.160 C 
ENDROOT
BRANCH  14  15
ATOM     15  CB  GLU D 570     -19.500  -6.345 -13.794  1.00 32.92     0.043 C 
BRANCH  15  16
ATOM     16  CG  GLU D 570     -20.086  -7.634 -14.243  1.00 32.92     0.100 C 
BRANCH  16  17
ATOM     17  CD  GLU D 570     -20.748  -7.541 -15.598  1.00 32.92     0.185 C 
ATOM     18  OE1 GLU D 570     -20.899  -6.421 -16.122  1.00 32.92    -0.647 OA
ATOM     19  OE2 GLU D 570     -21.135  -8.599 -16.133  1.00 32.92    -0.647 OA
ENDBRANCH  16  17
ENDBRANCH  15  16
ENDBRANCH  14  15
END_RES GLU D 570
ENDMDL
MODEL 3
REMARK VINA RESULT:      -6.0      2.097      3.282
REMARK  6 active torsions:
REMARK  status: ('A' for Active; 'I' for Inactive)
REMARK    1  A    between atoms: C_1  and  C_2 
REMARK    2  A    between atoms: C_1  and  O_12 
REMARK    3  A    between atoms: C_3  and  O_11 
REMARK    4  A    between atoms: C_4  and  O_10 
REMARK    5  A    between atoms: C_5  and  N_9 
REMARK    6  A    between atoms: C_6  and  O_8 
ROOT
HETATM    1  C   UNL     1     -21.755  -4.616 -10.517  1.00  0.00     0.179 C 
HETATM    2  C   UNL     1     -22.830  -4.252 -11.589  1.00  0.00     0.180 C 
HETATM    3  C   UNL     1     -23.687  -3.078 -11.056  1.00  0.00     0.187 C 
HETATM    4  C   UNL     1     -24.279  -3.401  -9.661  1.00  0.00     0.303 C 
HETATM    5  C   UNL     1     -23.120  -3.831  -8.728  1.00  0.00     0.292 C 
HETATM    6  O   UNL     1     -22.360  -4.918  -9.258  1.00  0.00    -0.349 OA
ENDROOT
BRANCH   1   7
HETATM    7  C   UNL     1     -20.609  -3.575 -10.409  1.00  0.00     0.198 C 
BRANCH   7   8
HETATM    8  O   UNL     1     -20.229  -3.129 -11.685  1.00  0.00    -0.398 OA
HETATM    9  H   UNL     1     -20.351  -3.897 -12.303  1.00  0.00     0.209 HD
ENDBRANCH   7   8
ENDBRANCH   1   7
BRANCH   2  10
HETATM   10  O   UNL     1     -23.654  -5.352 -11.918  1.00  0.00    -0.390 OA
HETATM   11  H   UNL     1     -23.123  -6.061 -12.364  1.00  0.00     0.210 HD
ENDBRANCH   2  10
BRANCH   3  12
HETATM   12  O   UNL     1     -24.671  -2.657 -11.969  1.00  0.00    -0.391 OA
HETATM   13  H   UNL     1     -25.544  -2.619 -11.501  1.00  0.00     0.210 HD
ENDBRANCH   3  12
BRANCH   5  14
HETATM   14  O   UNL     1     -23.622  -4.183  -7.465  1.00  0.00    -0.369 OA
HETATM   15  H   UNL     1     -24.515  -3.759  -7.369  1.00  0.00     0.212 HD
ENDBRANCH   5  14
BRANCH   4  16
HETATM   16  N   UNL     1     -25.331  -4.427  -9.699  1.00  0.00     0.090 N 
HETATM   17  H   UNL     1     -25.256  -5.121  -8.924  1.00  0.00     0.313 HD
HETATM   18  H   UNL     1     -25.350  -4.910 -10.626  1.00  0.00     0.313 HD
ENDBRANCH   4  16
TORSDOF 6
BEGIN_RES ARG D 557
REMARK  4 active torsions:
REMARK  status: ('A' for Active; 'I' for Inactive)
REMARK    1  A    between atoms: CA   and  CB  
REMARK    2  A    between atoms: CB   and  CG  
REMARK    3  A    between atoms: CG   and  CD  
REMARK    4  A    between atoms: CD   and  NE  
REMARK       I    between atoms: NE   and  CZ  
REMARK       I    between atoms: CZ   and  NH1 
REMARK       I    between atoms: CZ   and  NH2 
ROOT
ATOM      1  CA  ARG D 557     -26.217   2.705 -17.014  1.00 35.49     0.159 C 
ENDROOT
BRANCH   1   2
ATOM      2  CB  ARG D 557     -26.789   1.319 -17.183  1.00 35.49     0.034 C 
BRANCH   2   3
ATOM      3  CG  ARG D 557     -28.234   1.226 -17.425  1.00 35.49     0.027 C 
BRANCH   3   4
ATOM      4  CD  ARG D 557     -28.905   0.300 -16.483  1.00 35.49     0.116 C 
BRANCH   4   5
ATOM      5  NE  ARG D 557     -29.306  -0.926 -17.121  1.00 35.49    -0.212 N 
ATOM      6  CZ  ARG D 557     -28.679  -2.077 -17.034  1.00 35.49     0.666 C 
ATOM      7  NH1 ARG D 557     -27.567  -2.229 -16.339  1.00 35.49    -0.235 N 
ATOM      8  NH2 ARG D 557     -29.198  -3.092 -17.662  1.00 35.49    -0.235 N 
ATOM      9  HH  ARG D 557     -27.209  -1.575 -15.916  1.00 35.49     0.174 HD
ATOM     10  HH  ARG D 557     -27.203  -3.004 -16.317  1.00 35.49     0.174 HD
ATOM     11  HH  ARG D 557     -29.920  -2.967 -18.097  1.00 35.49     0.174 HD
ATOM     12  HH  ARG D 557     -28.823  -3.852 -17.627  1.00 35.49     0.174 HD
ATOM     13  HE  ARG D 557     -29.973  -0.902 -17.648  1.00 35.49     0.178 HD
ENDBRANCH   4   5
ENDBRANCH   3   4
ENDBRANCH   2   3
ENDBRANCH   1   2
END_RES ARG D 557
BEGIN_RES GLU D 570
REMARK  3 active torsions:
REMARK  status: ('A' for Active; 'I' for Inactive)
REMARK    5  A    between atoms: CA   and  CB  
REMARK    6  A    between atoms: CB   and  CG  
REMARK    7  A    between atoms: CG   and  CD  
ROOT
ATOM     14  CA  GLU D 570     -18.033  -6.348 -13.375  1.00 32.92     0.160 C 
ENDROOT
BRANCH  14  15
ATOM     15  CB  GLU D 570     -19.500  -6.345 -13.794  1.00 32.92     0.043 C 
BRANCH  15  16
ATOM     16  CG  GLU D 570     -19.801  -6.109 -15.230  1.00 32.92     0.100 C 
BRANCH  16  17
ATOM     17  CD  GLU D 570     -21.198  -5.579 -15.459  1.00 32.92     0.185 C 
ATOM     18  OE1 GLU D 570     -21.473  -5.054 -16.555  1.00 32.92    -0.647 OA
ATOM     19  OE2 GLU D 570     -22.020  -5.675 -14.527  1.00 32.92    -0.647 OA
ENDBRANCH  16  17
ENDBRANCH  15  16
ENDBRANCH  14  15
END_RES GLU D 570
ENDMDL
MODEL 4
REMARK VINA RESULT:      -6.0      1.523      2.524
REMARK  6 active torsions:
REMARK  status: ('A' for Active; 'I' for Inactive)
REMARK    1  A    between atoms: C_1  and  C_2 
REMARK    2  A    between atoms: C_1  and  O_12 
REMARK    3  A    between atoms: C_3  and  O_11 
REMARK    4  A    between atoms: C_4  and  O_10 
REMARK    5  A    between atoms: C_5  and  N_9 
REMARK    6  A    between atoms: C_6  and  O_8 
ROOT
HETATM    1  C   UNL     1     -23.528  -2.277 -14.121  1.00  0.00     0.179 C 
HETATM    2  C   UNL     1     -23.101  -3.696 -14.611  1.00  0.00     0.180 C 
HETATM    3  C   UNL     1     -23.948  -4.756 -13.866  1.00  0.00     0.187 C 
HETATM    4  C   UNL     1     -23.858  -4.571 -12.331  1.00  0.00     0.303 C 
HETATM    5  C   UNL     1     -24.218  -3.103 -11.995  1.00  0.00     0.292 C 
HETATM    6  O   UNL     1     -23.410  -2.161 -12.702  1.00  0.00    -0.349 OA
ENDROOT
BRANCH   1   7
HETATM    7  C   UNL     1     -24.913  -1.826 -14.657  1.00  0.00     0.198 C 
BRANCH   7   8
HETATM    8  O   UNL     1     -24.973  -0.427 -14.745  1.00  0.00    -0.398 OA
HETATM    9  H   UNL     1     -25.660  -0.214 -15.430  1.00  0.00     0.209 HD
ENDBRANCH   7   8
ENDBRANCH   1   7
BRANCH   2  10
HETATM   10  O   UNL     1     -21.723  -3.941 -14.413  1.00  0.00    -0.390 OA
HETATM   11  H   UNL     1     -21.553  -4.222 -13.477  1.00  0.00     0.210 HD
ENDBRANCH   2  10
BRANCH   3  12
HETATM   12  O   UNL     1     -23.654  -6.074 -14.263  1.00  0.00    -0.391 OA
HETATM   13  H   UNL     1     -22.776  -6.079 -14.724  1.00  0.00     0.210 HD
ENDBRANCH   3  12
BRANCH   5  14
HETATM   14  O   UNL     1     -24.097  -2.880 -10.614  1.00  0.00    -0.369 OA
HETATM   15  H   UNL     1     -23.144  -3.013 -10.371  1.00  0.00     0.212 HD
ENDBRANCH   5  14
BRANCH   4  16
HETATM   16  N   UNL     1     -22.543  -4.929 -11.778  1.00  0.00     0.090 N 
HETATM   17  H   UNL     1     -22.514  -5.891 -11.377  1.00  0.00     0.313 HD
HETATM   18  H   UNL     1     -22.229  -4.225 -11.072  1.00  0.00     0.313 HD
ENDBRANCH   4  16
TORSDOF 6
BEGIN_RES ARG D 557
REMARK  4 active torsions:
REMARK  status: ('A' for Active; 'I' for Inactive)
REMARK    1  A    between atoms: CA   and  CB  
REMARK    2  A    between atoms: CB   and  CG  
REMARK    3  A    between atoms: CG   and  CD  
REMARK    4  A    between atoms: CD   and  NE  
REMARK       I    between atoms: NE   and  CZ  
REMARK       I    between atoms: CZ   and  NH1 
REMARK       I    between atoms: CZ   and  NH2 
ROOT
ATOM      1  CA  ARG D 557     -26.217   2.705 -17.014  1.00 35.49     0.159 C 
ENDROOT
BRANCH   1   2
ATOM      2  CB  ARG D 557     -26.789   1.319 -17.183  1.00 35.49     0.034 C 
BRANCH   2   3
ATOM      3  CG  ARG D 557     -28.232   1.226 -17.438  1.00 35.49     0.027 C 
BRANCH   3   4
ATOM      4  CD  ARG D 557     -28.914   0.310 -16.496  1.00 35.49     0.116 C 
BRANCH   4   5
ATOM      5  NE  ARG D 557     -28.174  -0.908 -16.292  1.00 35.49    -0.212 N 
ATOM      6  CZ  ARG D 557     -28.488  -2.087 -16.779  1.00 35.49     0.666 C 
ATOM      7  NH1 ARG D 557     -29.562  -2.286 -17.520  1.00 35.49    -0.235 N 
ATOM      8  NH2 ARG D 557     -27.690  -3.079 -16.510  1.00 35.49    -0.235 N 
ATOM      9  HH  ARG D 557     -30.100  -1.647 -17.712  1.00 35.49     0.174 HD
ATOM     10  HH  ARG D 557     -29.715  -3.076 -17.812  1.00 35.49     0.174 HD
ATOM     11  HH  ARG D 557     -27.000  -2.920 -16.035  1.00 35.49     0.174 HD
ATOM     12  HH  ARG D 557     -27.857  -3.855 -16.810  1.00 35.49     0.174 HD
ATOM     13  HE  ARG D 557     -27.506  -0.886 -15.766  1.00 35.49     0.178 HD
ENDBRANCH   4   5
ENDBRANCH   3   4
ENDBRANCH   2   3
ENDBRANCH   1   2
END_RES ARG D 557
BEGIN_RES GLU D 570
REMARK  3 active torsions:
REMARK  status: ('A' for Active; 'I' for Inactive)
REMARK    5  A    between atoms: CA   and  CB  
REMARK    6  A    between atoms: CB   and  CG  
REMARK    7  A    between atoms: CG   and  CD  
ROOT
ATOM     14  CA  GLU D 570     -18.033  -6.348 -13.375  1.00 32.92     0.160 C 
ENDROOT
BRANCH  14  15
ATOM     15  CB  GLU D 570     -19.500  -6.345 -13.794  1.00 32.92     0.043 C 
BRANCH  15  16
ATOM     16  CG  GLU D 570     -20.098  -7.642 -14.203  1.00 32.92     0.100 C 
BRANCH  16  17
ATOM     17  CD  GLU D 570     -20.825  -7.566 -15.525  1.00 32.92     0.185 C 
ATOM     18  OE1 GLU D 570     -21.006  -8.611 -16.178  1.00 32.92    -0.647 OA
ATOM     19  OE2 GLU D 570     -21.202  -6.445 -15.921  1.00 32.92    -0.647 OA
ENDBRANCH  16  17
ENDBRANCH  15  16
ENDBRANCH  14  15
END_RES GLU D 570
ENDMDL
MODEL 5
REMARK VINA RESULT:      -5.8      1.418      2.675
REMARK  6 active torsions:
REMARK  status: ('A' for Active; 'I' for Inactive)
REMARK    1  A    between atoms: C_1  and  C_2 
REMARK    2  A    between atoms: C_1  and  O_12 
REMARK    3  A    between atoms: C_3  and  O_11 
REMARK    4  A    between atoms: C_4  and  O_10 
REMARK    5  A    between atoms: C_5  and  N_9 
REMARK    6  A    between atoms: C_6  and  O_8 
ROOT
HETATM    1  C   UNL     1     -22.312  -4.444 -12.243  1.00  0.00     0.179 C 
HETATM    2  C   UNL     1     -22.290  -4.102 -13.766  1.00  0.00     0.180 C 
HETATM    3  C   UNL     1     -22.940  -2.712 -13.974  1.00  0.00     0.187 C 
HETATM    4  C   UNL     1     -24.352  -2.650 -13.340  1.00  0.00     0.303 C 
HETATM    5  C   UNL     1     -24.242  -3.098 -11.862  1.00  0.00     0.292 C 
HETATM    6  O   UNL     1     -23.640  -4.385 -11.718  1.00  0.00    -0.349 OA
ENDROOT
BRANCH   1   7
HETATM    7  C   UNL     1     -21.290  -3.627 -11.409  1.00  0.00     0.198 C 
BRANCH   7   8
HETATM    8  O   UNL     1     -19.987  -3.841 -11.883  1.00  0.00    -0.398 OA
HETATM    9  H   UNL     1     -19.701  -4.729 -11.542  1.00  0.00     0.209 HD
ENDBRANCH   7   8
ENDBRANCH   1   7
BRANCH   2  10
HETATM   10  O   UNL     1     -22.955  -5.076 -14.545  1.00  0.00    -0.390 OA
HETATM   11  H   UNL     1     -22.972  -5.947 -14.069  1.00  0.00     0.210 HD
ENDBRANCH   2  10
BRANCH   3  12
HETATM   12  O   UNL     1     -22.941  -2.302 -15.320  1.00  0.00    -0.391 OA
HETATM   13  H   UNL     1     -23.698  -1.678 -15.463  1.00  0.00     0.210 HD
ENDBRANCH   3  12
BRANCH   5  14
HETATM   14  O   UNL     1     -25.512  -3.105 -11.263  1.00  0.00    -0.369 OA
HETATM   15  H   UNL     1     -25.431  -2.653 -10.383  1.00  0.00     0.212 HD
ENDBRANCH   5  14
BRANCH   4  16
HETATM   16  N   UNL     1     -25.348  -3.456 -14.060  1.00  0.00     0.090 N 
HETATM   17  H   UNL     1     -25.752  -2.967 -14.887  1.00  0.00     0.313 HD
HETATM   18  H   UNL     1     -26.106  -3.778 -13.416  1.00  0.00     0.313 HD
ENDBRANCH   4  16
TORSDOF 6
BEGIN_RES ARG D 557
REMARK  4 active torsions:
REMARK  status: ('A' for Active; 'I' for Inactive)
REMARK    1  A    between atoms: CA   and  CB  
REMARK    2  A    between atoms: CB   and  CG  
REMARK    3  A    between atoms: CG   and  CD  
REMARK    4  A    between atoms: CD   and  NE  
REMARK       I    between atoms: NE   and  CZ  
REMARK       I    between atoms: CZ   and  NH1 
REMARK       I    between atoms: CZ   and  NH2 
ROOT
ATOM      1  CA  ARG D 557     -26.217   2.705 -17.014  1.00 35.49     0.159 C 
ENDROOT
BRANCH   1   2
ATOM      2  CB  ARG D 557     -26.789   1.319 -17.183  1.00 35.49     0.034 C 
BRANCH   2   3
ATOM      3  CG  ARG D 557     -28.154   1.103 -16.688  1.00 35.49     0.027 C 
BRANCH   3   4
ATOM      4  CD  ARG D 557     -28.789  -0.092 -17.289  1.00 35.49     0.116 C 
BRANCH   4   5
ATOM      5  NE  ARG D 557     -28.172  -1.315 -16.847  1.00 35.49    -0.212 N 
ATOM      6  CZ  ARG D 557     -28.650  -2.526 -17.028  1.00 35.49     0.666 C 
ATOM      7  NH1 ARG D 557     -29.796  -2.751 -17.645  1.00 35.49    -0.235 N 
ATOM      8  NH2 ARG D 557     -27.946  -3.523 -16.578  1.00 35.49    -0.235 N 
ATOM      9  HH  ARG D 557     -30.275  -2.110 -17.951  1.00 35.49     0.174 HD
ATOM     10  HH  ARG D 557     -30.056  -3.562 -17.736  1.00 35.49     0.174 HD
ATOM     11  HH  ARG D 557     -27.206  -3.347 -16.190  1.00 35.49     0.174 HD
ATOM     12  HH  ARG D 557     -28.220  -4.319 -16.679  1.00 35.49     0.174 HD
ATOM     13  HE  ARG D 557     -27.466  -1.258 -16.377  1.00 35.49     0.178 HD
ENDBRANCH   4   5
ENDBRANCH   3   4
ENDBRANCH   2   3
ENDBRANCH   1   2
END_RES ARG D 557
BEGIN_RES GLU D 570
REMARK  3 active torsions:
REMARK  status: ('A' for Active; 'I' for Inactive)
REMARK    5  A    between atoms: CA   and  CB  
REMARK    6  A    between atoms: CB   and  CG  
REMARK    7  A    between atoms: CG   and  CD  
ROOT
ATOM     14  CA  GLU D 570     -18.033  -6.348 -13.375  1.00 32.92     0.160 C 
ENDROOT
BRANCH  14  15
ATOM     15  CB  GLU D 570     -19.500  -6.345 -13.794  1.00 32.92     0.043 C 
BRANCH  15  16
ATOM     16  CG  GLU D 570     -19.993  -7.513 -14.570  1.00 32.92     0.100 C 
BRANCH  16  17
ATOM     17  CD  GLU D 570     -20.886  -7.119 -15.723  1.00 32.92     0.185 C 
ATOM     18  OE1 GLU D 570     -21.900  -7.802 -15.963  1.00 32.92    -0.647 OA
ATOM     19  OE2 GLU D 570     -20.559  -6.128 -16.404  1.00 32.92    -0.647 OA
ENDBRANCH  16  17
ENDBRANCH  15  16
ENDBRANCH  14  15
END_RES GLU D 570
ENDMDL
MODEL 6
REMARK VINA RESULT:      -5.7      1.686      3.135
REMARK  6 active torsions:
REMARK  status: ('A' for Active; 'I' for Inactive)
REMARK    1  A    between atoms: C_1  and  C_2 
REMARK    2  A    between atoms: C_1  and  O_12 
REMARK    3  A    between atoms: C_3  and  O_11 
REMARK    4  A    between atoms: C_4  and  O_10 
REMARK    5  A    between atoms: C_5  and  N_9 
REMARK    6  A    between atoms: C_6  and  O_8 
ROOT
HETATM    1  C   UNL     1     -23.702  -2.996 -12.512  1.00  0.00     0.179 C 
HETATM    2  C   UNL     1     -22.202  -3.229 -12.149  1.00  0.00     0.180 C 
HETATM    3  C   UNL     1     -22.094  -4.493 -11.261  1.00  0.00     0.187 C 
HETATM    4  C   UNL     1     -23.028  -4.396 -10.029  1.00  0.00     0.303 C 
HETATM    5  C   UNL     1     -24.459  -4.075 -10.526  1.00  0.00     0.292 C 
HETATM    6  O   UNL     1     -24.511  -2.900 -11.337  1.00  0.00    -0.349 OA
ENDROOT
BRANCH   1   7
HETATM    7  C   UNL     1     -24.253  -4.008 -13.551  1.00  0.00     0.198 C 
BRANCH   7   8
HETATM    8  O   UNL     1     -23.888  -3.625 -14.851  1.00  0.00    -0.398 OA
HETATM    9  H   UNL     1     -23.100  -3.027 -14.760  1.00  0.00     0.209 HD
ENDBRANCH   7   8
ENDBRANCH   1   7
BRANCH   2  10
HETATM   10  O   UNL     1     -21.629  -2.117 -11.491  1.00  0.00    -0.390 OA
HETATM   11  H   UNL     1     -21.871  -1.276 -11.959  1.00  0.00     0.210 HD
ENDBRANCH   2  10
BRANCH   3  12
HETATM   12  O   UNL     1     -20.769  -4.803 -10.903  1.00  0.00    -0.391 OA
HETATM   13  H   UNL     1     -20.717  -5.766 -10.679  1.00  0.00     0.210 HD
ENDBRANCH   3  12
BRANCH   5  14
HETATM   14  O   UNL     1     -25.328  -3.928  -9.433  1.00  0.00    -0.369 OA
HETATM   15  H   UNL     1     -25.586  -2.970  -9.382  1.00  0.00     0.212 HD
ENDBRANCH   5  14
BRANCH   4  16
HETATM   16  N   UNL     1     -22.582  -3.406  -9.037  1.00  0.00     0.090 N 
HETATM   17  H   UNL     1     -22.362  -3.826  -8.109  1.00  0.00     0.313 HD
HETATM   18  H   UNL     1     -23.281  -2.635  -8.938  1.00  0.00     0.313 HD
ENDBRANCH   4  16
TORSDOF 6
BEGIN_RES ARG D 557
REMARK  4 active torsions:
REMARK  status: ('A' for Active; 'I' for Inactive)
REMARK    1  A    between atoms: CA   and  CB  
REMARK    2  A    between atoms: CB   and  CG  
REMARK    3  A    between atoms: CG   and  CD  
REMARK    4  A    between atoms: CD   and  NE  
REMARK       I    between atoms: NE   and  CZ  
REMARK       I    between atoms: CZ   and  NH1 
REMARK       I    between atoms: CZ   and  NH2 
ROOT
ATOM      1  CA  ARG D 557     -26.217   2.705 -17.014  1.00 35.49     0.159 C 
ENDROOT
BRANCH   1   2
ATOM      2  CB  ARG D 557     -26.789   1.319 -17.183  1.00 35.49     0.034 C 
BRANCH   2   3
ATOM      3  CG  ARG D 557     -28.232   1.226 -17.434  1.00 35.49     0.027 C 
BRANCH   3   4
ATOM      4  CD  ARG D 557     -28.910   0.301 -16.497  1.00 35.49     0.116 C 
BRANCH   4   5
ATOM      5  NE  ARG D 557     -29.300  -0.928 -17.135  1.00 35.49    -0.212 N 
ATOM      6  CZ  ARG D 557     -28.672  -2.079 -17.035  1.00 35.49     0.666 C 
ATOM      7  NH1 ARG D 557     -27.570  -2.226 -16.323  1.00 35.49    -0.235 N 
ATOM      8  NH2 ARG D 557     -29.180  -3.097 -17.666  1.00 35.49    -0.235 N 
ATOM      9  HH  ARG D 557     -27.219  -1.570 -15.897  1.00 35.49     0.174 HD
ATOM     10  HH  ARG D 557     -27.206  -3.000 -16.292  1.00 35.49     0.174 HD
ATOM     11  HH  ARG D 557     -29.897  -2.974 -18.113  1.00 35.49     0.174 HD
ATOM     12  HH  ARG D 557     -28.806  -3.856 -17.622  1.00 35.49     0.174 HD
ATOM     13  HE  ARG D 557     -29.959  -0.908 -17.673  1.00 35.49     0.178 HD
ENDBRANCH   4   5
ENDBRANCH   3   4
ENDBRANCH   2   3
ENDBRANCH   1   2
END_RES ARG D 557
BEGIN_RES GLU D 570
REMARK  3 active torsions:
REMARK  status: ('A' for Active; 'I' for Inactive)
REMARK    5  A    between atoms: CA   and  CB  
REMARK    6  A    between atoms: CB   and  CG  
REMARK    7  A    between atoms: CG   and  CD  
ROOT
ATOM     14  CA  GLU D 570     -18.033  -6.348 -13.375  1.00 32.92     0.160 C 
ENDROOT
BRANCH  14  15
ATOM     15  CB  GLU D 570     -19.500  -6.345 -13.794  1.00 32.92     0.043 C 
BRANCH  15  16
ATOM     16  CG  GLU D 570     -19.810  -5.979 -15.200  1.00 32.92     0.100 C 
BRANCH  16  17
ATOM     17  CD  GLU D 570     -21.273  -5.674 -15.421  1.00 32.92     0.185 C 
ATOM     18  OE1 GLU D 570     -22.127  -6.303 -14.769  1.00 32.92    -0.647 OA
ATOM     19  OE2 GLU D 570     -21.568  -4.807 -16.268  1.00 32.92    -0.647 OA
ENDBRANCH  16  17
ENDBRANCH  15  16
ENDBRANCH  14  15
END_RES GLU D 570
ENDMDL
MODEL 7
REMARK VINA RESULT:      -5.6      6.858      9.155
REMARK  6 active torsions:
REMARK  status: ('A' for Active; 'I' for Inactive)
REMARK    1  A    between atoms: C_1  and  C_2 
REMARK    2  A    between atoms: C_1  and  O_12 
REMARK    3  A    between atoms: C_3  and  O_11 
REMARK    4  A    between atoms: C_4  and  O_10 
REMARK    5  A    between atoms: C_5  and  N_9 
REMARK    6  A    between atoms: C_6  and  O_8 
ROOT
HETATM    1  C   UNL     1     -34.060  -3.449 -11.862  1.00  0.00     0.179 C 
HETATM    2  C   UNL     1     -34.280  -2.506 -10.638  1.00  0.00     0.180 C 
HETATM    3  C   UNL     1     -35.601  -1.725 -10.842  1.00  0.00     0.187 C 
HETATM    4  C   UNL     1     -35.618  -0.992 -12.207  1.00  0.00     0.303 C 
HETATM    5  C   UNL     1     -35.298  -2.024 -13.317  1.00  0.00     0.292 C 
HETATM    6  O   UNL     1     -34.070  -2.717 -13.089  1.00  0.00    -0.349 OA
ENDROOT
BRANCH   1   7
HETATM    7  C   UNL     1     -35.008  -4.677 -11.877  1.00  0.00     0.198 C 
BRANCH   7   8
HETATM    8  O   UNL     1     -34.952  -5.325 -13.120  1.00  0.00    -0.398 OA
HETATM    9  H   UNL     1     -34.632  -4.653 -13.777  1.00  0.00     0.209 HD
ENDBRANCH   7   8
ENDBRANCH   1   7
BRANCH   2  10
HETATM   10  O   UNL     1     -33.203  -1.609 -10.451  1.00  0.00    -0.390 OA
HETATM   11  H   UNL     1     -32.822  -1.711  -9.541  1.00  0.00     0.210 HD
ENDBRANCH   2  10
BRANCH   3  12
HETATM   12  O   UNL     1     -35.902  -0.863  -9.770  1.00  0.00    -0.391 OA
HETATM   13  H   UNL     1     -35.427  -1.183  -8.961  1.00  0.00     0.210 HD
ENDBRANCH   3  12
BRANCH   5  14
HETATM   14  O   UNL     1     -35.252  -1.388 -14.568  1.00  0.00    -0.369 OA
HETATM   15  H   UNL     1     -34.387  -1.625 -14.993  1.00  0.00     0.212 HD
ENDBRANCH   5  14
BRANCH   4  16
HETATM   16  N   UNL     1     -34.690   0.147 -12.267  1.00  0.00     0.090 N 
HETATM   17  H   UNL     1     -34.892   0.800 -13.054  1.00  0.00     0.313 HD
HETATM   18  H   UNL     1     -33.698  -0.179 -12.302  1.00  0.00     0.313 HD
ENDBRANCH   4  16
TORSDOF 6
BEGIN_RES ARG D 557
REMARK  4 active torsions:
REMARK  status: ('A' for Active; 'I' for Inactive)
REMARK    1  A    between atoms: CA   and  CB  
REMARK    2  A    between atoms: CB   and  CG  
REMARK    3  A    between atoms: CG   and  CD  
REMARK    4  A    between atoms: CD   and  NE  
REMARK       I    between atoms: NE   and  CZ  
REMARK       I    between atoms: CZ   and  NH1 
REMARK       I    between atoms: CZ   and  NH2 
ROOT
ATOM      1  CA  ARG D 557     -26.217   2.705 -17.014  1.00 35.49     0.159 C 
ENDROOT
BRANCH   1   2
ATOM      2  CB  ARG D 557     -26.789   1.319 -17.183  1.00 35.49     0.034 C 
BRANCH   2   3
ATOM      3  CG  ARG D 557     -25.835   0.203 -17.159  1.00 35.49     0.027 C 
BRANCH   3   4
ATOM      4  CD  ARG D 557     -24.749   0.411 -16.174  1.00 35.49     0.116 C 
BRANCH   4   5
ATOM      5  NE  ARG D 557     -24.895  -0.436 -15.019  1.00 35.49    -0.212 N 
ATOM      6  CZ  ARG D 557     -24.079  -1.405 -14.670  1.00 35.49     0.666 C 
ATOM      7  NH1 ARG D 557     -23.010  -1.722 -15.377  1.00 35.49    -0.235 N 
ATOM      8  NH2 ARG D 557     -24.355  -2.057 -13.578  1.00 35.49    -0.235 N 
ATOM      9  HH  ARG D 557     -22.808  -1.305 -16.098  1.00 35.49     0.174 HD
ATOM     10  HH  ARG D 557     -22.513  -2.362 -15.099  1.00 35.49     0.174 HD
ATOM     11  HH  ARG D 557     -25.047  -1.826 -13.137  1.00 35.49     0.174 HD
ATOM     12  HH  ARG D 557     -23.849  -2.687 -13.318  1.00 35.49     0.174 HD
ATOM     13  HE  ARG D 557     -25.596  -0.349 -14.546  1.00 35.49     0.178 HD
ENDBRANCH   4   5
ENDBRANCH   3   4
ENDBRANCH   2   3
ENDBRANCH   1   2
END_RES ARG D 557
BEGIN_RES GLU D 570
REMARK  3 active torsions:
REMARK  status: ('A' for Active; 'I' for Inactive)
REMARK    5  A    between atoms: CA   and  CB  
REMARK    6  A    between atoms: CB   and  CG  
REMARK    7  A    between atoms: CG   and  CD  
ROOT
ATOM     14  CA  GLU D 570     -18.033  -6.348 -13.375  1.00 32.92     0.160 C 
ENDROOT
BRANCH  14  15
ATOM     15  CB  GLU D 570     -19.500  -6.345 -13.794  1.00 32.92     0.043 C 
BRANCH  15  16
ATOM     16  CG  GLU D 570     -20.441  -5.529 -12.985  1.00 32.92     0.100 C 
BRANCH  16  17
ATOM     17  CD  GLU D 570     -21.737  -5.236 -13.705  1.00 32.92     0.185 C 
ATOM     18  OE1 GLU D 570     -22.301  -4.141 -13.515  1.00 32.92    -0.647 OA
ATOM     19  OE2 GLU D 570     -22.201  -6.117 -14.455  1.00 32.92    -0.647 OA
ENDBRANCH  16  17
ENDBRANCH  15  16
ENDBRANCH  14  15
END_RES GLU D 570
ENDMDL
MODEL 8
REMARK VINA RESULT:      -5.6      1.530      2.975
REMARK  6 active torsions:
REMARK  status: ('A' for Active; 'I' for Inactive)
REMARK    1  A    between atoms: C_1  and  C_2 
REMARK    2  A    between atoms: C_1  and  O_12 
REMARK    3  A    between atoms: C_3  and  O_11 
REMARK    4  A    between atoms: C_4  and  O_10 
REMARK    5  A    between atoms: C_5  and  N_9 
REMARK    6  A    between atoms: C_6  and  O_8 
ROOT
HETATM    1  C   UNL     1     -23.570  -3.715 -12.601  1.00  0.00     0.179 C 
HETATM    2  C   UNL     1     -22.103  -3.452 -12.138  1.00  0.00     0.180 C 
HETATM    3  C   UNL     1     -21.718  -4.512 -11.077  1.00  0.00     0.187 C 
HETATM    4  C   UNL     1     -22.744  -4.545  -9.916  1.00  0.00     0.303 C 
HETATM    5  C   UNL     1     -24.159  -4.719 -10.521  1.00  0.00     0.292 C 
HETATM    6  O   UNL     1     -24.471  -3.718 -11.492  1.00  0.00    -0.349 OA
ENDROOT
BRANCH   1   7
HETATM    7  C   UNL     1     -23.720  -4.962 -13.512  1.00  0.00     0.198 C 
BRANCH   7   8
HETATM    8  O   UNL     1     -23.689  -4.588 -14.865  1.00  0.00    -0.398 OA
HETATM    9  H   UNL     1     -23.300  -3.675 -14.899  1.00  0.00     0.209 HD
ENDBRANCH   7   8
ENDBRANCH   1   7
BRANCH   2  10
HETATM   10  O   UNL     1     -21.928  -2.150 -11.617  1.00  0.00    -0.390 OA
HETATM   11  H   UNL     1     -22.219  -1.471 -12.279  1.00  0.00     0.210 HD
ENDBRANCH   2  10
BRANCH   3  12
HETATM   12  O   UNL     1     -20.396  -4.375 -10.616  1.00  0.00    -0.391 OA
HETATM   13  H   UNL     1     -20.416  -4.146  -9.652  1.00  0.00     0.210 HD
ENDBRANCH   3  12
BRANCH   5  14
HETATM   14  O   UNL     1     -25.125  -4.701  -9.503  1.00  0.00    -0.369 OA
HETATM   15  H   UNL     1     -24.800  -5.288  -8.771  1.00  0.00     0.212 HD
ENDBRANCH   5  14
BRANCH   4  16
HETATM   16  N   UNL     1     -22.685  -3.355  -9.054  1.00  0.00     0.090 N 
HETATM   17  H   UNL     1     -21.718  -2.985  -8.932  1.00  0.00     0.313 HD
HETATM   18  H   UNL     1     -23.129  -3.541  -8.127  1.00  0.00     0.313 HD
ENDBRANCH   4  16
TORSDOF 6
BEGIN_RES ARG D 557
REMARK  4 active torsions:
REMARK  status: ('A' for Active; 'I' for Inactive)
REMARK    1  A    between atoms: CA   and  CB  
REMARK    2  A    between atoms: CB   and  CG  
REMARK    3  A    between atoms: CG   and  CD  
REMARK    4  A    between atoms: CD   and  NE  
REMARK       I    between atoms: NE   and  CZ  
REMARK       I    between atoms: CZ   and  NH1 
REMARK       I    between atoms: CZ   and  NH2 
ROOT
ATOM      1  CA  ARG D 557     -26.217   2.705 -17.014  1.00 35.49     0.159 C 
ENDROOT
BRANCH   1   2
ATOM      2  CB  ARG D 557     -26.789   1.319 -17.183  1.00 35.49     0.034 C 
BRANCH   2   3
ATOM      3  CG  ARG D 557     -28.202   1.140 -16.829  1.00 35.49     0.027 C 
BRANCH   3   4
ATOM      4  CD  ARG D 557     -28.537  -0.274 -16.543  1.00 35.49     0.116 C 
BRANCH   4   5
ATOM      5  NE  ARG D 557     -27.470  -0.958 -15.863  1.00 35.49    -0.212 N 
ATOM      6  CZ  ARG D 557     -27.218  -2.246 -15.927  1.00 35.49     0.666 C 
ATOM      7  NH1 ARG D 557     -27.957  -3.078 -16.638  1.00 35.49    -0.235 N 
ATOM      8  NH2 ARG D 557     -26.194  -2.692 -15.260  1.00 35.49    -0.235 N 
ATOM      9  HH  ARG D 557     -28.634  -2.806 -17.087  1.00 35.49     0.174 HD
ATOM     10  HH  ARG D 557     -27.743  -3.908 -16.645  1.00 35.49     0.174 HD
ATOM     11  HH  ARG D 557     -25.730  -2.131 -14.815  1.00 35.49     0.174 HD
ATOM     12  HH  ARG D 557     -25.998  -3.517 -15.280  1.00 35.49     0.174 HD
ATOM     13  HE  ARG D 557     -26.988  -0.510 -15.324  1.00 35.49     0.178 HD
ENDBRANCH   4   5
ENDBRANCH   3   4
ENDBRANCH   2   3
ENDBRANCH   1   2
END_RES ARG D 557
BEGIN_RES GLU D 570
REMARK  3 active torsions:
REMARK  status: ('A' for Active; 'I' for Inactive)
REMARK    5  A    between atoms: CA   and  CB  
REMARK    6  A    between atoms: CB   and  CG  
REMARK    7  A    between atoms: CG   and  CD  
ROOT
ATOM     14  CA  GLU D 570     -18.033  -6.348 -13.375  1.00 32.92     0.160 C 
ENDROOT
BRANCH  14  15
ATOM     15  CB  GLU D 570     -19.500  -6.345 -13.794  1.00 32.92     0.043 C 
BRANCH  15  16
ATOM     16  CG  GLU D 570     -19.796  -6.356 -15.250  1.00 32.92     0.100 C 
BRANCH  16  17
ATOM     17  CD  GLU D 570     -20.886  -7.334 -15.622  1.00 32.92     0.185 C 
ATOM     18  OE1 GLU D 570     -22.025  -6.901 -15.881  1.00 32.92    -0.647 OA
ATOM     19  OE2 GLU D 570     -20.602  -8.548 -15.639  1.00 32.92    -0.647 OA
ENDBRANCH  16  17
ENDBRANCH  15  16
ENDBRANCH  14  15
END_RES GLU D 570
ENDMDL
MODEL 9
REMARK VINA RESULT:      -5.4      6.722      8.976
REMARK  6 active torsions:
REMARK  status: ('A' for Active; 'I' for Inactive)
REMARK    1  A    between atoms: C_1  and  C_2 
REMARK    2  A    between atoms: C_1  and  O_12 
REMARK    3  A    between atoms: C_3  and  O_11 
REMARK    4  A    between atoms: C_4  and  O_10 
REMARK    5  A    between atoms: C_5  and  N_9 
REMARK    6  A    between atoms: C_6  and  O_8 
ROOT
HETATM    1  C   UNL     1     -34.052  -3.439 -11.877  1.00  0.00     0.179 C 
HETATM    2  C   UNL     1     -34.271  -2.497 -10.652  1.00  0.00     0.180 C 
HETATM    3  C   UNL     1     -35.596  -1.720 -10.850  1.00  0.00     0.187 C 
HETATM    4  C   UNL     1     -35.619  -0.987 -12.215  1.00  0.00     0.303 C 
HETATM    5  C   UNL     1     -35.300  -2.017 -13.327  1.00  0.00     0.292 C 
HETATM    6  O   UNL     1     -34.069  -2.706 -13.104  1.00  0.00    -0.349 OA
ENDROOT
BRANCH   1   7
HETATM    7  C   UNL     1     -34.997  -4.670 -11.890  1.00  0.00     0.198 C 
BRANCH   7   8
HETATM    8  O   UNL     1     -34.958  -5.306 -13.140  1.00  0.00    -0.398 OA
HETATM    9  H   UNL     1     -34.008  -5.542 -13.311  1.00  0.00     0.209 HD
ENDBRANCH   7   8
ENDBRANCH   1   7
BRANCH   2  10
HETATM   10  O   UNL     1     -33.197  -1.597 -10.468  1.00  0.00    -0.390 OA
HETATM   11  H   UNL     1     -33.045  -1.067 -11.292  1.00  0.00     0.210 HD
ENDBRANCH   2  10
BRANCH   3  12
HETATM   12  O   UNL     1     -35.895  -0.861  -9.778  1.00  0.00    -0.391 OA
HETATM   13  H   UNL     1     -36.607  -1.276  -9.226  1.00  0.00     0.210 HD
ENDBRANCH   3  12
BRANCH   5  14
HETATM   14  O   UNL     1     -35.261  -1.380 -14.578  1.00  0.00    -0.369 OA
HETATM   15  H   UNL     1     -34.792  -0.513 -14.457  1.00  0.00     0.212 HD
ENDBRANCH   5  14
BRANCH   4  16
HETATM   16  N   UNL     1     -34.696   0.155 -12.277  1.00  0.00     0.090 N 
HETATM   17  H   UNL     1     -33.936   0.031 -12.980  1.00  0.00     0.313 HD
HETATM   18  H   UNL     1     -34.296   0.365 -11.335  1.00  0.00     0.313 HD
ENDBRANCH   4  16
TORSDOF 6
BEGIN_RES ARG D 557
REMARK  4 active torsions:
REMARK  status: ('A' for Active; 'I' for Inactive)
REMARK    1  A    between atoms: CA   and  CB  
REMARK    2  A    between atoms: CB   and  CG  
REMARK    3  A    between atoms: CG   and  CD  
REMARK    4  A    between atoms: CD   and  NE  
REMARK       I    between atoms: NE   and  CZ  
REMARK       I    between atoms: CZ   and  NH1 
REMARK       I    between atoms: CZ   and  NH2 
ROOT
ATOM      1  CA  ARG D 557     -26.217   2.705 -17.014  1.00 35.49     0.159 C 
ENDROOT
BRANCH   1   2
ATOM      2  CB  ARG D 557     -26.789   1.319 -17.183  1.00 35.49     0.034 C 
BRANCH   2   3
ATOM      3  CG  ARG D 557     -28.238   1.224 -17.396  1.00 35.49     0.027 C 
BRANCH   3   4
ATOM      4  CD  ARG D 557     -28.884   0.269 -16.466  1.00 35.49     0.116 C 
BRANCH   4   5
ATOM      5  NE  ARG D 557     -29.262  -0.955 -17.121  1.00 35.49    -0.212 N 
ATOM      6  CZ  ARG D 557     -28.632  -2.104 -17.024  1.00 35.49     0.666 C 
ATOM      7  NH1 ARG D 557     -27.539  -2.255 -16.298  1.00 35.49    -0.235 N 
ATOM      8  NH2 ARG D 557     -29.128  -3.118 -17.671  1.00 35.49    -0.235 N 
ATOM      9  HH  ARG D 557     -27.196  -1.602 -15.862  1.00 35.49     0.174 HD
ATOM     10  HH  ARG D 557     -27.172  -3.029 -16.270  1.00 35.49     0.174 HD
ATOM     11  HH  ARG D 557     -29.839  -2.993 -18.126  1.00 35.49     0.174 HD
ATOM     12  HH  ARG D 557     -28.752  -3.877 -17.630  1.00 35.49     0.174 HD
ATOM     13  HE  ARG D 557     -29.913  -0.931 -17.667  1.00 35.49     0.178 HD
ENDBRANCH   4   5
ENDBRANCH   3   4
ENDBRANCH   2   3
ENDBRANCH   1   2
END_RES ARG D 557
BEGIN_RES GLU D 570
REMARK  3 active torsions:
REMARK  status: ('A' for Active; 'I' for Inactive)
REMARK    5  A    between atoms: CA   and  CB  
REMARK    6  A    between atoms: CB   and  CG  
REMARK    7  A    between atoms: CG   and  CD  
ROOT
ATOM     14  CA  GLU D 570     -18.033  -6.348 -13.375  1.00 32.92     0.160 C 
ENDROOT
BRANCH  14  15
ATOM     15  CB  GLU D 570     -19.500  -6.345 -13.794  1.00 32.92     0.043 C 
BRANCH  15  16
ATOM     16  CG  GLU D 570     -20.450  -5.572 -12.954  1.00 32.92     0.100 C 
BRANCH  16  17
ATOM     17  CD  GLU D 570     -21.695  -5.155 -13.702  1.00 32.92     0.185 C 
ATOM     18  OE1 GLU D 570     -21.660  -5.091 -14.946  1.00 32.92    -0.647 OA
ATOM     19  OE2 GLU D 570     -22.711  -4.874 -13.037  1.00 32.92    -0.647 OA
ENDBRANCH  16  17
ENDBRANCH  15  16
ENDBRANCH  14  15
END_RES GLU D 570
ENDMDL
