MODEL 1
REMARK VINA RESULT:      -1.2      0.000      0.000
REMARK  13 active torsions:
REMARK  status: ('A' for Active; 'I' for Inactive)
REMARK    1  A    between atoms: O_2  and  C_3 
REMARK    2  A    between atoms: C_7  and  C_10 
REMARK    3  A    between atoms: C_8  and  O_9 
REMARK    4  A    between atoms: C_10  and  C_11 
REMARK    5  A    between atoms: C_11  and  C_12 
REMARK    6  A    between atoms: C_11  and  O_17 
REMARK    7  A    between atoms: C_12  and  S_13 
REMARK    8  A    between atoms: O_17  and  C_18 
REMARK    9  A    between atoms: C_19  and  O_31 
REMARK   10  A    between atoms: C_21  and  C_24 
REMARK   11  A    between atoms: C_24  and  C_25 
REMARK   12  A    between atoms: C_25  and  C_26 
REMARK   13  A    between atoms: C_26  and  S_27 
ROOT
HETATM    1 NA   UNL     2     -27.024 -13.660 -13.031  1.00  0.00     0.000 Na
ENDROOT
TORSDOF 13
BEGIN_RES ARG D 557
REMARK  4 active torsions:
REMARK  status: ('A' for Active; 'I' for Inactive)
REMARK    1  A    between atoms: CA   and  CB  
REMARK    2  A    between atoms: CB   and  CG  
REMARK    3  A    between atoms: CG   and  CD  
REMARK    4  A    between atoms: CD   and  NE  
REMARK       I    between atoms: NE   and  CZ  
REMARK       I    between atoms: CZ   and  NH1 
REMARK       I    between atoms: CZ   and  NH2 
ROOT
ATOM      1  CA  ARG D 557     -26.217   2.705 -17.014  1.00 35.49     0.159 C 
ENDROOT
BRANCH   1   2
ATOM      2  CB  ARG D 557     -26.789   1.319 -17.183  1.00 35.49     0.034 C 
BRANCH   2   3
ATOM      3  CG  ARG D 557     -25.836   0.203 -17.151  1.00 35.49     0.027 C 
BRANCH   3   4
ATOM      4  CD  ARG D 557     -24.751   0.415 -16.166  1.00 35.49     0.116 C 
BRANCH   4   5
ATOM      5  NE  ARG D 557     -24.893  -0.434 -15.012  1.00 35.49    -0.212 N 
ATOM      6  CZ  ARG D 557     -24.078  -1.406 -14.669  1.00 35.49     0.666 C 
ATOM      7  NH1 ARG D 557     -23.014  -1.724 -15.383  1.00 35.49    -0.235 N 
ATOM      8  NH2 ARG D 557     -24.349  -2.060 -13.577  1.00 35.49    -0.235 N 
ATOM      9  HH  ARG D 557     -22.815  -1.306 -16.104  1.00 35.49     0.174 HD
ATOM     10  HH  ARG D 557     -22.517  -2.366 -15.109  1.00 35.49     0.174 HD
ATOM     11  HH  ARG D 557     -25.039  -1.828 -13.133  1.00 35.49     0.174 HD
ATOM     12  HH  ARG D 557     -23.844  -2.692 -13.322  1.00 35.49     0.174 HD
ATOM     13  HE  ARG D 557     -25.591  -0.347 -14.535  1.00 35.49     0.178 HD
ENDBRANCH   4   5
ENDBRANCH   3   4
ENDBRANCH   2   3
ENDBRANCH   1   2
END_RES ARG D 557
BEGIN_RES GLU D 570
REMARK  3 active torsions:
REMARK  status: ('A' for Active; 'I' for Inactive)
REMARK    5  A    between atoms: CA   and  CB  
REMARK    6  A    between atoms: CB   and  CG  
REMARK    7  A    between atoms: CG   and  CD  
ROOT
ATOM     14  CA  GLU D 570     -18.033  -6.348 -13.375  1.00 32.92     0.160 C 
ENDROOT
BRANCH  14  15
ATOM     15  CB  GLU D 570     -19.500  -6.345 -13.794  1.00 32.92     0.043 C 
BRANCH  15  16
ATOM     16  CG  GLU D 570     -20.444  -5.542 -12.975  1.00 32.92     0.100 C 
BRANCH  16  17
ATOM     17  CD  GLU D 570     -21.744  -5.252 -13.689  1.00 32.92     0.185 C 
ATOM     18  OE1 GLU D 570     -22.247  -6.134 -14.411  1.00 32.92    -0.647 OA
ATOM     19  OE2 GLU D 570     -22.257  -4.126 -13.536  1.00 32.92    -0.647 OA
ENDBRANCH  16  17
ENDBRANCH  15  16
ENDBRANCH  14  15
END_RES GLU D 570
ENDMDL
MODEL 2
REMARK VINA RESULT:      -1.1      6.201      6.270
REMARK  13 active torsions:
REMARK  status: ('A' for Active; 'I' for Inactive)
REMARK    1  A    between atoms: O_2  and  C_3 
REMARK    2  A    between atoms: C_7  and  C_10 
REMARK    3  A    between atoms: C_8  and  O_9 
REMARK    4  A    between atoms: C_10  and  C_11 
REMARK    5  A    between atoms: C_11  and  C_12 
REMARK    6  A    between atoms: C_11  and  O_17 
REMARK    7  A    between atoms: C_12  and  S_13 
REMARK    8  A    between atoms: O_17  and  C_18 
REMARK    9  A    between atoms: C_19  and  O_31 
REMARK   10  A    between atoms: C_21  and  C_24 
REMARK   11  A    between atoms: C_24  and  C_25 
REMARK   12  A    between atoms: C_25  and  C_26 
REMARK   13  A    between atoms: C_26  and  S_27 
ROOT
HETATM    1 NA   UNL     2     -25.526  -0.884   3.012  1.00  0.00     0.000 Na
ENDROOT
TORSDOF 13
BEGIN_RES ARG D 557
REMARK  4 active torsions:
REMARK  status: ('A' for Active; 'I' for Inactive)
REMARK    1  A    between atoms: CA   and  CB  
REMARK    2  A    between atoms: CB   and  CG  
REMARK    3  A    between atoms: CG   and  CD  
REMARK    4  A    between atoms: CD   and  NE  
REMARK       I    between atoms: NE   and  CZ  
REMARK       I    between atoms: CZ   and  NH1 
REMARK       I    between atoms: CZ   and  NH2 
ROOT
ATOM      1  CA  ARG D 557     -26.217   2.705 -17.014  1.00 35.49     0.159 C 
ENDROOT
BRANCH   1   2
ATOM      2  CB  ARG D 557     -26.789   1.319 -17.183  1.00 35.49     0.034 C 
BRANCH   2   3
ATOM      3  CG  ARG D 557     -25.834   0.204 -17.170  1.00 35.49     0.027 C 
BRANCH   3   4
ATOM      4  CD  ARG D 557     -24.750   0.401 -16.180  1.00 35.49     0.116 C 
BRANCH   4   5
ATOM      5  NE  ARG D 557     -24.908  -0.446 -15.028  1.00 35.49    -0.212 N 
ATOM      6  CZ  ARG D 557     -24.100  -1.421 -14.674  1.00 35.49     0.666 C 
ATOM      7  NH1 ARG D 557     -23.028  -1.742 -15.375  1.00 35.49    -0.235 N 
ATOM      8  NH2 ARG D 557     -24.386  -2.072 -13.585  1.00 35.49    -0.235 N 
ATOM      9  HH  ARG D 557     -22.820  -1.325 -16.094  1.00 35.49     0.174 HD
ATOM     10  HH  ARG D 557     -22.536  -2.386 -15.094  1.00 35.49     0.174 HD
ATOM     11  HH  ARG D 557     -25.080  -1.838 -13.149  1.00 35.49     0.174 HD
ATOM     12  HH  ARG D 557     -23.886  -2.705 -13.323  1.00 35.49     0.174 HD
ATOM     13  HE  ARG D 557     -25.612  -0.356 -14.559  1.00 35.49     0.178 HD
ENDBRANCH   4   5
ENDBRANCH   3   4
ENDBRANCH   2   3
ENDBRANCH   1   2
END_RES ARG D 557
BEGIN_RES GLU D 570
REMARK  3 active torsions:
REMARK  status: ('A' for Active; 'I' for Inactive)
REMARK    5  A    between atoms: CA   and  CB  
REMARK    6  A    between atoms: CB   and  CG  
REMARK    7  A    between atoms: CG   and  CD  
ROOT
ATOM     14  CA  GLU D 570     -18.033  -6.348 -13.375  1.00 32.92     0.160 C 
ENDROOT
BRANCH  14  15
ATOM     15  CB  GLU D 570     -19.500  -6.345 -13.794  1.00 32.92     0.043 C 
BRANCH  15  16
ATOM     16  CG  GLU D 570     -20.441  -5.526 -12.986  1.00 32.92     0.100 C 
BRANCH  16  17
ATOM     17  CD  GLU D 570     -21.731  -5.223 -13.712  1.00 32.92     0.185 C 
ATOM     18  OE1 GLU D 570     -22.348  -4.176 -13.438  1.00 32.92    -0.647 OA
ATOM     19  OE2 GLU D 570     -22.137  -6.050 -14.553  1.00 32.92    -0.647 OA
ENDBRANCH  16  17
ENDBRANCH  15  16
ENDBRANCH  14  15
END_RES GLU D 570
ENDMDL
MODEL 3
REMARK VINA RESULT:      -1.0      2.875      2.981
REMARK  13 active torsions:
REMARK  status: ('A' for Active; 'I' for Inactive)
REMARK    1  A    between atoms: O_2  and  C_3 
REMARK    2  A    between atoms: C_7  and  C_10 
REMARK    3  A    between atoms: C_8  and  O_9 
REMARK    4  A    between atoms: C_10  and  C_11 
REMARK    5  A    between atoms: C_11  and  C_12 
REMARK    6  A    between atoms: C_11  and  O_17 
REMARK    7  A    between atoms: C_12  and  S_13 
REMARK    8  A    between atoms: O_17  and  C_18 
REMARK    9  A    between atoms: C_19  and  O_31 
REMARK   10  A    between atoms: C_21  and  C_24 
REMARK   11  A    between atoms: C_24  and  C_25 
REMARK   12  A    between atoms: C_25  and  C_26 
REMARK   13  A    between atoms: C_26  and  S_27 
ROOT
HETATM    1 NA   UNL     2     -27.339  -5.658  -9.125  1.00  0.00     0.000 Na
ENDROOT
TORSDOF 13
BEGIN_RES ARG D 557
REMARK  4 active torsions:
REMARK  status: ('A' for Active; 'I' for Inactive)
REMARK    1  A    between atoms: CA   and  CB  
REMARK    2  A    between atoms: CB   and  CG  
REMARK    3  A    between atoms: CG   and  CD  
REMARK    4  A    between atoms: CD   and  NE  
REMARK       I    between atoms: NE   and  CZ  
REMARK       I    between atoms: CZ   and  NH1 
REMARK       I    between atoms: CZ   and  NH2 
ROOT
ATOM      1  CA  ARG D 557     -26.217   2.705 -17.014  1.00 35.49     0.159 C 
ENDROOT
BRANCH   1   2
ATOM      2  CB  ARG D 557     -26.789   1.319 -17.183  1.00 35.49     0.034 C 
BRANCH   2   3
ATOM      3  CG  ARG D 557     -25.865   0.195 -16.991  1.00 35.49     0.027 C 
BRANCH   3   4
ATOM      4  CD  ARG D 557     -26.293  -0.708 -15.899  1.00 35.49     0.116 C 
BRANCH   4   5
ATOM      5  NE  ARG D 557     -25.245  -0.932 -14.938  1.00 35.49    -0.212 N 
ATOM      6  CZ  ARG D 557     -24.965  -2.079 -14.360  1.00 35.49     0.666 C 
ATOM      7  NH1 ARG D 557     -25.653  -3.180 -14.600  1.00 35.49    -0.235 N 
ATOM      8  NH2 ARG D 557     -23.964  -2.104 -13.529  1.00 35.49    -0.235 N 
ATOM      9  HH  ARG D 557     -26.314  -3.187 -15.145  1.00 35.49     0.174 HD
ATOM     10  HH  ARG D 557     -25.423  -3.900 -14.195  1.00 35.49     0.174 HD
ATOM     11  HH  ARG D 557     -23.534  -1.379 -13.399  1.00 35.49     0.174 HD
ATOM     12  HH  ARG D 557     -23.751  -2.826 -13.139  1.00 35.49     0.174 HD
ATOM     13  HE  ARG D 557     -24.798  -0.260 -14.670  1.00 35.49     0.178 HD
ENDBRANCH   4   5
ENDBRANCH   3   4
ENDBRANCH   2   3
ENDBRANCH   1   2
END_RES ARG D 557
BEGIN_RES GLU D 570
REMARK  3 active torsions:
REMARK  status: ('A' for Active; 'I' for Inactive)
REMARK    5  A    between atoms: CA   and  CB  
REMARK    6  A    between atoms: CB   and  CG  
REMARK    7  A    between atoms: CG   and  CD  
ROOT
ATOM     14  CA  GLU D 570     -18.033  -6.348 -13.375  1.00 32.92     0.160 C 
ENDROOT
BRANCH  14  15
ATOM     15  CB  GLU D 570     -19.500  -6.345 -13.794  1.00 32.92     0.043 C 
BRANCH  15  16
ATOM     16  CG  GLU D 570     -20.447  -5.556 -12.965  1.00 32.92     0.100 C 
BRANCH  16  17
ATOM     17  CD  GLU D 570     -21.683  -5.132 -13.723  1.00 32.92     0.185 C 
ATOM     18  OE1 GLU D 570     -21.617  -4.998 -14.961  1.00 32.92    -0.647 OA
ATOM     19  OE2 GLU D 570     -22.723  -4.915 -13.072  1.00 32.92    -0.647 OA
ENDBRANCH  16  17
ENDBRANCH  15  16
ENDBRANCH  14  15
END_RES GLU D 570
ENDMDL
MODEL 4
REMARK VINA RESULT:      -1.0      5.915      6.052
REMARK  13 active torsions:
REMARK  status: ('A' for Active; 'I' for Inactive)
REMARK    1  A    between atoms: O_2  and  C_3 
REMARK    2  A    between atoms: C_7  and  C_10 
REMARK    3  A    between atoms: C_8  and  O_9 
REMARK    4  A    between atoms: C_10  and  C_11 
REMARK    5  A    between atoms: C_11  and  C_12 
REMARK    6  A    between atoms: C_11  and  O_17 
REMARK    7  A    between atoms: C_12  and  S_13 
REMARK    8  A    between atoms: O_17  and  C_18 
REMARK    9  A    between atoms: C_19  and  O_31 
REMARK   10  A    between atoms: C_21  and  C_24 
REMARK   11  A    between atoms: C_24  and  C_25 
REMARK   12  A    between atoms: C_25  and  C_26 
REMARK   13  A    between atoms: C_26  and  S_27 
ROOT
HETATM    1 NA   UNL     2     -32.357  -8.567   4.525  1.00  0.00     0.000 Na
ENDROOT
TORSDOF 13
BEGIN_RES ARG D 557
REMARK  4 active torsions:
REMARK  status: ('A' for Active; 'I' for Inactive)
REMARK    1  A    between atoms: CA   and  CB  
REMARK    2  A    between atoms: CB   and  CG  
REMARK    3  A    between atoms: CG   and  CD  
REMARK    4  A    between atoms: CD   and  NE  
REMARK       I    between atoms: NE   and  CZ  
REMARK       I    between atoms: CZ   and  NH1 
REMARK       I    between atoms: CZ   and  NH2 
ROOT
ATOM      1  CA  ARG D 557     -26.217   2.705 -17.014  1.00 35.49     0.159 C 
ENDROOT
BRANCH   1   2
ATOM      2  CB  ARG D 557     -26.789   1.319 -17.183  1.00 35.49     0.034 C 
BRANCH   2   3
ATOM      3  CG  ARG D 557     -25.934   0.197 -16.777  1.00 35.49     0.027 C 
BRANCH   3   4
ATOM      4  CD  ARG D 557     -26.691  -0.863 -16.072  1.00 35.49     0.116 C 
BRANCH   4   5
ATOM      5  NE  ARG D 557     -25.947  -1.421 -14.974  1.00 35.49    -0.212 N 
ATOM      6  CZ  ARG D 557     -25.914  -2.691 -14.635  1.00 35.49     0.666 C 
ATOM      7  NH1 ARG D 557     -26.595  -3.616 -15.285  1.00 35.49    -0.235 N 
ATOM      8  NH2 ARG D 557     -25.168  -3.022 -13.622  1.00 35.49    -0.235 N 
ATOM      9  HH  ARG D 557     -27.091  -3.421 -15.956  1.00 35.49     0.174 HD
ATOM     10  HH  ARG D 557     -26.533  -4.429 -15.020  1.00 35.49     0.174 HD
ATOM     11  HH  ARG D 557     -24.733  -2.404 -13.226  1.00 35.49     0.174 HD
ATOM     12  HH  ARG D 557     -25.118  -3.832 -13.376  1.00 35.49     0.174 HD
ATOM     13  HE  ARG D 557     -25.537  -0.885 -14.456  1.00 35.49     0.178 HD
ENDBRANCH   4   5
ENDBRANCH   3   4
ENDBRANCH   2   3
ENDBRANCH   1   2
END_RES ARG D 557
BEGIN_RES GLU D 570
REMARK  3 active torsions:
REMARK  status: ('A' for Active; 'I' for Inactive)
REMARK    5  A    between atoms: CA   and  CB  
REMARK    6  A    between atoms: CB   and  CG  
REMARK    7  A    between atoms: CG   and  CD  
ROOT
ATOM     14  CA  GLU D 570     -18.033  -6.348 -13.375  1.00 32.92     0.160 C 
ENDROOT
BRANCH  14  15
ATOM     15  CB  GLU D 570     -19.500  -6.345 -13.794  1.00 32.92     0.043 C 
BRANCH  15  16
ATOM     16  CG  GLU D 570     -20.440  -5.523 -12.989  1.00 32.92     0.100 C 
BRANCH  16  17
ATOM     17  CD  GLU D 570     -21.747  -5.258 -13.699  1.00 32.92     0.185 C 
ATOM     18  OE1 GLU D 570     -22.324  -4.168 -13.517  1.00 32.92    -0.647 OA
ATOM     19  OE2 GLU D 570     -22.208  -6.155 -14.431  1.00 32.92    -0.647 OA
ENDBRANCH  16  17
ENDBRANCH  15  16
ENDBRANCH  14  15
END_RES GLU D 570
ENDMDL
MODEL 5
REMARK VINA RESULT:      -1.0      2.098      2.296
REMARK  13 active torsions:
REMARK  status: ('A' for Active; 'I' for Inactive)
REMARK    1  A    between atoms: O_2  and  C_3 
REMARK    2  A    between atoms: C_7  and  C_10 
REMARK    3  A    between atoms: C_8  and  O_9 
REMARK    4  A    between atoms: C_10  and  C_11 
REMARK    5  A    between atoms: C_11  and  C_12 
REMARK    6  A    between atoms: C_11  and  O_17 
REMARK    7  A    between atoms: C_12  and  S_13 
REMARK    8  A    between atoms: O_17  and  C_18 
REMARK    9  A    between atoms: C_19  and  O_31 
REMARK   10  A    between atoms: C_21  and  C_24 
REMARK   11  A    between atoms: C_24  and  C_25 
REMARK   12  A    between atoms: C_25  and  C_26 
REMARK   13  A    between atoms: C_26  and  S_27 
ROOT
HETATM    1 NA   UNL     2     -32.932 -10.394 -11.344  1.00  0.00     0.000 Na
ENDROOT
TORSDOF 13
BEGIN_RES ARG D 557
REMARK  4 active torsions:
REMARK  status: ('A' for Active; 'I' for Inactive)
REMARK    1  A    between atoms: CA   and  CB  
REMARK    2  A    between atoms: CB   and  CG  
REMARK    3  A    between atoms: CG   and  CD  
REMARK    4  A    between atoms: CD   and  NE  
REMARK       I    between atoms: NE   and  CZ  
REMARK       I    between atoms: CZ   and  NH1 
REMARK       I    between atoms: CZ   and  NH2 
ROOT
ATOM      1  CA  ARG D 557     -26.217   2.705 -17.014  1.00 35.49     0.159 C 
ENDROOT
BRANCH   1   2
ATOM      2  CB  ARG D 557     -26.789   1.319 -17.183  1.00 35.49     0.034 C 
BRANCH   2   3
ATOM      3  CG  ARG D 557     -25.835   0.203 -17.161  1.00 35.49     0.027 C 
BRANCH   3   4
ATOM      4  CD  ARG D 557     -24.747   0.411 -16.178  1.00 35.49     0.116 C 
BRANCH   4   5
ATOM      5  NE  ARG D 557     -24.892  -0.434 -15.022  1.00 35.49    -0.212 N 
ATOM      6  CZ  ARG D 557     -24.078  -1.405 -14.673  1.00 35.49     0.666 C 
ATOM      7  NH1 ARG D 557     -23.011  -1.725 -15.382  1.00 35.49    -0.235 N 
ATOM      8  NH2 ARG D 557     -24.353  -2.055 -13.579  1.00 35.49    -0.235 N 
ATOM      9  HH  ARG D 557     -22.810  -1.309 -16.103  1.00 35.49     0.174 HD
ATOM     10  HH  ARG D 557     -22.515  -2.366 -15.103  1.00 35.49     0.174 HD
ATOM     11  HH  ARG D 557     -25.045  -1.822 -13.138  1.00 35.49     0.174 HD
ATOM     12  HH  ARG D 557     -23.849  -2.685 -13.320  1.00 35.49     0.174 HD
ATOM     13  HE  ARG D 557     -25.593  -0.345 -14.548  1.00 35.49     0.178 HD
ENDBRANCH   4   5
ENDBRANCH   3   4
ENDBRANCH   2   3
ENDBRANCH   1   2
END_RES ARG D 557
BEGIN_RES GLU D 570
REMARK  3 active torsions:
REMARK  status: ('A' for Active; 'I' for Inactive)
REMARK    5  A    between atoms: CA   and  CB  
REMARK    6  A    between atoms: CB   and  CG  
REMARK    7  A    between atoms: CG   and  CD  
ROOT
ATOM     14  CA  GLU D 570     -18.033  -6.348 -13.375  1.00 32.92     0.160 C 
ENDROOT
BRANCH  14  15
ATOM     15  CB  GLU D 570     -19.500  -6.345 -13.794  1.00 32.92     0.043 C 
BRANCH  15  16
ATOM     16  CG  GLU D 570     -20.442  -5.531 -12.983  1.00 32.92     0.100 C 
BRANCH  16  17
ATOM     17  CD  GLU D 570     -21.739  -5.240 -13.701  1.00 32.92     0.185 C 
ATOM     18  OE1 GLU D 570     -22.307  -4.148 -13.506  1.00 32.92    -0.647 OA
ATOM     19  OE2 GLU D 570     -22.201  -6.120 -14.454  1.00 32.92    -0.647 OA
ENDBRANCH  16  17
ENDBRANCH  15  16
ENDBRANCH  14  15
END_RES GLU D 570
ENDMDL
MODEL 6
REMARK VINA RESULT:      -1.0      5.678      5.754
REMARK  13 active torsions:
REMARK  status: ('A' for Active; 'I' for Inactive)
REMARK    1  A    between atoms: O_2  and  C_3 
REMARK    2  A    between atoms: C_7  and  C_10 
REMARK    3  A    between atoms: C_8  and  O_9 
REMARK    4  A    between atoms: C_10  and  C_11 
REMARK    5  A    between atoms: C_11  and  C_12 
REMARK    6  A    between atoms: C_11  and  O_17 
REMARK    7  A    between atoms: C_12  and  S_13 
REMARK    8  A    between atoms: O_17  and  C_18 
REMARK    9  A    between atoms: C_19  and  O_31 
REMARK   10  A    between atoms: C_21  and  C_24 
REMARK   11  A    between atoms: C_24  and  C_25 
REMARK   12  A    between atoms: C_25  and  C_26 
REMARK   13  A    between atoms: C_26  and  S_27 
ROOT
HETATM    1 NA   UNL     2      -9.208  -9.410 -17.402  1.00  0.00     0.000 Na
ENDROOT
TORSDOF 13
BEGIN_RES ARG D 557
REMARK  4 active torsions:
REMARK  status: ('A' for Active; 'I' for Inactive)
REMARK    1  A    between atoms: CA   and  CB  
REMARK    2  A    between atoms: CB   and  CG  
REMARK    3  A    between atoms: CG   and  CD  
REMARK    4  A    between atoms: CD   and  NE  
REMARK       I    between atoms: NE   and  CZ  
REMARK       I    between atoms: CZ   and  NH1 
REMARK       I    between atoms: CZ   and  NH2 
ROOT
ATOM      1  CA  ARG D 557     -26.217   2.705 -17.014  1.00 35.49     0.159 C 
ENDROOT
BRANCH   1   2
ATOM      2  CB  ARG D 557     -26.789   1.319 -17.183  1.00 35.49     0.034 C 
BRANCH   2   3
ATOM      3  CG  ARG D 557     -25.836   0.203 -17.157  1.00 35.49     0.027 C 
BRANCH   3   4
ATOM      4  CD  ARG D 557     -24.749   0.412 -16.173  1.00 35.49     0.116 C 
BRANCH   4   5
ATOM      5  NE  ARG D 557     -24.892  -0.436 -15.019  1.00 35.49    -0.212 N 
ATOM      6  CZ  ARG D 557     -24.074  -1.404 -14.671  1.00 35.49     0.666 C 
ATOM      7  NH1 ARG D 557     -23.004  -1.718 -15.379  1.00 35.49    -0.235 N 
ATOM      8  NH2 ARG D 557     -24.347  -2.058 -13.580  1.00 35.49    -0.235 N 
ATOM      9  HH  ARG D 557     -22.804  -1.299 -16.099  1.00 35.49     0.174 HD
ATOM     10  HH  ARG D 557     -22.506  -2.357 -15.102  1.00 35.49     0.174 HD
ATOM     11  HH  ARG D 557     -25.041  -1.829 -13.139  1.00 35.49     0.174 HD
ATOM     12  HH  ARG D 557     -23.841  -2.687 -13.321  1.00 35.49     0.174 HD
ATOM     13  HE  ARG D 557     -25.594  -0.352 -14.546  1.00 35.49     0.178 HD
ENDBRANCH   4   5
ENDBRANCH   3   4
ENDBRANCH   2   3
ENDBRANCH   1   2
END_RES ARG D 557
BEGIN_RES GLU D 570
REMARK  3 active torsions:
REMARK  status: ('A' for Active; 'I' for Inactive)
REMARK    5  A    between atoms: CA   and  CB  
REMARK    6  A    between atoms: CB   and  CG  
REMARK    7  A    between atoms: CG   and  CD  
ROOT
ATOM     14  CA  GLU D 570     -18.033  -6.348 -13.375  1.00 32.92     0.160 C 
ENDROOT
BRANCH  14  15
ATOM     15  CB  GLU D 570     -19.500  -6.345 -13.794  1.00 32.92     0.043 C 
BRANCH  15  16
ATOM     16  CG  GLU D 570     -20.444  -5.542 -12.975  1.00 32.92     0.100 C 
BRANCH  16  17
ATOM     17  CD  GLU D 570     -21.741  -5.245 -13.691  1.00 32.92     0.185 C 
ATOM     18  OE1 GLU D 570     -22.259  -4.119 -13.562  1.00 32.92    -0.647 OA
ATOM     19  OE2 GLU D 570     -22.252  -6.153 -14.375  1.00 32.92    -0.647 OA
ENDBRANCH  16  17
ENDBRANCH  15  16
ENDBRANCH  14  15
END_RES GLU D 570
ENDMDL
MODEL 7
REMARK VINA RESULT:      -0.9      5.566      5.566
REMARK  13 active torsions:
REMARK  status: ('A' for Active; 'I' for Inactive)
REMARK    1  A    between atoms: O_2  and  C_3 
REMARK    2  A    between atoms: C_7  and  C_10 
REMARK    3  A    between atoms: C_8  and  O_9 
REMARK    4  A    between atoms: C_10  and  C_11 
REMARK    5  A    between atoms: C_11  and  C_12 
REMARK    6  A    between atoms: C_11  and  O_17 
REMARK    7  A    between atoms: C_12  and  S_13 
REMARK    8  A    between atoms: O_17  and  C_18 
REMARK    9  A    between atoms: C_19  and  O_31 
REMARK   10  A    between atoms: C_21  and  C_24 
REMARK   11  A    between atoms: C_24  and  C_25 
REMARK   12  A    between atoms: C_25  and  C_26 
REMARK   13  A    between atoms: C_26  and  S_27 
ROOT
HETATM    1 NA   UNL     2     -22.589   0.085  -1.531  1.00  0.00     0.000 Na
ENDROOT
TORSDOF 13
BEGIN_RES ARG D 557
REMARK  4 active torsions:
REMARK  status: ('A' for Active; 'I' for Inactive)
REMARK    1  A    between atoms: CA   and  CB  
REMARK    2  A    between atoms: CB   and  CG  
REMARK    3  A    between atoms: CG   and  CD  
REMARK    4  A    between atoms: CD   and  NE  
REMARK       I    between atoms: NE   and  CZ  
REMARK       I    between atoms: CZ   and  NH1 
REMARK       I    between atoms: CZ   and  NH2 
ROOT
ATOM      1  CA  ARG D 557     -26.217   2.705 -17.014  1.00 35.49     0.159 C 
ENDROOT
BRANCH   1   2
ATOM      2  CB  ARG D 557     -26.789   1.319 -17.183  1.00 35.49     0.034 C 
BRANCH   2   3
ATOM      3  CG  ARG D 557     -25.836   0.203 -17.153  1.00 35.49     0.027 C 
BRANCH   3   4
ATOM      4  CD  ARG D 557     -24.752   0.413 -16.166  1.00 35.49     0.116 C 
BRANCH   4   5
ATOM      5  NE  ARG D 557     -24.896  -0.437 -15.013  1.00 35.49    -0.212 N 
ATOM      6  CZ  ARG D 557     -24.082  -1.409 -14.669  1.00 35.49     0.666 C 
ATOM      7  NH1 ARG D 557     -23.016  -1.727 -15.381  1.00 35.49    -0.235 N 
ATOM      8  NH2 ARG D 557     -24.355  -2.064 -13.578  1.00 35.49    -0.235 N 
ATOM      9  HH  ARG D 557     -22.816  -1.308 -16.101  1.00 35.49     0.174 HD
ATOM     10  HH  ARG D 557     -22.520  -2.369 -15.106  1.00 35.49     0.174 HD
ATOM     11  HH  ARG D 557     -25.046  -1.832 -13.135  1.00 35.49     0.174 HD
ATOM     12  HH  ARG D 557     -23.851  -2.695 -13.322  1.00 35.49     0.174 HD
ATOM     13  HE  ARG D 557     -25.596  -0.349 -14.538  1.00 35.49     0.178 HD
ENDBRANCH   4   5
ENDBRANCH   3   4
ENDBRANCH   2   3
ENDBRANCH   1   2
END_RES ARG D 557
BEGIN_RES GLU D 570
REMARK  3 active torsions:
REMARK  status: ('A' for Active; 'I' for Inactive)
REMARK    5  A    between atoms: CA   and  CB  
REMARK    6  A    between atoms: CB   and  CG  
REMARK    7  A    between atoms: CG   and  CD  
ROOT
ATOM     14  CA  GLU D 570     -18.033  -6.348 -13.375  1.00 32.92     0.160 C 
ENDROOT
BRANCH  14  15
ATOM     15  CB  GLU D 570     -19.500  -6.345 -13.794  1.00 32.92     0.043 C 
BRANCH  15  16
ATOM     16  CG  GLU D 570     -20.446  -5.550 -12.969  1.00 32.92     0.100 C 
BRANCH  16  17
ATOM     17  CD  GLU D 570     -21.744  -5.252 -13.683  1.00 32.92     0.185 C 
ATOM     18  OE1 GLU D 570     -22.258  -6.133 -14.398  1.00 32.92    -0.647 OA
ATOM     19  OE2 GLU D 570     -22.243  -4.118 -13.540  1.00 32.92    -0.647 OA
ENDBRANCH  16  17
ENDBRANCH  15  16
ENDBRANCH  14  15
END_RES GLU D 570
ENDMDL
MODEL 8
REMARK VINA RESULT:      -0.9      4.464      4.573
REMARK  13 active torsions:
REMARK  status: ('A' for Active; 'I' for Inactive)
REMARK    1  A    between atoms: O_2  and  C_3 
REMARK    2  A    between atoms: C_7  and  C_10 
REMARK    3  A    between atoms: C_8  and  O_9 
REMARK    4  A    between atoms: C_10  and  C_11 
REMARK    5  A    between atoms: C_11  and  C_12 
REMARK    6  A    between atoms: C_11  and  O_17 
REMARK    7  A    between atoms: C_12  and  S_13 
REMARK    8  A    between atoms: O_17  and  C_18 
REMARK    9  A    between atoms: C_19  and  O_31 
REMARK   10  A    between atoms: C_21  and  C_24 
REMARK   11  A    between atoms: C_24  and  C_25 
REMARK   12  A    between atoms: C_25  and  C_26 
REMARK   13  A    between atoms: C_26  and  S_27 
ROOT
HETATM    1 NA   UNL     2     -22.859  -0.336 -16.725  1.00  0.00     0.000 Na
ENDROOT
TORSDOF 13
BEGIN_RES ARG D 557
REMARK  4 active torsions:
REMARK  status: ('A' for Active; 'I' for Inactive)
REMARK    1  A    between atoms: CA   and  CB  
REMARK    2  A    between atoms: CB   and  CG  
REMARK    3  A    between atoms: CG   and  CD  
REMARK    4  A    between atoms: CD   and  NE  
REMARK       I    between atoms: NE   and  CZ  
REMARK       I    between atoms: CZ   and  NH1 
REMARK       I    between atoms: CZ   and  NH2 
ROOT
ATOM      1  CA  ARG D 557     -26.217   2.705 -17.014  1.00 35.49     0.159 C 
ENDROOT
BRANCH   1   2
ATOM      2  CB  ARG D 557     -26.789   1.319 -17.183  1.00 35.49     0.034 C 
BRANCH   2   3
ATOM      3  CG  ARG D 557     -25.863   0.195 -16.999  1.00 35.49     0.027 C 
BRANCH   3   4
ATOM      4  CD  ARG D 557     -26.264  -0.690 -15.882  1.00 35.49     0.116 C 
BRANCH   4   5
ATOM      5  NE  ARG D 557     -25.196  -0.894 -14.940  1.00 35.49    -0.212 N 
ATOM      6  CZ  ARG D 557     -24.886  -2.034 -14.365  1.00 35.49     0.666 C 
ATOM      7  NH1 ARG D 557     -25.559  -3.148 -14.590  1.00 35.49    -0.235 N 
ATOM      8  NH2 ARG D 557     -23.870  -2.040 -13.551  1.00 35.49    -0.235 N 
ATOM      9  HH  ARG D 557     -26.229  -3.168 -15.123  1.00 35.49     0.174 HD
ATOM     10  HH  ARG D 557     -25.309  -3.862 -14.188  1.00 35.49     0.174 HD
ATOM     11  HH  ARG D 557     -23.450  -1.307 -13.431  1.00 35.49     0.174 HD
ATOM     12  HH  ARG D 557     -23.638  -2.757 -13.164  1.00 35.49     0.174 HD
ATOM     13  HE  ARG D 557     -24.756  -0.214 -14.682  1.00 35.49     0.178 HD
ENDBRANCH   4   5
ENDBRANCH   3   4
ENDBRANCH   2   3
ENDBRANCH   1   2
END_RES ARG D 557
BEGIN_RES GLU D 570
REMARK  3 active torsions:
REMARK  status: ('A' for Active; 'I' for Inactive)
REMARK    5  A    between atoms: CA   and  CB  
REMARK    6  A    between atoms: CB   and  CG  
REMARK    7  A    between atoms: CG   and  CD  
ROOT
ATOM     14  CA  GLU D 570     -18.033  -6.348 -13.375  1.00 32.92     0.160 C 
ENDROOT
BRANCH  14  15
ATOM     15  CB  GLU D 570     -19.500  -6.345 -13.794  1.00 32.92     0.043 C 
BRANCH  15  16
ATOM     16  CG  GLU D 570     -20.448  -5.559 -12.963  1.00 32.92     0.100 C 
BRANCH  16  17
ATOM     17  CD  GLU D 570     -21.682  -5.131 -13.722  1.00 32.92     0.185 C 
ATOM     18  OE1 GLU D 570     -22.713  -4.840 -13.085  1.00 32.92    -0.647 OA
ATOM     19  OE2 GLU D 570     -21.623  -5.103 -14.967  1.00 32.92    -0.647 OA
ENDBRANCH  16  17
ENDBRANCH  15  16
ENDBRANCH  14  15
END_RES GLU D 570
ENDMDL
MODEL 9
REMARK VINA RESULT:      -0.8      6.678      6.743
REMARK  13 active torsions:
REMARK  status: ('A' for Active; 'I' for Inactive)
REMARK    1  A    between atoms: O_2  and  C_3 
REMARK    2  A    between atoms: C_7  and  C_10 
REMARK    3  A    between atoms: C_8  and  O_9 
REMARK    4  A    between atoms: C_10  and  C_11 
REMARK    5  A    between atoms: C_11  and  C_12 
REMARK    6  A    between atoms: C_11  and  O_17 
REMARK    7  A    between atoms: C_12  and  S_13 
REMARK    8  A    between atoms: O_17  and  C_18 
REMARK    9  A    between atoms: C_19  and  O_31 
REMARK   10  A    between atoms: C_21  and  C_24 
REMARK   11  A    between atoms: C_24  and  C_25 
REMARK   12  A    between atoms: C_25  and  C_26 
REMARK   13  A    between atoms: C_26  and  S_27 
ROOT
HETATM    1 NA   UNL     2     -17.807  -4.347   4.828  1.00  0.00     0.000 Na
ENDROOT
TORSDOF 13
BEGIN_RES ARG D 557
REMARK  4 active torsions:
REMARK  status: ('A' for Active; 'I' for Inactive)
REMARK    1  A    between atoms: CA   and  CB  
REMARK    2  A    between atoms: CB   and  CG  
REMARK    3  A    between atoms: CG   and  CD  
REMARK    4  A    between atoms: CD   and  NE  
REMARK       I    between atoms: NE   and  CZ  
REMARK       I    between atoms: CZ   and  NH1 
REMARK       I    between atoms: CZ   and  NH2 
ROOT
ATOM      1  CA  ARG D 557     -26.217   2.705 -17.014  1.00 35.49     0.159 C 
ENDROOT
BRANCH   1   2
ATOM      2  CB  ARG D 557     -26.789   1.319 -17.183  1.00 35.49     0.034 C 
BRANCH   2   3
ATOM      3  CG  ARG D 557     -25.834   0.204 -17.168  1.00 35.49     0.027 C 
BRANCH   3   4
ATOM      4  CD  ARG D 557     -24.748   0.404 -16.182  1.00 35.49     0.116 C 
BRANCH   4   5
ATOM      5  NE  ARG D 557     -24.902  -0.439 -15.026  1.00 35.49    -0.212 N 
ATOM      6  CZ  ARG D 557     -24.090  -1.409 -14.670  1.00 35.49     0.666 C 
ATOM      7  NH1 ARG D 557     -23.018  -1.730 -15.370  1.00 35.49    -0.235 N 
ATOM      8  NH2 ARG D 557     -24.374  -2.058 -13.578  1.00 35.49    -0.235 N 
ATOM      9  HH  ARG D 557     -22.811  -1.315 -16.090  1.00 35.49     0.174 HD
ATOM     10  HH  ARG D 557     -22.524  -2.370 -15.087  1.00 35.49     0.174 HD
ATOM     11  HH  ARG D 557     -25.069  -1.824 -13.142  1.00 35.49     0.174 HD
ATOM     12  HH  ARG D 557     -23.871  -2.688 -13.313  1.00 35.49     0.174 HD
ATOM     13  HE  ARG D 557     -25.606  -0.350 -14.558  1.00 35.49     0.178 HD
ENDBRANCH   4   5
ENDBRANCH   3   4
ENDBRANCH   2   3
ENDBRANCH   1   2
END_RES ARG D 557
BEGIN_RES GLU D 570
REMARK  3 active torsions:
REMARK  status: ('A' for Active; 'I' for Inactive)
REMARK    5  A    between atoms: CA   and  CB  
REMARK    6  A    between atoms: CB   and  CG  
REMARK    7  A    between atoms: CG   and  CD  
ROOT
ATOM     14  CA  GLU D 570     -18.033  -6.348 -13.375  1.00 32.92     0.160 C 
ENDROOT
BRANCH  14  15
ATOM     15  CB  GLU D 570     -19.500  -6.345 -13.794  1.00 32.92     0.043 C 
BRANCH  15  16
ATOM     16  CG  GLU D 570     -20.441  -5.527 -12.986  1.00 32.92     0.100 C 
BRANCH  16  17
ATOM     17  CD  GLU D 570     -21.740  -5.242 -13.703  1.00 32.92     0.185 C 
ATOM     18  OE1 GLU D 570     -22.321  -4.160 -13.497  1.00 32.92    -0.647 OA
ATOM     19  OE2 GLU D 570     -22.190  -6.119 -14.467  1.00 32.92    -0.647 OA
ENDBRANCH  16  17
ENDBRANCH  15  16
ENDBRANCH  14  15
END_RES GLU D 570
ENDMDL
