MODEL 1
REMARK VINA RESULT:      -6.4      0.000      0.000
REMARK  2 active torsions:
REMARK  status: ('A' for Active; 'I' for Inactive)
REMARK    1  A    between atoms: C_3  and  C_9 
REMARK    2  A    between atoms: C_9  and  O_10 
ROOT
HETATM    1  C   UNL     1     -20.031  -4.381  -9.001  1.00  0.00     0.024 A 
HETATM    2  C   UNL     1     -20.444  -4.405 -10.338  1.00  0.00     0.012 A 
HETATM    3  C   UNL     1     -21.811  -4.407 -10.674  1.00  0.00    -0.013 A 
HETATM    4  C   UNL     1     -22.750  -4.431  -9.623  1.00  0.00     0.044 A 
HETATM    5  C   UNL     1     -22.338  -4.415  -8.291  1.00  0.00     0.048 A 
HETATM    6  C   UNL     1     -20.984  -4.382  -7.983  1.00  0.00     0.035 A 
HETATM    7 CL   UNL     1     -20.478  -4.355  -6.340  1.00  0.00    -0.084 Cl
HETATM    8 CL   UNL     1     -24.453  -4.476  -9.926  1.00  0.00    -0.084 Cl
ENDROOT
BRANCH   3   9
HETATM    9  C   UNL     1     -22.257  -4.443 -12.115  1.00  0.00     0.204 C 
BRANCH   9  10
HETATM   10  O   UNL     1     -21.774  -3.325 -12.853  1.00  0.00    -0.396 OA
HETATM   11  H   UNL     1     -21.690  -2.590 -12.224  1.00  0.00     0.209 HD
ENDBRANCH   9  10
ENDBRANCH   3   9
TORSDOF 2
BEGIN_RES ARG D 557
REMARK  4 active torsions:
REMARK  status: ('A' for Active; 'I' for Inactive)
REMARK    1  A    between atoms: CA   and  CB  
REMARK    2  A    between atoms: CB   and  CG  
REMARK    3  A    between atoms: CG   and  CD  
REMARK    4  A    between atoms: CD   and  NE  
REMARK       I    between atoms: NE   and  CZ  
REMARK       I    between atoms: CZ   and  NH1 
REMARK       I    between atoms: CZ   and  NH2 
ROOT
ATOM      1  CA  ARG D 557     -26.217   2.705 -17.014  1.00 35.49     0.159 C 
ENDROOT
BRANCH   1   2
ATOM      2  CB  ARG D 557     -26.789   1.319 -17.183  1.00 35.49     0.034 C 
BRANCH   2   3
ATOM      3  CG  ARG D 557     -25.834   0.204 -17.167  1.00 35.49     0.027 C 
BRANCH   3   4
ATOM      4  CD  ARG D 557     -24.762   0.393 -16.163  1.00 35.49     0.116 C 
BRANCH   4   5
ATOM      5  NE  ARG D 557     -24.936  -0.460 -15.017  1.00 35.49    -0.212 N 
ATOM      6  CZ  ARG D 557     -24.131  -1.433 -14.655  1.00 35.49     0.666 C 
ATOM      7  NH1 ARG D 557     -23.048  -1.750 -15.340  1.00 35.49    -0.235 N 
ATOM      8  NH2 ARG D 557     -24.433  -2.091 -13.573  1.00 35.49    -0.235 N 
ATOM      9  HH  ARG D 557     -22.829  -1.329 -16.053  1.00 35.49     0.174 HD
ATOM     10  HH  ARG D 557     -22.559  -2.393 -15.054  1.00 35.49     0.174 HD
ATOM     11  HH  ARG D 557     -25.135  -1.860 -13.147  1.00 35.49     0.174 HD
ATOM     12  HH  ARG D 557     -23.936  -2.723 -13.306  1.00 35.49     0.174 HD
ATOM     13  HE  ARG D 557     -25.648  -0.373 -14.559  1.00 35.49     0.178 HD
ENDBRANCH   4   5
ENDBRANCH   3   4
ENDBRANCH   2   3
ENDBRANCH   1   2
END_RES ARG D 557
BEGIN_RES GLU D 570
REMARK  3 active torsions:
REMARK  status: ('A' for Active; 'I' for Inactive)
REMARK    5  A    between atoms: CA   and  CB  
REMARK    6  A    between atoms: CB   and  CG  
REMARK    7  A    between atoms: CG   and  CD  
ROOT
ATOM     14  CA  GLU D 570     -18.033  -6.348 -13.375  1.00 32.92     0.160 C 
ENDROOT
BRANCH  14  15
ATOM     15  CB  GLU D 570     -19.500  -6.345 -13.794  1.00 32.92     0.043 C 
BRANCH  15  16
ATOM     16  CG  GLU D 570     -19.818  -5.881 -15.169  1.00 32.92     0.100 C 
BRANCH  16  17
ATOM     17  CD  GLU D 570     -21.299  -5.691 -15.399  1.00 32.92     0.185 C 
ATOM     18  OE1 GLU D 570     -22.055  -6.679 -15.325  1.00 32.92    -0.647 OA
ATOM     19  OE2 GLU D 570     -21.707  -4.545 -15.672  1.00 32.92    -0.647 OA
ENDBRANCH  16  17
ENDBRANCH  15  16
ENDBRANCH  14  15
END_RES GLU D 570
ENDMDL
MODEL 2
REMARK VINA RESULT:      -6.1      1.505      2.026
REMARK  2 active torsions:
REMARK  status: ('A' for Active; 'I' for Inactive)
REMARK    1  A    between atoms: C_3  and  C_9 
REMARK    2  A    between atoms: C_9  and  O_10 
ROOT
HETATM    1  C   UNL     1     -21.996  -4.270  -7.554  1.00  0.00     0.024 A 
HETATM    2  C   UNL     1     -23.164  -4.049  -8.292  1.00  0.00     0.012 A 
HETATM    3  C   UNL     1     -23.131  -3.979  -9.697  1.00  0.00    -0.013 A 
HETATM    4  C   UNL     1     -21.879  -4.094 -10.336  1.00  0.00     0.044 A 
HETATM    5  C   UNL     1     -20.714  -4.307  -9.599  1.00  0.00     0.048 A 
HETATM    6  C   UNL     1     -20.776  -4.402  -8.215  1.00  0.00     0.035 A 
HETATM    7 CL   UNL     1     -19.339  -4.672  -7.308  1.00  0.00    -0.084 Cl
HETATM    8 CL   UNL     1     -21.721  -3.983 -12.054  1.00  0.00    -0.084 Cl
ENDROOT
BRANCH   3   9
HETATM    9  C   UNL     1     -24.389  -3.731 -10.494  1.00  0.00     0.204 C 
BRANCH   9  10
HETATM   10  O   UNL     1     -25.469  -3.304  -9.670  1.00  0.00    -0.396 OA
HETATM   11  H   UNL     1     -25.548  -2.343  -9.788  1.00  0.00     0.209 HD
ENDBRANCH   9  10
ENDBRANCH   3   9
TORSDOF 2
BEGIN_RES ARG D 557
REMARK  4 active torsions:
REMARK  status: ('A' for Active; 'I' for Inactive)
REMARK    1  A    between atoms: CA   and  CB  
REMARK    2  A    between atoms: CB   and  CG  
REMARK    3  A    between atoms: CG   and  CD  
REMARK    4  A    between atoms: CD   and  NE  
REMARK       I    between atoms: NE   and  CZ  
REMARK       I    between atoms: CZ   and  NH1 
REMARK       I    between atoms: CZ   and  NH2 
ROOT
ATOM      1  CA  ARG D 557     -26.217   2.705 -17.014  1.00 35.49     0.159 C 
ENDROOT
BRANCH   1   2
ATOM      2  CB  ARG D 557     -26.789   1.319 -17.183  1.00 35.49     0.034 C 
BRANCH   2   3
ATOM      3  CG  ARG D 557     -25.836   0.203 -17.156  1.00 35.49     0.027 C 
BRANCH   3   4
ATOM      4  CD  ARG D 557     -24.728   0.430 -16.201  1.00 35.49     0.116 C 
BRANCH   4   5
ATOM      5  NE  ARG D 557     -24.830  -0.416 -15.041  1.00 35.49    -0.212 N 
ATOM      6  CZ  ARG D 557     -23.994  -1.376 -14.714  1.00 35.49     0.666 C 
ATOM      7  NH1 ARG D 557     -22.943  -1.683 -15.452  1.00 35.49    -0.235 N 
ATOM      8  NH2 ARG D 557     -24.230  -2.030 -13.614  1.00 35.49    -0.235 N 
ATOM      9  HH  ARG D 557     -22.767  -1.264 -16.179  1.00 35.49     0.174 HD
ATOM     10  HH  ARG D 557     -22.431  -2.317 -15.188  1.00 35.49     0.174 HD
ATOM     11  HH  ARG D 557     -24.912  -1.805 -13.154  1.00 35.49     0.174 HD
ATOM     12  HH  ARG D 557     -23.711  -2.653 -13.368  1.00 35.49     0.174 HD
ATOM     13  HE  ARG D 557     -25.518  -0.336 -14.548  1.00 35.49     0.178 HD
ENDBRANCH   4   5
ENDBRANCH   3   4
ENDBRANCH   2   3
ENDBRANCH   1   2
END_RES ARG D 557
BEGIN_RES GLU D 570
REMARK  3 active torsions:
REMARK  status: ('A' for Active; 'I' for Inactive)
REMARK    5  A    between atoms: CA   and  CB  
REMARK    6  A    between atoms: CB   and  CG  
REMARK    7  A    between atoms: CG   and  CD  
ROOT
ATOM     14  CA  GLU D 570     -18.033  -6.348 -13.375  1.00 32.92     0.160 C 
ENDROOT
BRANCH  14  15
ATOM     15  CB  GLU D 570     -19.500  -6.345 -13.794  1.00 32.92     0.043 C 
BRANCH  15  16
ATOM     16  CG  GLU D 570     -19.818  -5.881 -15.169  1.00 32.92     0.100 C 
BRANCH  16  17
ATOM     17  CD  GLU D 570     -21.291  -5.614 -15.375  1.00 32.92     0.185 C 
ATOM     18  OE1 GLU D 570     -21.650  -4.500 -15.802  1.00 32.92    -0.647 OA
ATOM     19  OE2 GLU D 570     -22.095  -6.524 -15.090  1.00 32.92    -0.647 OA
ENDBRANCH  16  17
ENDBRANCH  15  16
ENDBRANCH  14  15
END_RES GLU D 570
ENDMDL
MODEL 3
REMARK VINA RESULT:      -6.0      2.723      3.946
REMARK  2 active torsions:
REMARK  status: ('A' for Active; 'I' for Inactive)
REMARK    1  A    between atoms: C_3  and  C_9 
REMARK    2  A    between atoms: C_9  and  O_10 
ROOT
HETATM    1  C   UNL     1     -24.119  -3.003 -12.100  1.00  0.00     0.024 A 
HETATM    2  C   UNL     1     -24.092  -3.371 -10.750  1.00  0.00     0.012 A 
HETATM    3  C   UNL     1     -22.903  -3.821 -10.146  1.00  0.00    -0.013 A 
HETATM    4  C   UNL     1     -21.752  -3.933 -10.953  1.00  0.00     0.044 A 
HETATM    5  C   UNL     1     -21.782  -3.574 -12.300  1.00  0.00     0.048 A 
HETATM    6  C   UNL     1     -22.959  -3.104 -12.867  1.00  0.00     0.035 A 
HETATM    7 CL   UNL     1     -22.992  -2.655 -14.527  1.00  0.00    -0.084 Cl
HETATM    8 CL   UNL     1     -20.251  -4.514 -10.319  1.00  0.00    -0.084 Cl
ENDROOT
BRANCH   3   9
HETATM    9  C   UNL     1     -22.875  -4.227  -8.692  1.00  0.00     0.204 C 
BRANCH   9  10
HETATM   10  O   UNL     1     -24.128  -4.010  -8.052  1.00  0.00    -0.396 OA
HETATM   11  H   UNL     1     -23.950  -3.463  -7.269  1.00  0.00     0.209 HD
ENDBRANCH   9  10
ENDBRANCH   3   9
TORSDOF 2
BEGIN_RES ARG D 557
REMARK  4 active torsions:
REMARK  status: ('A' for Active; 'I' for Inactive)
REMARK    1  A    between atoms: CA   and  CB  
REMARK    2  A    between atoms: CB   and  CG  
REMARK    3  A    between atoms: CG   and  CD  
REMARK    4  A    between atoms: CD   and  NE  
REMARK       I    between atoms: NE   and  CZ  
REMARK       I    between atoms: CZ   and  NH1 
REMARK       I    between atoms: CZ   and  NH2 
ROOT
ATOM      1  CA  ARG D 557     -26.217   2.705 -17.014  1.00 35.49     0.159 C 
ENDROOT
BRANCH   1   2
ATOM      2  CB  ARG D 557     -26.789   1.319 -17.183  1.00 35.49     0.034 C 
BRANCH   2   3
ATOM      3  CG  ARG D 557     -28.236   1.172 -16.982  1.00 35.49     0.027 C 
BRANCH   3   4
ATOM      4  CD  ARG D 557     -28.627  -0.228 -16.699  1.00 35.49     0.116 C 
BRANCH   4   5
ATOM      5  NE  ARG D 557     -27.606  -0.942 -15.979  1.00 35.49    -0.212 N 
ATOM      6  CZ  ARG D 557     -27.382  -2.235 -16.043  1.00 35.49     0.666 C 
ATOM      7  NH1 ARG D 557     -28.108  -3.044 -16.792  1.00 35.49    -0.235 N 
ATOM      8  NH2 ARG D 557     -26.398  -2.710 -15.337  1.00 35.49    -0.235 N 
ATOM      9  HH  ARG D 557     -28.760  -2.753 -17.267  1.00 35.49     0.174 HD
ATOM     10  HH  ARG D 557     -27.914  -3.879 -16.796  1.00 35.49     0.174 HD
ATOM     11  HH  ARG D 557     -25.941  -2.163 -14.868  1.00 35.49     0.174 HD
ATOM     12  HH  ARG D 557     -26.220  -3.539 -15.355  1.00 35.49     0.174 HD
ATOM     13  HE  ARG D 557     -27.137  -0.509 -15.416  1.00 35.49     0.178 HD
ENDBRANCH   4   5
ENDBRANCH   3   4
ENDBRANCH   2   3
ENDBRANCH   1   2
END_RES ARG D 557
BEGIN_RES GLU D 570
REMARK  3 active torsions:
REMARK  status: ('A' for Active; 'I' for Inactive)
REMARK    5  A    between atoms: CA   and  CB  
REMARK    6  A    between atoms: CB   and  CG  
REMARK    7  A    between atoms: CG   and  CD  
ROOT
ATOM     14  CA  GLU D 570     -18.033  -6.348 -13.375  1.00 32.92     0.160 C 
ENDROOT
BRANCH  14  15
ATOM     15  CB  GLU D 570     -19.500  -6.345 -13.794  1.00 32.92     0.043 C 
BRANCH  15  16
ATOM     16  CG  GLU D 570     -19.806  -6.023 -15.212  1.00 32.92     0.100 C 
BRANCH  16  17
ATOM     17  CD  GLU D 570     -21.272  -5.746 -15.450  1.00 32.92     0.185 C 
ATOM     18  OE1 GLU D 570     -22.113  -6.212 -14.657  1.00 32.92    -0.647 OA
ATOM     19  OE2 GLU D 570     -21.585  -5.071 -16.450  1.00 32.92    -0.647 OA
ENDBRANCH  16  17
ENDBRANCH  15  16
ENDBRANCH  14  15
END_RES GLU D 570
ENDMDL
MODEL 4
REMARK VINA RESULT:      -6.0      2.037      2.369
REMARK  2 active torsions:
REMARK  status: ('A' for Active; 'I' for Inactive)
REMARK    1  A    between atoms: C_3  and  C_9 
REMARK    2  A    between atoms: C_9  and  O_10 
ROOT
HETATM    1  C   UNL     1     -20.495  -4.163 -10.639  1.00  0.00     0.024 A 
HETATM    2  C   UNL     1     -21.331  -3.640 -11.632  1.00  0.00     0.012 A 
HETATM    3  C   UNL     1     -22.676  -3.328 -11.358  1.00  0.00    -0.013 A 
HETATM    4  C   UNL     1     -23.167  -3.601 -10.064  1.00  0.00     0.044 A 
HETATM    5  C   UNL     1     -22.335  -4.128  -9.077  1.00  0.00     0.048 A 
HETATM    6  C   UNL     1     -21.004  -4.400  -9.363  1.00  0.00     0.035 A 
HETATM    7 CL   UNL     1     -19.978  -5.045  -8.141  1.00  0.00    -0.084 Cl
HETATM    8 CL   UNL     1     -24.813  -3.293  -9.634  1.00  0.00    -0.084 Cl
ENDROOT
BRANCH   3   9
HETATM    9  C   UNL     1     -23.581  -2.774 -12.431  1.00  0.00     0.204 C 
BRANCH   9  10
HETATM   10  O   UNL     1     -24.096  -3.797 -13.277  1.00  0.00    -0.396 OA
HETATM   11  H   UNL     1     -25.025  -3.927 -13.024  1.00  0.00     0.209 HD
ENDBRANCH   9  10
ENDBRANCH   3   9
TORSDOF 2
BEGIN_RES ARG D 557
REMARK  4 active torsions:
REMARK  status: ('A' for Active; 'I' for Inactive)
REMARK    1  A    between atoms: CA   and  CB  
REMARK    2  A    between atoms: CB   and  CG  
REMARK    3  A    between atoms: CG   and  CD  
REMARK    4  A    between atoms: CD   and  NE  
REMARK       I    between atoms: NE   and  CZ  
REMARK       I    between atoms: CZ   and  NH1 
REMARK       I    between atoms: CZ   and  NH2 
ROOT
ATOM      1  CA  ARG D 557     -26.217   2.705 -17.014  1.00 35.49     0.159 C 
ENDROOT
BRANCH   1   2
ATOM      2  CB  ARG D 557     -26.789   1.319 -17.183  1.00 35.49     0.034 C 
BRANCH   2   3
ATOM      3  CG  ARG D 557     -28.210   1.146 -16.857  1.00 35.49     0.027 C 
BRANCH   3   4
ATOM      4  CD  ARG D 557     -28.562  -0.269 -16.600  1.00 35.49     0.116 C 
BRANCH   4   5
ATOM      5  NE  ARG D 557     -27.521  -0.967 -15.892  1.00 35.49    -0.212 N 
ATOM      6  CZ  ARG D 557     -27.283  -2.258 -15.953  1.00 35.49     0.666 C 
ATOM      7  NH1 ARG D 557     -28.011  -3.079 -16.688  1.00 35.49    -0.235 N 
ATOM      8  NH2 ARG D 557     -26.283  -2.717 -15.260  1.00 35.49    -0.235 N 
ATOM      9  HH  ARG D 557     -28.673  -2.798 -17.154  1.00 35.49     0.174 HD
ATOM     10  HH  ARG D 557     -27.807  -3.911 -16.691  1.00 35.49     0.174 HD
ATOM     11  HH  ARG D 557     -25.826  -2.162 -14.801  1.00 35.49     0.174 HD
ATOM     12  HH  ARG D 557     -26.096  -3.544 -15.277  1.00 35.49     0.174 HD
ATOM     13  HE  ARG D 557     -27.050  -0.525 -15.339  1.00 35.49     0.178 HD
ENDBRANCH   4   5
ENDBRANCH   3   4
ENDBRANCH   2   3
ENDBRANCH   1   2
END_RES ARG D 557
BEGIN_RES GLU D 570
REMARK  3 active torsions:
REMARK  status: ('A' for Active; 'I' for Inactive)
REMARK    5  A    between atoms: CA   and  CB  
REMARK    6  A    between atoms: CB   and  CG  
REMARK    7  A    between atoms: CG   and  CD  
ROOT
ATOM     14  CA  GLU D 570     -18.033  -6.348 -13.375  1.00 32.92     0.160 C 
ENDROOT
BRANCH  14  15
ATOM     15  CB  GLU D 570     -19.500  -6.345 -13.794  1.00 32.92     0.043 C 
BRANCH  15  16
ATOM     16  CG  GLU D 570     -19.813  -5.933 -15.187  1.00 32.92     0.100 C 
BRANCH  16  17
ATOM     17  CD  GLU D 570     -21.234  -5.447 -15.352  1.00 32.92     0.185 C 
ATOM     18  OE1 GLU D 570     -21.559  -4.874 -16.409  1.00 32.92    -0.647 OA
ATOM     19  OE2 GLU D 570     -22.028  -5.628 -14.407  1.00 32.92    -0.647 OA
ENDBRANCH  16  17
ENDBRANCH  15  16
ENDBRANCH  14  15
END_RES GLU D 570
ENDMDL
MODEL 5
REMARK VINA RESULT:      -5.9      2.720      3.283
REMARK  2 active torsions:
REMARK  status: ('A' for Active; 'I' for Inactive)
REMARK    1  A    between atoms: C_3  and  C_9 
REMARK    2  A    between atoms: C_9  and  O_10 
ROOT
HETATM    1  C   UNL     1     -22.190  -4.387  -7.514  1.00  0.00     0.024 A 
HETATM    2  C   UNL     1     -23.324  -4.082  -8.276  1.00  0.00     0.012 A 
HETATM    3  C   UNL     1     -23.218  -3.808  -9.653  1.00  0.00    -0.013 A 
HETATM    4  C   UNL     1     -21.932  -3.805 -10.230  1.00  0.00     0.044 A 
HETATM    5  C   UNL     1     -20.802  -4.101  -9.468  1.00  0.00     0.048 A 
HETATM    6  C   UNL     1     -20.934  -4.398  -8.118  1.00  0.00     0.035 A 
HETATM    7 CL   UNL     1     -19.540  -4.769  -7.181  1.00  0.00    -0.084 Cl
HETATM    8 CL   UNL     1     -21.687  -3.441 -11.903  1.00  0.00    -0.084 Cl
ENDROOT
BRANCH   3   9
HETATM    9  C   UNL     1     -24.439  -3.470 -10.474  1.00  0.00     0.204 C 
BRANCH   9  10
HETATM   10  O   UNL     1     -25.596  -3.290  -9.664  1.00  0.00    -0.396 OA
HETATM   11  H   UNL     1     -25.513  -3.905  -8.917  1.00  0.00     0.209 HD
ENDBRANCH   9  10
ENDBRANCH   3   9
TORSDOF 2
BEGIN_RES ARG D 557
REMARK  4 active torsions:
REMARK  status: ('A' for Active; 'I' for Inactive)
REMARK    1  A    between atoms: CA   and  CB  
REMARK    2  A    between atoms: CB   and  CG  
REMARK    3  A    between atoms: CG   and  CD  
REMARK    4  A    between atoms: CD   and  NE  
REMARK       I    between atoms: NE   and  CZ  
REMARK       I    between atoms: CZ   and  NH1 
REMARK       I    between atoms: CZ   and  NH2 
ROOT
ATOM      1  CA  ARG D 557     -26.217   2.705 -17.014  1.00 35.49     0.159 C 
ENDROOT
BRANCH   1   2
ATOM      2  CB  ARG D 557     -26.789   1.319 -17.183  1.00 35.49     0.034 C 
BRANCH   2   3
ATOM      3  CG  ARG D 557     -28.231   1.227 -17.444  1.00 35.49     0.027 C 
BRANCH   3   4
ATOM      4  CD  ARG D 557     -28.916   0.308 -16.507  1.00 35.49     0.116 C 
BRANCH   4   5
ATOM      5  NE  ARG D 557     -29.312  -0.921 -17.145  1.00 35.49    -0.212 N 
ATOM      6  CZ  ARG D 557     -28.690  -2.074 -17.042  1.00 35.49     0.666 C 
ATOM      7  NH1 ARG D 557     -27.590  -2.226 -16.328  1.00 35.49    -0.235 N 
ATOM      8  NH2 ARG D 557     -29.203  -3.091 -17.672  1.00 35.49    -0.235 N 
ATOM      9  HH  ARG D 557     -27.236  -1.571 -15.903  1.00 35.49     0.174 HD
ATOM     10  HH  ARG D 557     -27.230  -3.002 -16.295  1.00 35.49     0.174 HD
ATOM     11  HH  ARG D 557     -29.918  -2.965 -18.119  1.00 35.49     0.174 HD
ATOM     12  HH  ARG D 557     -28.832  -3.852 -17.626  1.00 35.49     0.174 HD
ATOM     13  HE  ARG D 557     -29.970  -0.898 -17.683  1.00 35.49     0.178 HD
ENDBRANCH   4   5
ENDBRANCH   3   4
ENDBRANCH   2   3
ENDBRANCH   1   2
END_RES ARG D 557
BEGIN_RES GLU D 570
REMARK  3 active torsions:
REMARK  status: ('A' for Active; 'I' for Inactive)
REMARK    5  A    between atoms: CA   and  CB  
REMARK    6  A    between atoms: CB   and  CG  
REMARK    7  A    between atoms: CG   and  CD  
ROOT
ATOM     14  CA  GLU D 570     -18.033  -6.348 -13.375  1.00 32.92     0.160 C 
ENDROOT
BRANCH  14  15
ATOM     15  CB  GLU D 570     -19.500  -6.345 -13.794  1.00 32.92     0.043 C 
BRANCH  15  16
ATOM     16  CG  GLU D 570     -19.813  -5.941 -15.189  1.00 32.92     0.100 C 
BRANCH  16  17
ATOM     17  CD  GLU D 570     -21.249  -5.507 -15.370  1.00 32.92     0.185 C 
ATOM     18  OE1 GLU D 570     -22.073  -5.752 -14.468  1.00 32.92    -0.647 OA
ATOM     19  OE2 GLU D 570     -21.556  -4.931 -16.432  1.00 32.92    -0.647 OA
ENDBRANCH  16  17
ENDBRANCH  15  16
ENDBRANCH  14  15
END_RES GLU D 570
ENDMDL
MODEL 6
REMARK VINA RESULT:      -5.9      4.482      7.063
REMARK  2 active torsions:
REMARK  status: ('A' for Active; 'I' for Inactive)
REMARK    1  A    between atoms: C_3  and  C_9 
REMARK    2  A    between atoms: C_9  and  O_10 
ROOT
HETATM    1  C   UNL     1     -27.294  -3.108 -15.932  1.00  0.00     0.024 A 
HETATM    2  C   UNL     1     -26.832  -4.396 -15.641  1.00  0.00     0.012 A 
HETATM    3  C   UNL     1     -27.409  -5.528 -16.247  1.00  0.00    -0.013 A 
HETATM    4  C   UNL     1     -28.497  -5.326 -17.121  1.00  0.00     0.044 A 
HETATM    5  C   UNL     1     -28.962  -4.042 -17.405  1.00  0.00     0.048 A 
HETATM    6  C   UNL     1     -28.357  -2.939 -16.818  1.00  0.00     0.035 A 
HETATM    7 CL   UNL     1     -28.928  -1.356 -17.174  1.00  0.00    -0.084 Cl
HETATM    8 CL   UNL     1     -29.305  -6.650 -17.887  1.00  0.00    -0.084 Cl
ENDROOT
BRANCH   3   9
HETATM    9  C   UNL     1     -26.918  -6.918 -15.927  1.00  0.00     0.204 C 
BRANCH   9  10
HETATM   10  O   UNL     1     -27.763  -7.583 -14.994  1.00  0.00    -0.396 OA
HETATM   11  H   UNL     1     -27.346  -7.487 -14.121  1.00  0.00     0.209 HD
ENDBRANCH   9  10
ENDBRANCH   3   9
TORSDOF 2
BEGIN_RES ARG D 557
REMARK  4 active torsions:
REMARK  status: ('A' for Active; 'I' for Inactive)
REMARK    1  A    between atoms: CA   and  CB  
REMARK    2  A    between atoms: CB   and  CG  
REMARK    3  A    between atoms: CG   and  CD  
REMARK    4  A    between atoms: CD   and  NE  
REMARK       I    between atoms: NE   and  CZ  
REMARK       I    between atoms: CZ   and  NH1 
REMARK       I    between atoms: CZ   and  NH2 
ROOT
ATOM      1  CA  ARG D 557     -26.217   2.705 -17.014  1.00 35.49     0.159 C 
ENDROOT
BRANCH   1   2
ATOM      2  CB  ARG D 557     -26.789   1.319 -17.183  1.00 35.49     0.034 C 
BRANCH   2   3
ATOM      3  CG  ARG D 557     -25.834   0.204 -17.169  1.00 35.49     0.027 C 
BRANCH   3   4
ATOM      4  CD  ARG D 557     -24.767   0.388 -16.159  1.00 35.49     0.116 C 
BRANCH   4   5
ATOM      5  NE  ARG D 557     -24.947  -0.469 -15.017  1.00 35.49    -0.212 N 
ATOM      6  CZ  ARG D 557     -24.147  -1.447 -14.656  1.00 35.49     0.666 C 
ATOM      7  NH1 ARG D 557     -23.062  -1.764 -15.339  1.00 35.49    -0.235 N 
ATOM      8  NH2 ARG D 557     -24.454  -2.108 -13.578  1.00 35.49    -0.235 N 
ATOM      9  HH  ARG D 557     -22.840  -1.341 -16.050  1.00 35.49     0.174 HD
ATOM     10  HH  ARG D 557     -22.577  -2.410 -15.055  1.00 35.49     0.174 HD
ATOM     11  HH  ARG D 557     -25.157  -1.876 -13.153  1.00 35.49     0.174 HD
ATOM     12  HH  ARG D 557     -23.960  -2.743 -13.312  1.00 35.49     0.174 HD
ATOM     13  HE  ARG D 557     -25.660  -0.382 -14.561  1.00 35.49     0.178 HD
ENDBRANCH   4   5
ENDBRANCH   3   4
ENDBRANCH   2   3
ENDBRANCH   1   2
END_RES ARG D 557
BEGIN_RES GLU D 570
REMARK  3 active torsions:
REMARK  status: ('A' for Active; 'I' for Inactive)
REMARK    5  A    between atoms: CA   and  CB  
REMARK    6  A    between atoms: CB   and  CG  
REMARK    7  A    between atoms: CG   and  CD  
ROOT
ATOM     14  CA  GLU D 570     -18.033  -6.348 -13.375  1.00 32.92     0.160 C 
ENDROOT
BRANCH  14  15
ATOM     15  CB  GLU D 570     -19.500  -6.345 -13.794  1.00 32.92     0.043 C 
BRANCH  15  16
ATOM     16  CG  GLU D 570     -20.442  -5.533 -12.981  1.00 32.92     0.100 C 
BRANCH  16  17
ATOM     17  CD  GLU D 570     -21.618  -5.021 -13.780  1.00 32.92     0.185 C 
ATOM     18  OE1 GLU D 570     -22.352  -4.145 -13.282  1.00 32.92    -0.647 OA
ATOM     19  OE2 GLU D 570     -21.818  -5.512 -14.908  1.00 32.92    -0.647 OA
ENDBRANCH  16  17
ENDBRANCH  15  16
ENDBRANCH  14  15
END_RES GLU D 570
ENDMDL
MODEL 7
REMARK VINA RESULT:      -5.8      4.794      7.302
REMARK  2 active torsions:
REMARK  status: ('A' for Active; 'I' for Inactive)
REMARK    1  A    between atoms: C_3  and  C_9 
REMARK    2  A    between atoms: C_9  and  O_10 
ROOT
HETATM    1  C   UNL     1     -28.622  -6.781 -16.452  1.00  0.00     0.024 A 
HETATM    2  C   UNL     1     -27.680  -5.952 -15.831  1.00  0.00     0.012 A 
HETATM    3  C   UNL     1     -27.705  -4.558 -16.021  1.00  0.00    -0.013 A 
HETATM    4  C   UNL     1     -28.680  -4.026 -16.890  1.00  0.00     0.044 A 
HETATM    5  C   UNL     1     -29.613  -4.854 -17.514  1.00  0.00     0.048 A 
HETATM    6  C   UNL     1     -29.588  -6.223 -17.289  1.00  0.00     0.035 A 
HETATM    7 CL   UNL     1     -30.744  -7.241 -18.054  1.00  0.00    -0.084 Cl
HETATM    8 CL   UNL     1     -28.773  -2.332 -17.224  1.00  0.00    -0.084 Cl
ENDROOT
BRANCH   3   9
HETATM    9  C   UNL     1     -26.684  -3.664 -15.360  1.00  0.00     0.204 C 
BRANCH   9  10
HETATM   10  O   UNL     1     -25.448  -4.335 -15.140  1.00  0.00    -0.396 OA
HETATM   11  H   UNL     1     -24.910  -3.752 -14.579  1.00  0.00     0.209 HD
ENDBRANCH   9  10
ENDBRANCH   3   9
TORSDOF 2
BEGIN_RES ARG D 557
REMARK  4 active torsions:
REMARK  status: ('A' for Active; 'I' for Inactive)
REMARK    1  A    between atoms: CA   and  CB  
REMARK    2  A    between atoms: CB   and  CG  
REMARK    3  A    between atoms: CG   and  CD  
REMARK    4  A    between atoms: CD   and  NE  
REMARK       I    between atoms: NE   and  CZ  
REMARK       I    between atoms: CZ   and  NH1 
REMARK       I    between atoms: CZ   and  NH2 
ROOT
ATOM      1  CA  ARG D 557     -26.217   2.705 -17.014  1.00 35.49     0.159 C 
ENDROOT
BRANCH   1   2
ATOM      2  CB  ARG D 557     -26.789   1.319 -17.183  1.00 35.49     0.034 C 
BRANCH   2   3
ATOM      3  CG  ARG D 557     -25.835   0.203 -17.159  1.00 35.49     0.027 C 
BRANCH   3   4
ATOM      4  CD  ARG D 557     -24.699   0.452 -16.243  1.00 35.49     0.116 C 
BRANCH   4   5
ATOM      5  NE  ARG D 557     -24.780  -0.347 -15.049  1.00 35.49    -0.212 N 
ATOM      6  CZ  ARG D 557     -23.950  -1.309 -14.710  1.00 35.49     0.666 C 
ATOM      7  NH1 ARG D 557     -22.929  -1.663 -15.467  1.00 35.49    -0.235 N 
ATOM      8  NH2 ARG D 557     -24.164  -1.914 -13.578  1.00 35.49    -0.235 N 
ATOM      9  HH  ARG D 557     -22.768  -1.276 -16.215  1.00 35.49     0.174 HD
ATOM     10  HH  ARG D 557     -22.420  -2.296 -15.194  1.00 35.49     0.174 HD
ATOM     11  HH  ARG D 557     -24.827  -1.660 -13.107  1.00 35.49     0.174 HD
ATOM     12  HH  ARG D 557     -23.648  -2.538 -13.325  1.00 35.49     0.174 HD
ATOM     13  HE  ARG D 557     -25.450  -0.235 -14.538  1.00 35.49     0.178 HD
ENDBRANCH   4   5
ENDBRANCH   3   4
ENDBRANCH   2   3
ENDBRANCH   1   2
END_RES ARG D 557
BEGIN_RES GLU D 570
REMARK  3 active torsions:
REMARK  status: ('A' for Active; 'I' for Inactive)
REMARK    5  A    between atoms: CA   and  CB  
REMARK    6  A    between atoms: CB   and  CG  
REMARK    7  A    between atoms: CG   and  CD  
ROOT
ATOM     14  CA  GLU D 570     -18.033  -6.348 -13.375  1.00 32.92     0.160 C 
ENDROOT
BRANCH  14  15
ATOM     15  CB  GLU D 570     -19.500  -6.345 -13.794  1.00 32.92     0.043 C 
BRANCH  15  16
ATOM     16  CG  GLU D 570     -20.439  -5.519 -12.992  1.00 32.92     0.100 C 
BRANCH  16  17
ATOM     17  CD  GLU D 570     -21.742  -5.246 -13.707  1.00 32.92     0.185 C 
ATOM     18  OE1 GLU D 570     -22.239  -6.138 -14.422  1.00 32.92    -0.647 OA
ATOM     19  OE2 GLU D 570     -22.263  -4.122 -13.564  1.00 32.92    -0.647 OA
ENDBRANCH  16  17
ENDBRANCH  15  16
ENDBRANCH  14  15
END_RES GLU D 570
ENDMDL
MODEL 8
REMARK VINA RESULT:      -5.7      2.885      3.998
REMARK  2 active torsions:
REMARK  status: ('A' for Active; 'I' for Inactive)
REMARK    1  A    between atoms: C_3  and  C_9 
REMARK    2  A    between atoms: C_9  and  O_10 
ROOT
HETATM    1  C   UNL     1     -21.642  -3.610 -12.283  1.00  0.00     0.024 A 
HETATM    2  C   UNL     1     -21.529  -4.026 -10.951  1.00  0.00     0.012 A 
HETATM    3  C   UNL     1     -22.631  -3.966 -10.077  1.00  0.00    -0.013 A 
HETATM    4  C   UNL     1     -23.838  -3.431 -10.571  1.00  0.00     0.044 A 
HETATM    5  C   UNL     1     -23.948  -3.009 -11.896  1.00  0.00     0.048 A 
HETATM    6  C   UNL     1     -22.856  -3.106 -12.748  1.00  0.00     0.035 A 
HETATM    7 CL   UNL     1     -22.995  -2.591 -14.384  1.00  0.00    -0.084 Cl
HETATM    8 CL   UNL     1     -25.240  -3.274  -9.570  1.00  0.00    -0.084 Cl
ENDROOT
BRANCH   3   9
HETATM    9  C   UNL     1     -22.507  -4.406  -8.639  1.00  0.00     0.204 C 
BRANCH   9  10
HETATM   10  O   UNL     1     -22.287  -3.307  -7.760  1.00  0.00    -0.396 OA
HETATM   11  H   UNL     1     -21.860  -3.666  -6.965  1.00  0.00     0.209 HD
ENDBRANCH   9  10
ENDBRANCH   3   9
TORSDOF 2
BEGIN_RES ARG D 557
REMARK  4 active torsions:
REMARK  status: ('A' for Active; 'I' for Inactive)
REMARK    1  A    between atoms: CA   and  CB  
REMARK    2  A    between atoms: CB   and  CG  
REMARK    3  A    between atoms: CG   and  CD  
REMARK    4  A    between atoms: CD   and  NE  
REMARK       I    between atoms: NE   and  CZ  
REMARK       I    between atoms: CZ   and  NH1 
REMARK       I    between atoms: CZ   and  NH2 
ROOT
ATOM      1  CA  ARG D 557     -26.217   2.705 -17.014  1.00 35.49     0.159 C 
ENDROOT
BRANCH   1   2
ATOM      2  CB  ARG D 557     -26.789   1.319 -17.183  1.00 35.49     0.034 C 
BRANCH   2   3
ATOM      3  CG  ARG D 557     -28.228   1.227 -17.457  1.00 35.49     0.027 C 
BRANCH   3   4
ATOM      4  CD  ARG D 557     -28.923   0.311 -16.523  1.00 35.49     0.116 C 
BRANCH   4   5
ATOM      5  NE  ARG D 557     -29.319  -0.916 -17.162  1.00 35.49    -0.212 N 
ATOM      6  CZ  ARG D 557     -28.700  -2.071 -17.058  1.00 35.49     0.666 C 
ATOM      7  NH1 ARG D 557     -27.601  -2.224 -16.342  1.00 35.49    -0.235 N 
ATOM      8  NH2 ARG D 557     -29.213  -3.086 -17.690  1.00 35.49    -0.235 N 
ATOM      9  HH  ARG D 557     -27.248  -1.570 -15.916  1.00 35.49     0.174 HD
ATOM     10  HH  ARG D 557     -27.243  -3.002 -16.309  1.00 35.49     0.174 HD
ATOM     11  HH  ARG D 557     -29.927  -2.959 -18.139  1.00 35.49     0.174 HD
ATOM     12  HH  ARG D 557     -28.844  -3.848 -17.644  1.00 35.49     0.174 HD
ATOM     13  HE  ARG D 557     -29.976  -0.892 -17.701  1.00 35.49     0.178 HD
ENDBRANCH   4   5
ENDBRANCH   3   4
ENDBRANCH   2   3
ENDBRANCH   1   2
END_RES ARG D 557
BEGIN_RES GLU D 570
REMARK  3 active torsions:
REMARK  status: ('A' for Active; 'I' for Inactive)
REMARK    5  A    between atoms: CA   and  CB  
REMARK    6  A    between atoms: CB   and  CG  
REMARK    7  A    between atoms: CG   and  CD  
ROOT
ATOM     14  CA  GLU D 570     -18.033  -6.348 -13.375  1.00 32.92     0.160 C 
ENDROOT
BRANCH  14  15
ATOM     15  CB  GLU D 570     -19.500  -6.345 -13.794  1.00 32.92     0.043 C 
BRANCH  15  16
ATOM     16  CG  GLU D 570     -19.809  -5.987 -15.203  1.00 32.92     0.100 C 
BRANCH  16  17
ATOM     17  CD  GLU D 570     -21.277  -5.712 -15.432  1.00 32.92     0.185 C 
ATOM     18  OE1 GLU D 570     -22.115  -6.217 -14.661  1.00 32.92    -0.647 OA
ATOM     19  OE2 GLU D 570     -21.592  -4.998 -16.404  1.00 32.92    -0.647 OA
ENDBRANCH  16  17
ENDBRANCH  15  16
ENDBRANCH  14  15
END_RES GLU D 570
ENDMDL
MODEL 9
REMARK VINA RESULT:      -5.7      5.020      7.337
REMARK  2 active torsions:
REMARK  status: ('A' for Active; 'I' for Inactive)
REMARK    1  A    between atoms: C_3  and  C_9 
REMARK    2  A    between atoms: C_9  and  O_10 
ROOT
HETATM    1  C   UNL     1     -27.148  -4.770 -16.291  1.00  0.00     0.024 A 
HETATM    2  C   UNL     1     -28.269  -4.040 -16.702  1.00  0.00     0.012 A 
HETATM    3  C   UNL     1     -29.475  -4.687 -17.031  1.00  0.00    -0.013 A 
HETATM    4  C   UNL     1     -29.505  -6.095 -16.978  1.00  0.00     0.044 A 
HETATM    5  C   UNL     1     -28.385  -6.823 -16.576  1.00  0.00     0.048 A 
HETATM    6  C   UNL     1     -27.215  -6.161 -16.227  1.00  0.00     0.035 A 
HETATM    7 CL   UNL     1     -25.837  -7.059 -15.724  1.00  0.00    -0.084 Cl
HETATM    8 CL   UNL     1     -30.923  -6.991 -17.401  1.00  0.00    -0.084 Cl
ENDROOT
BRANCH   3   9
HETATM    9  C   UNL     1     -30.681  -3.901 -17.484  1.00  0.00     0.204 C 
BRANCH   9  10
HETATM   10  O   UNL     1     -30.433  -2.499 -17.497  1.00  0.00    -0.396 OA
HETATM   11  H   UNL     1     -29.554  -2.367 -17.104  1.00  0.00     0.209 HD
ENDBRANCH   9  10
ENDBRANCH   3   9
TORSDOF 2
BEGIN_RES ARG D 557
REMARK  4 active torsions:
REMARK  status: ('A' for Active; 'I' for Inactive)
REMARK    1  A    between atoms: CA   and  CB  
REMARK    2  A    between atoms: CB   and  CG  
REMARK    3  A    between atoms: CG   and  CD  
REMARK    4  A    between atoms: CD   and  NE  
REMARK       I    between atoms: NE   and  CZ  
REMARK       I    between atoms: CZ   and  NH1 
REMARK       I    between atoms: CZ   and  NH2 
ROOT
ATOM      1  CA  ARG D 557     -26.217   2.705 -17.014  1.00 35.49     0.159 C 
ENDROOT
BRANCH   1   2
ATOM      2  CB  ARG D 557     -26.789   1.319 -17.183  1.00 35.49     0.034 C 
BRANCH   2   3
ATOM      3  CG  ARG D 557     -25.836   0.203 -17.152  1.00 35.49     0.027 C 
BRANCH   3   4
ATOM      4  CD  ARG D 557     -24.754   0.412 -16.163  1.00 35.49     0.116 C 
BRANCH   4   5
ATOM      5  NE  ARG D 557     -24.899  -0.440 -15.012  1.00 35.49    -0.212 N 
ATOM      6  CZ  ARG D 557     -24.081  -1.409 -14.666  1.00 35.49     0.666 C 
ATOM      7  NH1 ARG D 557     -23.011  -1.720 -15.374  1.00 35.49    -0.235 N 
ATOM      8  NH2 ARG D 557     -24.356  -2.067 -13.577  1.00 35.49    -0.235 N 
ATOM      9  HH  ARG D 557     -22.809  -1.299 -16.092  1.00 35.49     0.174 HD
ATOM     10  HH  ARG D 557     -22.512  -2.360 -15.098  1.00 35.49     0.174 HD
ATOM     11  HH  ARG D 557     -25.050  -1.839 -13.137  1.00 35.49     0.174 HD
ATOM     12  HH  ARG D 557     -23.850  -2.696 -13.320  1.00 35.49     0.174 HD
ATOM     13  HE  ARG D 557     -25.601  -0.357 -14.539  1.00 35.49     0.178 HD
ENDBRANCH   4   5
ENDBRANCH   3   4
ENDBRANCH   2   3
ENDBRANCH   1   2
END_RES ARG D 557
BEGIN_RES GLU D 570
REMARK  3 active torsions:
REMARK  status: ('A' for Active; 'I' for Inactive)
REMARK    5  A    between atoms: CA   and  CB  
REMARK    6  A    between atoms: CB   and  CG  
REMARK    7  A    between atoms: CG   and  CD  
ROOT
ATOM     14  CA  GLU D 570     -18.033  -6.348 -13.375  1.00 32.92     0.160 C 
ENDROOT
BRANCH  14  15
ATOM     15  CB  GLU D 570     -19.500  -6.345 -13.794  1.00 32.92     0.043 C 
BRANCH  15  16
ATOM     16  CG  GLU D 570     -20.442  -5.531 -12.983  1.00 32.92     0.100 C 
BRANCH  16  17
ATOM     17  CD  GLU D 570     -21.737  -5.237 -13.703  1.00 32.92     0.185 C 
ATOM     18  OE1 GLU D 570     -22.290  -4.134 -13.529  1.00 32.92    -0.647 OA
ATOM     19  OE2 GLU D 570     -22.214  -6.126 -14.436  1.00 32.92    -0.647 OA
ENDBRANCH  16  17
ENDBRANCH  15  16
ENDBRANCH  14  15
END_RES GLU D 570
ENDMDL
