MODEL 1
REMARK VINA RESULT:      -7.6      0.000      0.000
REMARK  22 active torsions:
REMARK  status: ('A' for Active; 'I' for Inactive)
REMARK    1  A    between atoms: C_2  and  C_3 
REMARK    2  A    between atoms: C_3  and  C_4 
REMARK    3  A    between atoms: C_4  and  C_5 
REMARK    4  A    between atoms: C_5  and  C_6 
REMARK    5  A    between atoms: C_6  and  C_7 
REMARK    6  A    between atoms: C_7  and  O_9 
REMARK    7  A    between atoms: O_9  and  C_10 
REMARK    8  A    between atoms: C_10  and  C_12 
REMARK    9  A    between atoms: C_12  and  C_13 
REMARK   10  A    between atoms: C_13  and  C_14 
REMARK   11  A    between atoms: C_14  and  C_15 
REMARK   12  A    between atoms: C_15  and  C_16 
REMARK   13  A    between atoms: C_16  and  C_17 
REMARK   14  A    between atoms: C_17  and  C_18 
REMARK   15  A    between atoms: C_18  and  C_19 
REMARK   16  A    between atoms: C_19  and  C_20 
REMARK   17  A    between atoms: C_20  and  C_21 
REMARK   18  A    between atoms: C_21  and  C_22 
REMARK   19  A    between atoms: C_22  and  C_23 
REMARK   20  A    between atoms: C_23  and  C_24 
REMARK   21  A    between atoms: C_24  and  C_25 
REMARK   22  A    between atoms: C_25  and  C_26 
ROOT
HETATM    1  C   UNL     1     -23.329  -4.168 -11.175  1.00  0.00     0.000 C 
ENDROOT
BRANCH   1   2
HETATM    2  C   UNL     1     -22.548  -4.881 -12.268  1.00  0.00     0.010 C 
BRANCH   2   3
HETATM    3  C   UNL     1     -23.450  -5.663 -13.219  1.00  0.00     0.111 C 
BRANCH   3   4
HETATM    4  C   UNL     1     -23.354  -5.073 -14.600  1.00  0.00     0.259 C 
HETATM    5  O   UNL     1     -22.377  -4.463 -15.031  1.00  0.00    -0.265 OA
BRANCH   4   6
HETATM    6  O   UNL     1     -24.493  -5.312 -15.312  1.00  0.00    -0.316 OA
BRANCH   6   7
HETATM    7  C   UNL     1     -24.838  -6.707 -15.439  1.00  0.00     0.127 C 
HETATM    8  C   UNL     1     -23.955  -7.325 -16.527  1.00  0.00     0.040 C 
BRANCH   7   9
HETATM    9  C   UNL     1     -26.333  -6.817 -15.779  1.00  0.00     0.032 C 
BRANCH   9  10
HETATM   10  C   UNL     1     -26.938  -5.470 -16.169  1.00  0.00     0.002 C 
BRANCH  10  11
HETATM   11  C   UNL     1     -27.777  -5.542 -17.442  1.00  0.00     0.000 C 
BRANCH  11  12
HETATM   12  C   UNL     1     -28.997  -4.626 -17.311  1.00  0.00    -0.000 C 
BRANCH  12  13
HETATM   13  C   UNL     1     -30.097  -5.262 -16.467  1.00  0.00    -0.005 C 
HETATM   14  C   UNL     1     -31.458  -4.673 -16.806  1.00  0.00     0.005 C 
ENDBRANCH  12  13
ENDBRANCH  11  12
ENDBRANCH  10  11
ENDBRANCH   9  10
ENDBRANCH   7   9
ENDBRANCH   6   7
ENDBRANCH   4   6
ENDBRANCH   3   4
ENDBRANCH   2   3
ENDBRANCH   1   2
BRANCH   1  15
HETATM   15  C   UNL     1     -22.722  -4.493  -9.813  1.00  0.00     0.000 C 
BRANCH  15  16
HETATM   16  C   UNL     1     -21.226  -4.222  -9.806  1.00  0.00     0.000 C 
BRANCH  16  17
HETATM   17  C   UNL     1     -20.585  -4.804  -8.555  1.00  0.00     0.000 C 
BRANCH  17  18
HETATM   18  C   UNL     1     -20.873  -3.917  -7.353  1.00  0.00     0.000 C 
BRANCH  18  19
HETATM   19  C   UNL     1     -20.612  -4.675  -6.061  1.00  0.00     0.000 C 
BRANCH  19  20
HETATM   20  C   UNL     1     -20.498  -6.166  -6.338  1.00  0.00     0.000 C 
BRANCH  20  21
HETATM   21  C   UNL     1     -20.499  -6.945  -5.032  1.00  0.00     0.000 C 
BRANCH  21  22
HETATM   22  C   UNL     1     -21.583  -6.417  -4.106  1.00  0.00     0.000 C 
BRANCH  22  23
HETATM   23  C   UNL     1     -21.550  -7.145  -2.770  1.00  0.00     0.000 C 
BRANCH  23  24
HETATM   24  C   UNL     1     -22.289  -6.327  -1.721  1.00  0.00     0.000 C 
BRANCH  24  25
HETATM   25  C   UNL     1     -22.520  -7.135  -0.449  1.00  0.00     0.004 C 
BRANCH  25  26
HETATM   26  C   UNL     1     -21.800  -8.493  -0.472  1.00  0.00    -0.023 C 
HETATM   27  C   UNL     1     -20.979  -8.739   0.795  1.00  0.00     0.009 C 
HETATM   28  C   UNL     1     -22.824  -9.613  -0.654  1.00  0.00     0.009 C 
ENDBRANCH  25  26
ENDBRANCH  24  25
ENDBRANCH  23  24
ENDBRANCH  22  23
ENDBRANCH  21  22
ENDBRANCH  20  21
ENDBRANCH  19  20
ENDBRANCH  18  19
ENDBRANCH  17  18
ENDBRANCH  16  17
ENDBRANCH  15  16
ENDBRANCH   1  15
TORSDOF 22
BEGIN_RES ARG D 557
REMARK  4 active torsions:
REMARK  status: ('A' for Active; 'I' for Inactive)
REMARK    1  A    between atoms: CA   and  CB  
REMARK    2  A    between atoms: CB   and  CG  
REMARK    3  A    between atoms: CG   and  CD  
REMARK    4  A    between atoms: CD   and  NE  
REMARK       I    between atoms: NE   and  CZ  
REMARK       I    between atoms: CZ   and  NH1 
REMARK       I    between atoms: CZ   and  NH2 
ROOT
ATOM      1  CA  ARG D 557     -26.217   2.705 -17.014  1.00 35.49     0.159 C 
ENDROOT
BRANCH   1   2
ATOM      2  CB  ARG D 557     -26.789   1.319 -17.183  1.00 35.49     0.034 C 
BRANCH   2   3
ATOM      3  CG  ARG D 557     -25.848   0.198 -17.072  1.00 35.49     0.027 C 
BRANCH   3   4
ATOM      4  CD  ARG D 557     -26.147  -0.678 -15.917  1.00 35.49     0.116 C 
BRANCH   4   5
ATOM      5  NE  ARG D 557     -25.001  -0.866 -15.067  1.00 35.49    -0.212 N 
ATOM      6  CZ  ARG D 557     -24.823  -1.859 -14.225  1.00 35.49     0.666 C 
ATOM      7  NH1 ARG D 557     -25.719  -2.815 -14.056  1.00 35.49    -0.235 N 
ATOM      8  NH2 ARG D 557     -23.711  -1.882 -13.549  1.00 35.49    -0.235 N 
ATOM      9  HH  ARG D 557     -26.457  -2.821 -14.492  1.00 35.49     0.174 HD
ATOM     10  HH  ARG D 557     -25.547  -3.439 -13.495  1.00 35.49     0.174 HD
ATOM     11  HH  ARG D 557     -23.148  -1.256 -13.684  1.00 35.49     0.174 HD
ATOM     12  HH  ARG D 557     -23.559  -2.509 -12.999  1.00 35.49     0.174 HD
ATOM     13  HE  ARG D 557     -24.407  -0.258 -15.058  1.00 35.49     0.178 HD
ENDBRANCH   4   5
ENDBRANCH   3   4
ENDBRANCH   2   3
ENDBRANCH   1   2
END_RES ARG D 557
BEGIN_RES GLU D 570
REMARK  3 active torsions:
REMARK  status: ('A' for Active; 'I' for Inactive)
REMARK    5  A    between atoms: CA   and  CB  
REMARK    6  A    between atoms: CB   and  CG  
REMARK    7  A    between atoms: CG   and  CD  
ROOT
ATOM     14  CA  GLU D 570     -18.033  -6.348 -13.375  1.00 32.92     0.160 C 
ENDROOT
BRANCH  14  15
ATOM     15  CB  GLU D 570     -19.500  -6.345 -13.794  1.00 32.92     0.043 C 
BRANCH  15  16
ATOM     16  CG  GLU D 570     -20.097  -7.642 -14.207  1.00 32.92     0.100 C 
BRANCH  16  17
ATOM     17  CD  GLU D 570     -20.474  -7.677 -15.670  1.00 32.92     0.185 C 
ATOM     18  OE1 GLU D 570     -20.736  -8.774 -16.200  1.00 32.92    -0.647 OA
ATOM     19  OE2 GLU D 570     -20.492  -6.599 -16.295  1.00 32.92    -0.647 OA
ENDBRANCH  16  17
ENDBRANCH  15  16
ENDBRANCH  14  15
END_RES GLU D 570
ENDMDL
MODEL 2
REMARK VINA RESULT:      -7.5      2.802      6.399
REMARK  22 active torsions:
REMARK  status: ('A' for Active; 'I' for Inactive)
REMARK    1  A    between atoms: C_2  and  C_3 
REMARK    2  A    between atoms: C_3  and  C_4 
REMARK    3  A    between atoms: C_4  and  C_5 
REMARK    4  A    between atoms: C_5  and  C_6 
REMARK    5  A    between atoms: C_6  and  C_7 
REMARK    6  A    between atoms: C_7  and  O_9 
REMARK    7  A    between atoms: O_9  and  C_10 
REMARK    8  A    between atoms: C_10  and  C_12 
REMARK    9  A    between atoms: C_12  and  C_13 
REMARK   10  A    between atoms: C_13  and  C_14 
REMARK   11  A    between atoms: C_14  and  C_15 
REMARK   12  A    between atoms: C_15  and  C_16 
REMARK   13  A    between atoms: C_16  and  C_17 
REMARK   14  A    between atoms: C_17  and  C_18 
REMARK   15  A    between atoms: C_18  and  C_19 
REMARK   16  A    between atoms: C_19  and  C_20 
REMARK   17  A    between atoms: C_20  and  C_21 
REMARK   18  A    between atoms: C_21  and  C_22 
REMARK   19  A    between atoms: C_22  and  C_23 
REMARK   20  A    between atoms: C_23  and  C_24 
REMARK   21  A    between atoms: C_24  and  C_25 
REMARK   22  A    between atoms: C_25  and  C_26 
ROOT
HETATM    1  C   UNL     1     -21.982  -6.221  -5.010  1.00  0.00     0.000 C 
ENDROOT
BRANCH   1   2
HETATM    2  C   UNL     1     -20.523  -5.817  -4.866  1.00  0.00     0.010 C 
BRANCH   2   3
HETATM    3  C   UNL     1     -20.138  -4.666  -5.792  1.00  0.00     0.111 C 
BRANCH   3   4
HETATM    4  C   UNL     1     -19.897  -5.197  -7.179  1.00  0.00     0.259 C 
HETATM    5  O   UNL     1     -19.638  -6.370  -7.440  1.00  0.00    -0.265 OA
BRANCH   4   6
HETATM    6  O   UNL     1     -20.011  -4.205  -8.107  1.00  0.00    -0.316 OA
BRANCH   6   7
HETATM    7  C   UNL     1     -20.880  -4.519  -9.216  1.00  0.00     0.127 C 
HETATM    8  C   UNL     1     -20.353  -3.801 -10.460  1.00  0.00     0.040 C 
BRANCH   7   9
HETATM    9  C   UNL     1     -22.311  -4.083  -8.861  1.00  0.00     0.032 C 
BRANCH   9  10
HETATM   10  C   UNL     1     -23.125  -3.708 -10.097  1.00  0.00     0.002 C 
BRANCH  10  11
HETATM   11  C   UNL     1     -23.768  -4.915 -10.774  1.00  0.00     0.000 C 
BRANCH  11  12
HETATM   12  C   UNL     1     -23.480  -4.881 -12.277  1.00  0.00    -0.000 C 
BRANCH  12  13
HETATM   13  C   UNL     1     -23.315  -3.455 -12.792  1.00  0.00    -0.005 C 
HETATM   14  C   UNL     1     -24.605  -2.941 -13.413  1.00  0.00     0.005 C 
ENDBRANCH  12  13
ENDBRANCH  11  12
ENDBRANCH  10  11
ENDBRANCH   9  10
ENDBRANCH   7   9
ENDBRANCH   6   7
ENDBRANCH   4   6
ENDBRANCH   3   4
ENDBRANCH   2   3
ENDBRANCH   1   2
BRANCH   1  15
HETATM   15  C   UNL     1     -22.471  -6.857  -3.712  1.00  0.00     0.000 C 
BRANCH  15  16
HETATM   16  C   UNL     1     -21.729  -6.288  -2.514  1.00  0.00     0.000 C 
BRANCH  16  17
HETATM   17  C   UNL     1     -22.216  -6.938  -1.227  1.00  0.00     0.000 C 
BRANCH  17  18
HETATM   18  C   UNL     1     -21.138  -7.847  -0.655  1.00  0.00     0.000 C 
BRANCH  18  19
HETATM   19  C   UNL     1     -21.748  -8.845   0.316  1.00  0.00     0.000 C 
BRANCH  19  20
HETATM   20  C   UNL     1     -23.213  -9.078  -0.018  1.00  0.00     0.000 C 
BRANCH  20  21
HETATM   21  C   UNL     1     -23.467 -10.556  -0.270  1.00  0.00     0.000 C 
BRANCH  21  22
HETATM   22  C   UNL     1     -22.468 -11.095  -1.282  1.00  0.00     0.000 C 
BRANCH  22  23
HETATM   23  C   UNL     1     -23.061 -11.075  -2.684  1.00  0.00     0.000 C 
BRANCH  23  24
HETATM   24  C   UNL     1     -22.084 -10.412  -3.645  1.00  0.00     0.000 C 
BRANCH  24  25
HETATM   25  C   UNL     1     -20.647 -10.539  -3.148  1.00  0.00     0.004 C 
BRANCH  25  26
HETATM   26  C   UNL     1     -19.770  -9.348  -3.568  1.00  0.00    -0.023 C 
HETATM   27  C   UNL     1     -18.423  -9.333  -2.843  1.00  0.00     0.009 C 
HETATM   28  C   UNL     1     -19.547  -9.384  -5.079  1.00  0.00     0.009 C 
ENDBRANCH  25  26
ENDBRANCH  24  25
ENDBRANCH  23  24
ENDBRANCH  22  23
ENDBRANCH  21  22
ENDBRANCH  20  21
ENDBRANCH  19  20
ENDBRANCH  18  19
ENDBRANCH  17  18
ENDBRANCH  16  17
ENDBRANCH  15  16
ENDBRANCH   1  15
TORSDOF 22
BEGIN_RES ARG D 557
REMARK  4 active torsions:
REMARK  status: ('A' for Active; 'I' for Inactive)
REMARK    1  A    between atoms: CA   and  CB  
REMARK    2  A    between atoms: CB   and  CG  
REMARK    3  A    between atoms: CG   and  CD  
REMARK    4  A    between atoms: CD   and  NE  
REMARK       I    between atoms: NE   and  CZ  
REMARK       I    between atoms: CZ   and  NH1 
REMARK       I    between atoms: CZ   and  NH2 
ROOT
ATOM      1  CA  ARG D 557     -26.217   2.705 -17.014  1.00 35.49     0.159 C 
ENDROOT
BRANCH   1   2
ATOM      2  CB  ARG D 557     -26.789   1.319 -17.183  1.00 35.49     0.034 C 
BRANCH   2   3
ATOM      3  CG  ARG D 557     -28.232   1.226 -17.436  1.00 35.49     0.027 C 
BRANCH   3   4
ATOM      4  CD  ARG D 557     -28.912   0.307 -16.495  1.00 35.49     0.116 C 
BRANCH   4   5
ATOM      5  NE  ARG D 557     -29.322  -0.916 -17.132  1.00 35.49    -0.212 N 
ATOM      6  CZ  ARG D 557     -28.703  -2.072 -17.047  1.00 35.49     0.666 C 
ATOM      7  NH1 ARG D 557     -27.591  -2.232 -16.352  1.00 35.49    -0.235 N 
ATOM      8  NH2 ARG D 557     -29.229  -3.084 -17.674  1.00 35.49    -0.235 N 
ATOM      9  HH  ARG D 557     -27.229  -1.581 -15.929  1.00 35.49     0.174 HD
ATOM     10  HH  ARG D 557     -27.233  -3.010 -16.330  1.00 35.49     0.174 HD
ATOM     11  HH  ARG D 557     -29.951  -2.953 -18.109  1.00 35.49     0.174 HD
ATOM     12  HH  ARG D 557     -28.860  -3.846 -17.639  1.00 35.49     0.174 HD
ATOM     13  HE  ARG D 557     -29.989  -0.888 -17.659  1.00 35.49     0.178 HD
ENDBRANCH   4   5
ENDBRANCH   3   4
ENDBRANCH   2   3
ENDBRANCH   1   2
END_RES ARG D 557
BEGIN_RES GLU D 570
REMARK  3 active torsions:
REMARK  status: ('A' for Active; 'I' for Inactive)
REMARK    5  A    between atoms: CA   and  CB  
REMARK    6  A    between atoms: CB   and  CG  
REMARK    7  A    between atoms: CG   and  CD  
ROOT
ATOM     14  CA  GLU D 570     -18.033  -6.348 -13.375  1.00 32.92     0.160 C 
ENDROOT
BRANCH  14  15
ATOM     15  CB  GLU D 570     -19.500  -6.345 -13.794  1.00 32.92     0.043 C 
BRANCH  15  16
ATOM     16  CG  GLU D 570     -19.810  -5.969 -15.198  1.00 32.92     0.100 C 
BRANCH  16  17
ATOM     17  CD  GLU D 570     -21.284  -5.736 -15.433  1.00 32.92     0.185 C 
ATOM     18  OE1 GLU D 570     -21.654  -4.661 -15.943  1.00 32.92    -0.647 OA
ATOM     19  OE2 GLU D 570     -22.080  -6.633 -15.089  1.00 32.92    -0.647 OA
ENDBRANCH  16  17
ENDBRANCH  15  16
ENDBRANCH  14  15
END_RES GLU D 570
ENDMDL
MODEL 3
REMARK VINA RESULT:      -7.4      2.712      7.261
REMARK  22 active torsions:
REMARK  status: ('A' for Active; 'I' for Inactive)
REMARK    1  A    between atoms: C_2  and  C_3 
REMARK    2  A    between atoms: C_3  and  C_4 
REMARK    3  A    between atoms: C_4  and  C_5 
REMARK    4  A    between atoms: C_5  and  C_6 
REMARK    5  A    between atoms: C_6  and  C_7 
REMARK    6  A    between atoms: C_7  and  O_9 
REMARK    7  A    between atoms: O_9  and  C_10 
REMARK    8  A    between atoms: C_10  and  C_12 
REMARK    9  A    between atoms: C_12  and  C_13 
REMARK   10  A    between atoms: C_13  and  C_14 
REMARK   11  A    between atoms: C_14  and  C_15 
REMARK   12  A    between atoms: C_15  and  C_16 
REMARK   13  A    between atoms: C_16  and  C_17 
REMARK   14  A    between atoms: C_17  and  C_18 
REMARK   15  A    between atoms: C_18  and  C_19 
REMARK   16  A    between atoms: C_19  and  C_20 
REMARK   17  A    between atoms: C_20  and  C_21 
REMARK   18  A    between atoms: C_21  and  C_22 
REMARK   19  A    between atoms: C_22  and  C_23 
REMARK   20  A    between atoms: C_23  and  C_24 
REMARK   21  A    between atoms: C_24  and  C_25 
REMARK   22  A    between atoms: C_25  and  C_26 
ROOT
HETATM    1  C   UNL     1     -21.621  -5.973  -2.438  1.00  0.00     0.000 C 
ENDROOT
BRANCH   1   2
HETATM    2  C   UNL     1     -21.864  -6.634  -3.786  1.00  0.00     0.010 C 
BRANCH   2   3
HETATM    3  C   UNL     1     -20.856  -6.196  -4.845  1.00  0.00     0.111 C 
BRANCH   3   4
HETATM    4  C   UNL     1     -21.047  -7.019  -6.090  1.00  0.00     0.259 C 
HETATM    5  O   UNL     1     -21.287  -8.224  -6.098  1.00  0.00    -0.265 OA
BRANCH   4   6
HETATM    6  O   UNL     1     -20.924  -6.247  -7.208  1.00  0.00    -0.316 OA
BRANCH   6   7
HETATM    7  C   UNL     1     -21.094  -4.832  -6.981  1.00  0.00     0.127 C 
HETATM    8  C   UNL     1     -22.571  -4.485  -7.183  1.00  0.00     0.040 C 
BRANCH   7   9
HETATM    9  C   UNL     1     -20.183  -4.063  -7.951  1.00  0.00     0.032 C 
BRANCH   9  10
HETATM   10  C   UNL     1     -20.102  -4.731  -9.322  1.00  0.00     0.002 C 
BRANCH  10  11
HETATM   11  C   UNL     1     -20.360  -3.761 -10.472  1.00  0.00     0.000 C 
BRANCH  11  12
HETATM   12  C   UNL     1     -21.515  -4.276 -11.334  1.00  0.00    -0.000 C 
BRANCH  12  13
HETATM   13  C   UNL     1     -22.872  -3.865 -10.772  1.00  0.00    -0.005 C 
HETATM   14  C   UNL     1     -23.797  -5.065 -10.637  1.00  0.00     0.005 C 
ENDBRANCH  12  13
ENDBRANCH  11  12
ENDBRANCH  10  11
ENDBRANCH   9  10
ENDBRANCH   7   9
ENDBRANCH   6   7
ENDBRANCH   4   6
ENDBRANCH   3   4
ENDBRANCH   2   3
ENDBRANCH   1   2
BRANCH   1  15
HETATM   15  C   UNL     1     -22.337  -6.758  -1.343  1.00  0.00     0.000 C 
BRANCH  15  16
HETATM   16  C   UNL     1     -21.395  -7.751  -0.682  1.00  0.00     0.000 C 
BRANCH  16  17
HETATM   17  C   UNL     1     -22.140  -8.589   0.346  1.00  0.00     0.000 C 
BRANCH  17  18
HETATM   18  C   UNL     1     -21.307  -9.798   0.746  1.00  0.00     0.000 C 
BRANCH  18  19
HETATM   19  C   UNL     1     -21.977 -11.080   0.278  1.00  0.00     0.000 C 
BRANCH  19  20
HETATM   20  C   UNL     1     -23.454 -10.837   0.010  1.00  0.00     0.000 C 
BRANCH  20  21
HETATM   21  C   UNL     1     -23.896 -11.598  -1.230  1.00  0.00     0.000 C 
BRANCH  21  22
HETATM   22  C   UNL     1     -23.138 -11.100  -2.450  1.00  0.00     0.000 C 
BRANCH  22  23
HETATM   23  C   UNL     1     -22.338 -12.230  -3.083  1.00  0.00     0.000 C 
BRANCH  23  24
HETATM   24  C   UNL     1     -21.026 -11.686  -3.631  1.00  0.00     0.000 C 
BRANCH  24  25
HETATM   25  C   UNL     1     -20.923 -10.178  -3.424  1.00  0.00     0.004 C 
BRANCH  25  26
HETATM   26  C   UNL     1     -19.577  -9.756  -2.813  1.00  0.00    -0.023 C 
HETATM   27  C   UNL     1     -18.912 -10.890  -2.031  1.00  0.00     0.009 C 
HETATM   28  C   UNL     1     -18.643  -9.269  -3.920  1.00  0.00     0.009 C 
ENDBRANCH  25  26
ENDBRANCH  24  25
ENDBRANCH  23  24
ENDBRANCH  22  23
ENDBRANCH  21  22
ENDBRANCH  20  21
ENDBRANCH  19  20
ENDBRANCH  18  19
ENDBRANCH  17  18
ENDBRANCH  16  17
ENDBRANCH  15  16
ENDBRANCH   1  15
TORSDOF 22
BEGIN_RES ARG D 557
REMARK  4 active torsions:
REMARK  status: ('A' for Active; 'I' for Inactive)
REMARK    1  A    between atoms: CA   and  CB  
REMARK    2  A    between atoms: CB   and  CG  
REMARK    3  A    between atoms: CG   and  CD  
REMARK    4  A    between atoms: CD   and  NE  
REMARK       I    between atoms: NE   and  CZ  
REMARK       I    between atoms: CZ   and  NH1 
REMARK       I    between atoms: CZ   and  NH2 
ROOT
ATOM      1  CA  ARG D 557     -26.217   2.705 -17.014  1.00 35.49     0.159 C 
ENDROOT
BRANCH   1   2
ATOM      2  CB  ARG D 557     -26.789   1.319 -17.183  1.00 35.49     0.034 C 
BRANCH   2   3
ATOM      3  CG  ARG D 557     -25.858   0.196 -17.023  1.00 35.49     0.027 C 
BRANCH   3   4
ATOM      4  CD  ARG D 557     -26.258  -0.717 -15.928  1.00 35.49     0.116 C 
BRANCH   4   5
ATOM      5  NE  ARG D 557     -25.210  -0.890 -14.956  1.00 35.49    -0.212 N 
ATOM      6  CZ  ARG D 557     -24.904  -2.015 -14.349  1.00 35.49     0.666 C 
ATOM      7  NH1 ARG D 557     -25.561  -3.140 -14.566  1.00 35.49    -0.235 N 
ATOM      8  NH2 ARG D 557     -23.908  -1.993 -13.511  1.00 35.49    -0.235 N 
ATOM      9  HH  ARG D 557     -26.218  -3.177 -15.114  1.00 35.49     0.174 HD
ATOM     10  HH  ARG D 557     -25.315  -3.843 -14.143  1.00 35.49     0.174 HD
ATOM     11  HH  ARG D 557     -23.498  -1.254 -13.396  1.00 35.49     0.174 HD
ATOM     12  HH  ARG D 557     -23.679  -2.700 -13.103  1.00 35.49     0.174 HD
ATOM     13  HE  ARG D 557     -24.783  -0.200 -14.702  1.00 35.49     0.178 HD
ENDBRANCH   4   5
ENDBRANCH   3   4
ENDBRANCH   2   3
ENDBRANCH   1   2
END_RES ARG D 557
BEGIN_RES GLU D 570
REMARK  3 active torsions:
REMARK  status: ('A' for Active; 'I' for Inactive)
REMARK    5  A    between atoms: CA   and  CB  
REMARK    6  A    between atoms: CB   and  CG  
REMARK    7  A    between atoms: CG   and  CD  
ROOT
ATOM     14  CA  GLU D 570     -18.033  -6.348 -13.375  1.00 32.92     0.160 C 
ENDROOT
BRANCH  14  15
ATOM     15  CB  GLU D 570     -19.500  -6.345 -13.794  1.00 32.92     0.043 C 
BRANCH  15  16
ATOM     16  CG  GLU D 570     -19.798  -6.479 -15.243  1.00 32.92     0.100 C 
BRANCH  16  17
ATOM     17  CD  GLU D 570     -20.912  -7.460 -15.528  1.00 32.92     0.185 C 
ATOM     18  OE1 GLU D 570     -20.624  -8.646 -15.779  1.00 32.92    -0.647 OA
ATOM     19  OE2 GLU D 570     -22.083  -7.035 -15.515  1.00 32.92    -0.647 OA
ENDBRANCH  16  17
ENDBRANCH  15  16
ENDBRANCH  14  15
END_RES GLU D 570
ENDMDL
MODEL 4
REMARK VINA RESULT:      -7.4      1.708      2.272
REMARK  22 active torsions:
REMARK  status: ('A' for Active; 'I' for Inactive)
REMARK    1  A    between atoms: C_2  and  C_3 
REMARK    2  A    between atoms: C_3  and  C_4 
REMARK    3  A    between atoms: C_4  and  C_5 
REMARK    4  A    between atoms: C_5  and  C_6 
REMARK    5  A    between atoms: C_6  and  C_7 
REMARK    6  A    between atoms: C_7  and  O_9 
REMARK    7  A    between atoms: O_9  and  C_10 
REMARK    8  A    between atoms: C_10  and  C_12 
REMARK    9  A    between atoms: C_12  and  C_13 
REMARK   10  A    between atoms: C_13  and  C_14 
REMARK   11  A    between atoms: C_14  and  C_15 
REMARK   12  A    between atoms: C_15  and  C_16 
REMARK   13  A    between atoms: C_16  and  C_17 
REMARK   14  A    between atoms: C_17  and  C_18 
REMARK   15  A    between atoms: C_18  and  C_19 
REMARK   16  A    between atoms: C_19  and  C_20 
REMARK   17  A    between atoms: C_20  and  C_21 
REMARK   18  A    between atoms: C_21  and  C_22 
REMARK   19  A    between atoms: C_22  and  C_23 
REMARK   20  A    between atoms: C_23  and  C_24 
REMARK   21  A    between atoms: C_24  and  C_25 
REMARK   22  A    between atoms: C_25  and  C_26 
ROOT
HETATM    1  C   UNL     1     -23.219  -2.934 -11.910  1.00  0.00     0.000 C 
ENDROOT
BRANCH   1   2
HETATM    2  C   UNL     1     -23.697  -2.879 -13.353  1.00  0.00     0.010 C 
BRANCH   2   3
HETATM    3  C   UNL     1     -23.034  -3.936 -14.232  1.00  0.00     0.111 C 
BRANCH   3   4
HETATM    4  C   UNL     1     -23.886  -5.175 -14.256  1.00  0.00     0.259 C 
HETATM    5  O   UNL     1     -23.842  -6.068 -13.410  1.00  0.00    -0.265 OA
BRANCH   4   6
HETATM    6  O   UNL     1     -24.718  -5.174 -15.336  1.00  0.00    -0.316 OA
BRANCH   6   7
HETATM    7  C   UNL     1     -25.307  -6.456 -15.641  1.00  0.00     0.127 C 
HETATM    8  C   UNL     1     -24.274  -7.292 -16.400  1.00  0.00     0.040 C 
BRANCH   7   9
HETATM    9  C   UNL     1     -26.584  -6.229 -16.466  1.00  0.00     0.032 C 
BRANCH   9  10
HETATM   10  C   UNL     1     -27.827  -6.781 -15.770  1.00  0.00     0.002 C 
BRANCH  10  11
HETATM   11  C   UNL     1     -28.958  -5.761 -15.675  1.00  0.00     0.000 C 
BRANCH  11  12
HETATM   12  C   UNL     1     -30.141  -6.217 -16.531  1.00  0.00    -0.000 C 
BRANCH  12  13
HETATM   13  C   UNL     1     -29.765  -6.338 -18.004  1.00  0.00    -0.005 C 
HETATM   14  C   UNL     1     -30.090  -7.723 -18.543  1.00  0.00     0.005 C 
ENDBRANCH  12  13
ENDBRANCH  11  12
ENDBRANCH  10  11
ENDBRANCH   9  10
ENDBRANCH   7   9
ENDBRANCH   6   7
ENDBRANCH   4   6
ENDBRANCH   3   4
ENDBRANCH   2   3
ENDBRANCH   1   2
BRANCH   1  15
HETATM   15  C   UNL     1     -21.774  -3.419 -11.864  1.00  0.00     0.000 C 
BRANCH  15  16
HETATM   16  C   UNL     1     -21.575  -4.434 -10.750  1.00  0.00     0.000 C 
BRANCH  16  17
HETATM   17  C   UNL     1     -20.670  -3.866  -9.667  1.00  0.00     0.000 C 
BRANCH  17  18
HETATM   18  C   UNL     1     -20.578  -4.831  -8.495  1.00  0.00     0.000 C 
BRANCH  18  19
HETATM   19  C   UNL     1     -20.675  -4.077  -7.179  1.00  0.00     0.000 C 
BRANCH  19  20
HETATM   20  C   UNL     1     -20.179  -4.946  -6.035  1.00  0.00     0.000 C 
BRANCH  20  21
HETATM   21  C   UNL     1     -21.321  -5.777  -5.471  1.00  0.00     0.000 C 
BRANCH  21  22
HETATM   22  C   UNL     1     -21.119  -7.245  -5.809  1.00  0.00     0.000 C 
BRANCH  22  23
HETATM   23  C   UNL     1     -20.428  -7.970  -4.663  1.00  0.00     0.000 C 
BRANCH  23  24
HETATM   24  C   UNL     1     -21.435  -8.266  -3.561  1.00  0.00     0.000 C 
BRANCH  24  25
HETATM   25  C   UNL     1     -20.766  -8.290  -2.190  1.00  0.00     0.004 C 
BRANCH  25  26
HETATM   26  C   UNL     1     -21.479  -7.388  -1.170  1.00  0.00    -0.023 C 
HETATM   27  C   UNL     1     -22.209  -6.219  -1.835  1.00  0.00     0.009 C 
HETATM   28  C   UNL     1     -22.467  -8.220  -0.353  1.00  0.00     0.009 C 
ENDBRANCH  25  26
ENDBRANCH  24  25
ENDBRANCH  23  24
ENDBRANCH  22  23
ENDBRANCH  21  22
ENDBRANCH  20  21
ENDBRANCH  19  20
ENDBRANCH  18  19
ENDBRANCH  17  18
ENDBRANCH  16  17
ENDBRANCH  15  16
ENDBRANCH   1  15
TORSDOF 22
BEGIN_RES ARG D 557
REMARK  4 active torsions:
REMARK  status: ('A' for Active; 'I' for Inactive)
REMARK    1  A    between atoms: CA   and  CB  
REMARK    2  A    between atoms: CB   and  CG  
REMARK    3  A    between atoms: CG   and  CD  
REMARK    4  A    between atoms: CD   and  NE  
REMARK       I    between atoms: NE   and  CZ  
REMARK       I    between atoms: CZ   and  NH1 
REMARK       I    between atoms: CZ   and  NH2 
ROOT
ATOM      1  CA  ARG D 557     -26.217   2.705 -17.014  1.00 35.49     0.159 C 
ENDROOT
BRANCH   1   2
ATOM      2  CB  ARG D 557     -26.789   1.319 -17.183  1.00 35.49     0.034 C 
BRANCH   2   3
ATOM      3  CG  ARG D 557     -28.234   1.226 -17.426  1.00 35.49     0.027 C 
BRANCH   3   4
ATOM      4  CD  ARG D 557     -28.869   0.141 -16.643  1.00 35.49     0.116 C 
BRANCH   4   5
ATOM      5  NE  ARG D 557     -27.902  -0.794 -16.129  1.00 35.49    -0.212 N 
ATOM      6  CZ  ARG D 557     -27.832  -2.071 -16.432  1.00 35.49     0.666 C 
ATOM      7  NH1 ARG D 557     -28.681  -2.651 -17.259  1.00 35.49    -0.235 N 
ATOM      8  NH2 ARG D 557     -26.876  -2.765 -15.887  1.00 35.49    -0.235 N 
ATOM      9  HH  ARG D 557     -29.317  -2.212 -17.631  1.00 35.49     0.174 HD
ATOM     10  HH  ARG D 557     -28.585  -3.487 -17.422  1.00 35.49     0.174 HD
ATOM     11  HH  ARG D 557     -26.337  -2.362 -15.362  1.00 35.49     0.174 HD
ATOM     12  HH  ARG D 557     -26.796  -3.591 -16.061  1.00 35.49     0.174 HD
ATOM     13  HE  ARG D 557     -27.361  -0.521 -15.532  1.00 35.49     0.178 HD
ENDBRANCH   4   5
ENDBRANCH   3   4
ENDBRANCH   2   3
ENDBRANCH   1   2
END_RES ARG D 557
BEGIN_RES GLU D 570
REMARK  3 active torsions:
REMARK  status: ('A' for Active; 'I' for Inactive)
REMARK    5  A    between atoms: CA   and  CB  
REMARK    6  A    between atoms: CB   and  CG  
REMARK    7  A    between atoms: CG   and  CD  
ROOT
ATOM     14  CA  GLU D 570     -18.033  -6.348 -13.375  1.00 32.92     0.160 C 
ENDROOT
BRANCH  14  15
ATOM     15  CB  GLU D 570     -19.500  -6.345 -13.794  1.00 32.92     0.043 C 
BRANCH  15  16
ATOM     16  CG  GLU D 570     -19.863  -5.571 -15.009  1.00 32.92     0.100 C 
BRANCH  16  17
ATOM     17  CD  GLU D 570     -20.641  -6.385 -16.016  1.00 32.92     0.185 C 
ATOM     18  OE1 GLU D 570     -20.736  -7.617 -15.854  1.00 32.92    -0.647 OA
ATOM     19  OE2 GLU D 570     -21.146  -5.787 -16.987  1.00 32.92    -0.647 OA
ENDBRANCH  16  17
ENDBRANCH  15  16
ENDBRANCH  14  15
END_RES GLU D 570
ENDMDL
MODEL 5
REMARK VINA RESULT:      -7.3      2.663      5.490
REMARK  22 active torsions:
REMARK  status: ('A' for Active; 'I' for Inactive)
REMARK    1  A    between atoms: C_2  and  C_3 
REMARK    2  A    between atoms: C_3  and  C_4 
REMARK    3  A    between atoms: C_4  and  C_5 
REMARK    4  A    between atoms: C_5  and  C_6 
REMARK    5  A    between atoms: C_6  and  C_7 
REMARK    6  A    between atoms: C_7  and  O_9 
REMARK    7  A    between atoms: O_9  and  C_10 
REMARK    8  A    between atoms: C_10  and  C_12 
REMARK    9  A    between atoms: C_12  and  C_13 
REMARK   10  A    between atoms: C_13  and  C_14 
REMARK   11  A    between atoms: C_14  and  C_15 
REMARK   12  A    between atoms: C_15  and  C_16 
REMARK   13  A    between atoms: C_16  and  C_17 
REMARK   14  A    between atoms: C_17  and  C_18 
REMARK   15  A    between atoms: C_18  and  C_19 
REMARK   16  A    between atoms: C_19  and  C_20 
REMARK   17  A    between atoms: C_20  and  C_21 
REMARK   18  A    between atoms: C_21  and  C_22 
REMARK   19  A    between atoms: C_22  and  C_23 
REMARK   20  A    between atoms: C_23  and  C_24 
REMARK   21  A    between atoms: C_24  and  C_25 
REMARK   22  A    between atoms: C_25  and  C_26 
ROOT
HETATM    1  C   UNL     1     -20.052  -5.213  -5.811  1.00  0.00     0.000 C 
ENDROOT
BRANCH   1   2
HETATM    2  C   UNL     1     -20.215  -4.645  -7.213  1.00  0.00     0.010 C 
BRANCH   2   3
HETATM    3  C   UNL     1     -21.353  -3.632  -7.306  1.00  0.00     0.111 C 
BRANCH   3   4
HETATM    4  C   UNL     1     -22.656  -4.357  -7.502  1.00  0.00     0.259 C 
HETATM    5  O   UNL     1     -23.400  -4.710  -6.589  1.00  0.00    -0.265 OA
BRANCH   4   6
HETATM    6  O   UNL     1     -22.905  -4.564  -8.827  1.00  0.00    -0.316 OA
BRANCH   6   7
HETATM    7  C   UNL     1     -23.251  -3.372  -9.564  1.00  0.00     0.127 C 
HETATM    8  C   UNL     1     -24.776  -3.248  -9.592  1.00  0.00     0.040 C 
BRANCH   7   9
HETATM    9  C   UNL     1     -22.654  -3.476 -10.978  1.00  0.00     0.032 C 
BRANCH   9  10
HETATM   10  C   UNL     1     -23.345  -4.547 -11.820  1.00  0.00     0.002 C 
BRANCH  10  11
HETATM   11  C   UNL     1     -22.610  -4.844 -13.123  1.00  0.00     0.000 C 
BRANCH  11  12
HETATM   12  C   UNL     1     -23.043  -3.848 -14.201  1.00  0.00    -0.000 C 
BRANCH  12  13
HETATM   13  C   UNL     1     -24.548  -3.602 -14.177  1.00  0.00    -0.005 C 
HETATM   14  C   UNL     1     -24.864  -2.117 -14.274  1.00  0.00     0.005 C 
ENDBRANCH  12  13
ENDBRANCH  11  12
ENDBRANCH  10  11
ENDBRANCH   9  10
ENDBRANCH   7   9
ENDBRANCH   6   7
ENDBRANCH   4   6
ENDBRANCH   3   4
ENDBRANCH   2   3
ENDBRANCH   1   2
BRANCH   1  15
HETATM   15  C   UNL     1     -20.225  -6.729  -5.847  1.00  0.00     0.000 C 
BRANCH  15  16
HETATM   16  C   UNL     1     -21.493  -7.149  -5.122  1.00  0.00     0.000 C 
BRANCH  16  17
HETATM   17  C   UNL     1     -21.225  -7.316  -3.633  1.00  0.00     0.000 C 
BRANCH  17  18
HETATM   18  C   UNL     1     -21.921  -6.216  -2.846  1.00  0.00     0.000 C 
BRANCH  18  19
HETATM   19  C   UNL     1     -22.175  -6.668  -1.417  1.00  0.00     0.000 C 
BRANCH  19  20
HETATM   20  C   UNL     1     -21.136  -7.694  -0.995  1.00  0.00     0.000 C 
BRANCH  20  21
HETATM   21  C   UNL     1     -21.597  -8.428   0.255  1.00  0.00     0.000 C 
BRANCH  21  22
HETATM   22  C   UNL     1     -23.079  -8.185   0.489  1.00  0.00     0.000 C 
BRANCH  22  23
HETATM   23  C   UNL     1     -23.868  -9.477   0.320  1.00  0.00     0.000 C 
BRANCH  23  24
HETATM   24  C   UNL     1     -23.024 -10.499  -0.426  1.00  0.00     0.000 C 
BRANCH  24  25
HETATM   25  C   UNL     1     -23.859 -11.702  -0.852  1.00  0.00     0.004 C 
BRANCH  25  26
HETATM   26  C   UNL     1     -23.691 -12.903   0.093  1.00  0.00    -0.023 C 
HETATM   27  C   UNL     1     -23.845 -14.242  -0.633  1.00  0.00     0.009 C 
HETATM   28  C   UNL     1     -22.323 -12.834   0.770  1.00  0.00     0.009 C 
ENDBRANCH  25  26
ENDBRANCH  24  25
ENDBRANCH  23  24
ENDBRANCH  22  23
ENDBRANCH  21  22
ENDBRANCH  20  21
ENDBRANCH  19  20
ENDBRANCH  18  19
ENDBRANCH  17  18
ENDBRANCH  16  17
ENDBRANCH  15  16
ENDBRANCH   1  15
TORSDOF 22
BEGIN_RES ARG D 557
REMARK  4 active torsions:
REMARK  status: ('A' for Active; 'I' for Inactive)
REMARK    1  A    between atoms: CA   and  CB  
REMARK    2  A    between atoms: CB   and  CG  
REMARK    3  A    between atoms: CG   and  CD  
REMARK    4  A    between atoms: CD   and  NE  
REMARK       I    between atoms: NE   and  CZ  
REMARK       I    between atoms: CZ   and  NH1 
REMARK       I    between atoms: CZ   and  NH2 
ROOT
ATOM      1  CA  ARG D 557     -26.217   2.705 -17.014  1.00 35.49     0.159 C 
ENDROOT
BRANCH   1   2
ATOM      2  CB  ARG D 557     -26.789   1.319 -17.183  1.00 35.49     0.034 C 
BRANCH   2   3
ATOM      3  CG  ARG D 557     -28.232   1.226 -17.434  1.00 35.49     0.027 C 
BRANCH   3   4
ATOM      4  CD  ARG D 557     -28.912   0.309 -16.491  1.00 35.49     0.116 C 
BRANCH   4   5
ATOM      5  NE  ARG D 557     -28.143  -0.882 -16.243  1.00 35.49    -0.212 N 
ATOM      6  CZ  ARG D 557     -28.401  -2.077 -16.725  1.00 35.49     0.666 C 
ATOM      7  NH1 ARG D 557     -29.440  -2.318 -17.503  1.00 35.49    -0.235 N 
ATOM      8  NH2 ARG D 557     -27.583  -3.040 -16.413  1.00 35.49    -0.235 N 
ATOM      9  HH  ARG D 557     -29.990  -1.699 -17.723  1.00 35.49     0.174 HD
ATOM     10  HH  ARG D 557     -29.557  -3.117 -17.790  1.00 35.49     0.174 HD
ATOM     11  HH  ARG D 557     -26.916  -2.853 -15.915  1.00 35.49     0.174 HD
ATOM     12  HH  ARG D 557     -27.715  -3.824 -16.709  1.00 35.49     0.174 HD
ATOM     13  HE  ARG D 557     -27.496  -0.833 -15.693  1.00 35.49     0.178 HD
ENDBRANCH   4   5
ENDBRANCH   3   4
ENDBRANCH   2   3
ENDBRANCH   1   2
END_RES ARG D 557
BEGIN_RES GLU D 570
REMARK  3 active torsions:
REMARK  status: ('A' for Active; 'I' for Inactive)
REMARK    5  A    between atoms: CA   and  CB  
REMARK    6  A    between atoms: CB   and  CG  
REMARK    7  A    between atoms: CG   and  CD  
ROOT
ATOM     14  CA  GLU D 570     -18.033  -6.348 -13.375  1.00 32.92     0.160 C 
ENDROOT
BRANCH  14  15
ATOM     15  CB  GLU D 570     -19.500  -6.345 -13.794  1.00 32.92     0.043 C 
BRANCH  15  16
ATOM     16  CG  GLU D 570     -19.796  -6.396 -15.249  1.00 32.92     0.100 C 
BRANCH  16  17
ATOM     17  CD  GLU D 570     -20.875  -7.396 -15.596  1.00 32.92     0.185 C 
ATOM     18  OE1 GLU D 570     -22.038  -6.990 -15.785  1.00 32.92    -0.647 OA
ATOM     19  OE2 GLU D 570     -20.557  -8.600 -15.662  1.00 32.92    -0.647 OA
ENDBRANCH  16  17
ENDBRANCH  15  16
ENDBRANCH  14  15
END_RES GLU D 570
ENDMDL
MODEL 6
REMARK VINA RESULT:      -7.2      3.104      5.589
REMARK  22 active torsions:
REMARK  status: ('A' for Active; 'I' for Inactive)
REMARK    1  A    between atoms: C_2  and  C_3 
REMARK    2  A    between atoms: C_3  and  C_4 
REMARK    3  A    between atoms: C_4  and  C_5 
REMARK    4  A    between atoms: C_5  and  C_6 
REMARK    5  A    between atoms: C_6  and  C_7 
REMARK    6  A    between atoms: C_7  and  O_9 
REMARK    7  A    between atoms: O_9  and  C_10 
REMARK    8  A    between atoms: C_10  and  C_12 
REMARK    9  A    between atoms: C_12  and  C_13 
REMARK   10  A    between atoms: C_13  and  C_14 
REMARK   11  A    between atoms: C_14  and  C_15 
REMARK   12  A    between atoms: C_15  and  C_16 
REMARK   13  A    between atoms: C_16  and  C_17 
REMARK   14  A    between atoms: C_17  and  C_18 
REMARK   15  A    between atoms: C_18  and  C_19 
REMARK   16  A    between atoms: C_19  and  C_20 
REMARK   17  A    between atoms: C_20  and  C_21 
REMARK   18  A    between atoms: C_21  and  C_22 
REMARK   19  A    between atoms: C_22  and  C_23 
REMARK   20  A    between atoms: C_23  and  C_24 
REMARK   21  A    between atoms: C_24  and  C_25 
REMARK   22  A    between atoms: C_25  and  C_26 
ROOT
HETATM    1  C   UNL     1     -24.413  -6.874 -15.283  1.00  0.00     0.000 C 
ENDROOT
BRANCH   1   2
HETATM    2  C   UNL     1     -25.614  -6.912 -16.215  1.00  0.00     0.010 C 
BRANCH   2   3
HETATM    3  C   UNL     1     -26.369  -5.586 -16.255  1.00  0.00     0.111 C 
BRANCH   3   4
HETATM    4  C   UNL     1     -27.839  -5.840 -16.060  1.00  0.00     0.259 C 
HETATM    5  O   UNL     1     -28.571  -5.170 -15.334  1.00  0.00    -0.265 OA
BRANCH   4   6
HETATM    6  O   UNL     1     -28.252  -6.907 -16.802  1.00  0.00    -0.316 OA
BRANCH   6   7
HETATM    7  C   UNL     1     -28.854  -6.560 -18.067  1.00  0.00     0.127 C 
HETATM    8  C   UNL     1     -29.752  -7.719 -18.508  1.00  0.00     0.040 C 
BRANCH   7   9
HETATM    9  C   UNL     1     -27.737  -6.275 -19.084  1.00  0.00     0.032 C 
BRANCH   9  10
HETATM   10  C   UNL     1     -27.929  -7.052 -20.386  1.00  0.00     0.002 C 
BRANCH  10  11
HETATM   11  C   UNL     1     -26.716  -7.900 -20.756  1.00  0.00     0.000 C 
BRANCH  11  12
HETATM   12  C   UNL     1     -25.433  -7.101 -20.517  1.00  0.00    -0.000 C 
BRANCH  12  13
HETATM   13  C   UNL     1     -24.185  -7.936 -20.781  1.00  0.00    -0.005 C 
HETATM   14  C   UNL     1     -23.864  -7.989 -22.267  1.00  0.00     0.005 C 
ENDBRANCH  12  13
ENDBRANCH  11  12
ENDBRANCH  10  11
ENDBRANCH   9  10
ENDBRANCH   7   9
ENDBRANCH   6   7
ENDBRANCH   4   6
ENDBRANCH   3   4
ENDBRANCH   2   3
ENDBRANCH   1   2
BRANCH   1  15
HETATM   15  C   UNL     1     -24.344  -5.518 -14.587  1.00  0.00     0.000 C 
BRANCH  15  16
HETATM   16  C   UNL     1     -23.091  -5.408 -13.733  1.00  0.00     0.000 C 
BRANCH  16  17
HETATM   17  C   UNL     1     -22.520  -3.999 -13.803  1.00  0.00     0.000 C 
BRANCH  17  18
HETATM   18  C   UNL     1     -23.501  -3.003 -13.204  1.00  0.00     0.000 C 
BRANCH  18  19
HETATM   19  C   UNL     1     -23.150  -2.724 -11.751  1.00  0.00     0.000 C 
BRANCH  19  20
HETATM   20  C   UNL     1     -21.663  -2.939 -11.517  1.00  0.00     0.000 C 
BRANCH  20  21
HETATM   21  C   UNL     1     -21.447  -3.945 -10.396  1.00  0.00     0.000 C 
BRANCH  21  22
HETATM   22  C   UNL     1     -22.785  -4.426  -9.858  1.00  0.00     0.000 C 
BRANCH  22  23
HETATM   23  C   UNL     1     -22.834  -4.293  -8.342  1.00  0.00     0.000 C 
BRANCH  23  24
HETATM   24  C   UNL     1     -21.537  -3.676  -7.840  1.00  0.00     0.000 C 
BRANCH  24  25
HETATM   25  C   UNL     1     -21.237  -4.106  -6.407  1.00  0.00     0.004 C 
BRANCH  25  26
HETATM   26  C   UNL     1     -19.983  -4.989  -6.305  1.00  0.00    -0.023 C 
HETATM   27  C   UNL     1     -20.318  -6.482  -6.327  1.00  0.00     0.009 C 
HETATM   28  C   UNL     1     -19.027  -4.654  -7.450  1.00  0.00     0.009 C 
ENDBRANCH  25  26
ENDBRANCH  24  25
ENDBRANCH  23  24
ENDBRANCH  22  23
ENDBRANCH  21  22
ENDBRANCH  20  21
ENDBRANCH  19  20
ENDBRANCH  18  19
ENDBRANCH  17  18
ENDBRANCH  16  17
ENDBRANCH  15  16
ENDBRANCH   1  15
TORSDOF 22
BEGIN_RES ARG D 557
REMARK  4 active torsions:
REMARK  status: ('A' for Active; 'I' for Inactive)
REMARK    1  A    between atoms: CA   and  CB  
REMARK    2  A    between atoms: CB   and  CG  
REMARK    3  A    between atoms: CG   and  CD  
REMARK    4  A    between atoms: CD   and  NE  
REMARK       I    between atoms: NE   and  CZ  
REMARK       I    between atoms: CZ   and  NH1 
REMARK       I    between atoms: CZ   and  NH2 
ROOT
ATOM      1  CA  ARG D 557     -26.217   2.705 -17.014  1.00 35.49     0.159 C 
ENDROOT
BRANCH   1   2
ATOM      2  CB  ARG D 557     -26.789   1.319 -17.183  1.00 35.49     0.034 C 
BRANCH   2   3
ATOM      3  CG  ARG D 557     -28.237   1.224 -17.406  1.00 35.49     0.027 C 
BRANCH   3   4
ATOM      4  CD  ARG D 557     -28.895   0.301 -16.454  1.00 35.49     0.116 C 
BRANCH   4   5
ATOM      5  NE  ARG D 557     -29.321  -0.919 -17.088  1.00 35.49    -0.212 N 
ATOM      6  CZ  ARG D 557     -28.702  -2.076 -17.020  1.00 35.49     0.666 C 
ATOM      7  NH1 ARG D 557     -27.576  -2.240 -16.350  1.00 35.49    -0.235 N 
ATOM      8  NH2 ARG D 557     -29.244  -3.084 -17.641  1.00 35.49    -0.235 N 
ATOM      9  HH  ARG D 557     -27.203  -1.592 -15.933  1.00 35.49     0.174 HD
ATOM     10  HH  ARG D 557     -27.219  -3.019 -16.339  1.00 35.49     0.174 HD
ATOM     11  HH  ARG D 557     -29.975  -2.950 -18.059  1.00 35.49     0.174 HD
ATOM     12  HH  ARG D 557     -28.876  -3.847 -17.617  1.00 35.49     0.174 HD
ATOM     13  HE  ARG D 557     -29.999  -0.887 -17.600  1.00 35.49     0.178 HD
ENDBRANCH   4   5
ENDBRANCH   3   4
ENDBRANCH   2   3
ENDBRANCH   1   2
END_RES ARG D 557
BEGIN_RES GLU D 570
REMARK  3 active torsions:
REMARK  status: ('A' for Active; 'I' for Inactive)
REMARK    5  A    between atoms: CA   and  CB  
REMARK    6  A    between atoms: CB   and  CG  
REMARK    7  A    between atoms: CG   and  CD  
ROOT
ATOM     14  CA  GLU D 570     -18.033  -6.348 -13.375  1.00 32.92     0.160 C 
ENDROOT
BRANCH  14  15
ATOM     15  CB  GLU D 570     -19.500  -6.345 -13.794  1.00 32.92     0.043 C 
BRANCH  15  16
ATOM     16  CG  GLU D 570     -19.799  -6.179 -15.240  1.00 32.92     0.100 C 
BRANCH  16  17
ATOM     17  CD  GLU D 570     -20.605  -7.323 -15.810  1.00 32.92     0.185 C 
ATOM     18  OE1 GLU D 570     -21.273  -7.136 -16.845  1.00 32.92    -0.647 OA
ATOM     19  OE2 GLU D 570     -20.581  -8.413 -15.206  1.00 32.92    -0.647 OA
ENDBRANCH  16  17
ENDBRANCH  15  16
ENDBRANCH  14  15
END_RES GLU D 570
ENDMDL
MODEL 7
REMARK VINA RESULT:      -7.1      3.156      7.633
REMARK  22 active torsions:
REMARK  status: ('A' for Active; 'I' for Inactive)
REMARK    1  A    between atoms: C_2  and  C_3 
REMARK    2  A    between atoms: C_3  and  C_4 
REMARK    3  A    between atoms: C_4  and  C_5 
REMARK    4  A    between atoms: C_5  and  C_6 
REMARK    5  A    between atoms: C_6  and  C_7 
REMARK    6  A    between atoms: C_7  and  O_9 
REMARK    7  A    between atoms: O_9  and  C_10 
REMARK    8  A    between atoms: C_10  and  C_12 
REMARK    9  A    between atoms: C_12  and  C_13 
REMARK   10  A    between atoms: C_13  and  C_14 
REMARK   11  A    between atoms: C_14  and  C_15 
REMARK   12  A    between atoms: C_15  and  C_16 
REMARK   13  A    between atoms: C_16  and  C_17 
REMARK   14  A    between atoms: C_17  and  C_18 
REMARK   15  A    between atoms: C_18  and  C_19 
REMARK   16  A    between atoms: C_19  and  C_20 
REMARK   17  A    between atoms: C_20  and  C_21 
REMARK   18  A    between atoms: C_21  and  C_22 
REMARK   19  A    between atoms: C_22  and  C_23 
REMARK   20  A    between atoms: C_23  and  C_24 
REMARK   21  A    between atoms: C_24  and  C_25 
REMARK   22  A    between atoms: C_25  and  C_26 
ROOT
HETATM    1  C   UNL     1     -21.993  -6.038  -1.938  1.00  0.00     0.000 C 
ENDROOT
BRANCH   1   2
HETATM    2  C   UNL     1     -21.347  -6.762  -3.109  1.00  0.00     0.010 C 
BRANCH   2   3
HETATM    3  C   UNL     1     -22.275  -6.867  -4.317  1.00  0.00     0.111 C 
BRANCH   3   4
HETATM    4  C   UNL     1     -21.484  -6.644  -5.578  1.00  0.00     0.259 C 
HETATM    5  O   UNL     1     -21.112  -7.540  -6.334  1.00  0.00    -0.265 OA
BRANCH   4   6
HETATM    6  O   UNL     1     -21.241  -5.316  -5.773  1.00  0.00    -0.316 OA
BRANCH   6   7
HETATM    7  C   UNL     1     -20.716  -4.989  -7.076  1.00  0.00     0.127 C 
HETATM    8  C   UNL     1     -19.231  -4.651  -6.928  1.00  0.00     0.040 C 
BRANCH   7   9
HETATM    9  C   UNL     1     -21.521  -3.811  -7.651  1.00  0.00     0.032 C 
BRANCH   9  10
HETATM   10  C   UNL     1     -22.828  -4.264  -8.298  1.00  0.00     0.002 C 
BRANCH  10  11
HETATM   11  C   UNL     1     -22.819  -4.123  -9.817  1.00  0.00     0.000 C 
BRANCH  11  12
HETATM   12  C   UNL     1     -21.381  -4.194 -10.335  1.00  0.00    -0.000 C 
BRANCH  12  13
HETATM   13  C   UNL     1     -21.137  -3.210 -11.475  1.00  0.00    -0.005 C 
HETATM   14  C   UNL     1     -22.434  -2.867 -12.192  1.00  0.00     0.005 C 
ENDBRANCH  12  13
ENDBRANCH  11  12
ENDBRANCH  10  11
ENDBRANCH   9  10
ENDBRANCH   7   9
ENDBRANCH   6   7
ENDBRANCH   4   6
ENDBRANCH   3   4
ENDBRANCH   2   3
ENDBRANCH   1   2
BRANCH   1  15
HETATM   15  C   UNL     1     -22.456  -7.054  -0.897  1.00  0.00     0.000 C 
BRANCH  15  16
HETATM   16  C   UNL     1     -21.279  -7.838  -0.341  1.00  0.00     0.000 C 
BRANCH  16  17
HETATM   17  C   UNL     1     -21.689  -8.598   0.912  1.00  0.00     0.000 C 
BRANCH  17  18
HETATM   18  C   UNL     1     -20.544  -9.476   1.394  1.00  0.00     0.000 C 
BRANCH  18  19
HETATM   19  C   UNL     1     -20.730 -10.904   0.905  1.00  0.00     0.000 C 
BRANCH  19  20
HETATM   20  C   UNL     1     -19.458 -11.403   0.239  1.00  0.00     0.000 C 
BRANCH  20  21
HETATM   21  C   UNL     1     -19.734 -11.782  -1.208  1.00  0.00     0.000 C 
BRANCH  21  22
HETATM   22  C   UNL     1     -19.794 -10.534  -2.074  1.00  0.00     0.000 C 
BRANCH  22  23
HETATM   23  C   UNL     1     -20.865 -10.676  -3.146  1.00  0.00     0.000 C 
BRANCH  23  24
HETATM   24  C   UNL     1     -22.233 -10.380  -2.547  1.00  0.00     0.000 C 
BRANCH  24  25
HETATM   25  C   UNL     1     -23.099 -11.635  -2.497  1.00  0.00     0.004 C 
BRANCH  25  26
HETATM   26  C   UNL     1     -23.396 -12.090  -1.059  1.00  0.00    -0.023 C 
HETATM   27  C   UNL     1     -24.193 -11.048  -0.271  1.00  0.00     0.009 C 
HETATM   28  C   UNL     1     -24.160 -13.414  -1.089  1.00  0.00     0.009 C 
ENDBRANCH  25  26
ENDBRANCH  24  25
ENDBRANCH  23  24
ENDBRANCH  22  23
ENDBRANCH  21  22
ENDBRANCH  20  21
ENDBRANCH  19  20
ENDBRANCH  18  19
ENDBRANCH  17  18
ENDBRANCH  16  17
ENDBRANCH  15  16
ENDBRANCH   1  15
TORSDOF 22
BEGIN_RES ARG D 557
REMARK  4 active torsions:
REMARK  status: ('A' for Active; 'I' for Inactive)
REMARK    1  A    between atoms: CA   and  CB  
REMARK    2  A    between atoms: CB   and  CG  
REMARK    3  A    between atoms: CG   and  CD  
REMARK    4  A    between atoms: CD   and  NE  
REMARK       I    between atoms: NE   and  CZ  
REMARK       I    between atoms: CZ   and  NH1 
REMARK       I    between atoms: CZ   and  NH2 
ROOT
ATOM      1  CA  ARG D 557     -26.217   2.705 -17.014  1.00 35.49     0.159 C 
ENDROOT
BRANCH   1   2
ATOM      2  CB  ARG D 557     -26.789   1.319 -17.183  1.00 35.49     0.034 C 
BRANCH   2   3
ATOM      3  CG  ARG D 557     -28.232   1.226 -17.437  1.00 35.49     0.027 C 
BRANCH   3   4
ATOM      4  CD  ARG D 557     -28.912   0.304 -16.499  1.00 35.49     0.116 C 
BRANCH   4   5
ATOM      5  NE  ARG D 557     -29.306  -0.924 -17.136  1.00 35.49    -0.212 N 
ATOM      6  CZ  ARG D 557     -28.679  -2.076 -17.038  1.00 35.49     0.666 C 
ATOM      7  NH1 ARG D 557     -27.575  -2.224 -16.331  1.00 35.49    -0.235 N 
ATOM      8  NH2 ARG D 557     -29.192  -3.093 -17.668  1.00 35.49    -0.235 N 
ATOM      9  HH  ARG D 557     -27.221  -1.568 -15.907  1.00 35.49     0.174 HD
ATOM     10  HH  ARG D 557     -27.211  -2.999 -16.302  1.00 35.49     0.174 HD
ATOM     11  HH  ARG D 557     -29.910  -2.969 -18.111  1.00 35.49     0.174 HD
ATOM     12  HH  ARG D 557     -28.818  -3.853 -17.625  1.00 35.49     0.174 HD
ATOM     13  HE  ARG D 557     -29.967  -0.903 -17.670  1.00 35.49     0.178 HD
ENDBRANCH   4   5
ENDBRANCH   3   4
ENDBRANCH   2   3
ENDBRANCH   1   2
END_RES ARG D 557
BEGIN_RES GLU D 570
REMARK  3 active torsions:
REMARK  status: ('A' for Active; 'I' for Inactive)
REMARK    5  A    between atoms: CA   and  CB  
REMARK    6  A    between atoms: CB   and  CG  
REMARK    7  A    between atoms: CG   and  CD  
ROOT
ATOM     14  CA  GLU D 570     -18.033  -6.348 -13.375  1.00 32.92     0.160 C 
ENDROOT
BRANCH  14  15
ATOM     15  CB  GLU D 570     -19.500  -6.345 -13.794  1.00 32.92     0.043 C 
BRANCH  15  16
ATOM     16  CG  GLU D 570     -19.930  -5.315 -14.775  1.00 32.92     0.100 C 
BRANCH  16  17
ATOM     17  CD  GLU D 570     -21.326  -5.550 -15.303  1.00 32.92     0.185 C 
ATOM     18  OE1 GLU D 570     -21.917  -4.621 -15.886  1.00 32.92    -0.647 OA
ATOM     19  OE2 GLU D 570     -21.841  -6.670 -15.116  1.00 32.92    -0.647 OA
ENDBRANCH  16  17
ENDBRANCH  15  16
ENDBRANCH  14  15
END_RES GLU D 570
ENDMDL
MODEL 8
REMARK VINA RESULT:      -7.1      1.707      3.107
REMARK  22 active torsions:
REMARK  status: ('A' for Active; 'I' for Inactive)
REMARK    1  A    between atoms: C_2  and  C_3 
REMARK    2  A    between atoms: C_3  and  C_4 
REMARK    3  A    between atoms: C_4  and  C_5 
REMARK    4  A    between atoms: C_5  and  C_6 
REMARK    5  A    between atoms: C_6  and  C_7 
REMARK    6  A    between atoms: C_7  and  O_9 
REMARK    7  A    between atoms: O_9  and  C_10 
REMARK    8  A    between atoms: C_10  and  C_12 
REMARK    9  A    between atoms: C_12  and  C_13 
REMARK   10  A    between atoms: C_13  and  C_14 
REMARK   11  A    between atoms: C_14  and  C_15 
REMARK   12  A    between atoms: C_15  and  C_16 
REMARK   13  A    between atoms: C_16  and  C_17 
REMARK   14  A    between atoms: C_17  and  C_18 
REMARK   15  A    between atoms: C_18  and  C_19 
REMARK   16  A    between atoms: C_19  and  C_20 
REMARK   17  A    between atoms: C_20  and  C_21 
REMARK   18  A    between atoms: C_21  and  C_22 
REMARK   19  A    between atoms: C_22  and  C_23 
REMARK   20  A    between atoms: C_23  and  C_24 
REMARK   21  A    between atoms: C_24  and  C_25 
REMARK   22  A    between atoms: C_25  and  C_26 
ROOT
HETATM    1  C   UNL     1     -23.407  -5.704 -13.232  1.00  0.00     0.000 C 
ENDROOT
BRANCH   1   2
HETATM    2  C   UNL     1     -23.704  -5.931 -14.706  1.00  0.00     0.010 C 
BRANCH   2   3
HETATM    3  C   UNL     1     -24.994  -5.250 -15.157  1.00  0.00     0.111 C 
BRANCH   3   4
HETATM    4  C   UNL     1     -25.894  -6.262 -15.812  1.00  0.00     0.259 C 
HETATM    5  O   UNL     1     -25.943  -7.452 -15.505  1.00  0.00    -0.265 OA
BRANCH   4   6
HETATM    6  O   UNL     1     -26.653  -5.682 -16.785  1.00  0.00    -0.316 OA
BRANCH   6   7
HETATM    7  C   UNL     1     -27.570  -6.581 -17.444  1.00  0.00     0.127 C 
HETATM    8  C   UNL     1     -27.822  -6.058 -18.861  1.00  0.00     0.040 C 
BRANCH   7   9
HETATM    9  C   UNL     1     -28.865  -6.659 -16.619  1.00  0.00     0.032 C 
BRANCH   9  10
HETATM   10  C   UNL     1     -30.032  -7.224 -17.426  1.00  0.00     0.002 C 
BRANCH  10  11
HETATM   11  C   UNL     1     -31.246  -6.300 -17.441  1.00  0.00     0.000 C 
BRANCH  11  12
HETATM   12  C   UNL     1     -30.919  -5.003 -16.699  1.00  0.00    -0.000 C 
BRANCH  12  13
HETATM   13  C   UNL     1     -31.341  -3.771 -17.493  1.00  0.00    -0.005 C 
HETATM   14  C   UNL     1     -32.841  -3.538 -17.389  1.00  0.00     0.005 C 
ENDBRANCH  12  13
ENDBRANCH  11  12
ENDBRANCH  10  11
ENDBRANCH   9  10
ENDBRANCH   7   9
ENDBRANCH   6   7
ENDBRANCH   4   6
ENDBRANCH   3   4
ENDBRANCH   2   3
ENDBRANCH   1   2
BRANCH   1  15
HETATM   15  C   UNL     1     -23.313  -4.207 -12.951  1.00  0.00     0.000 C 
BRANCH  15  16
HETATM   16  C   UNL     1     -21.897  -3.815 -12.560  1.00  0.00     0.000 C 
BRANCH  16  17
HETATM   17  C   UNL     1     -21.883  -3.181 -11.177  1.00  0.00     0.000 C 
BRANCH  17  18
HETATM   18  C   UNL     1     -21.664  -4.245 -10.112  1.00  0.00     0.000 C 
BRANCH  18  19
HETATM   19  C   UNL     1     -22.901  -4.380  -9.237  1.00  0.00     0.000 C 
BRANCH  19  20
HETATM   20  C   UNL     1     -22.536  -4.191  -7.774  1.00  0.00     0.000 C 
BRANCH  20  21
HETATM   21  C   UNL     1     -21.025  -4.222  -7.600  1.00  0.00     0.000 C 
BRANCH  21  22
HETATM   22  C   UNL     1     -20.668  -4.646  -6.185  1.00  0.00     0.000 C 
BRANCH  22  23
HETATM   23  C   UNL     1     -20.770  -6.158  -6.035  1.00  0.00     0.000 C 
BRANCH  23  24
HETATM   24  C   UNL     1     -21.738  -6.499  -4.912  1.00  0.00     0.000 C 
BRANCH  24  25
HETATM   25  C   UNL     1     -21.118  -6.226  -3.545  1.00  0.00     0.004 C 
BRANCH  25  26
HETATM   26  C   UNL     1     -21.558  -7.247  -2.483  1.00  0.00    -0.023 C 
HETATM   27  C   UNL     1     -20.377  -8.028  -1.902  1.00  0.00     0.009 C 
HETATM   28  C   UNL     1     -22.307  -6.528  -1.361  1.00  0.00     0.009 C 
ENDBRANCH  25  26
ENDBRANCH  24  25
ENDBRANCH  23  24
ENDBRANCH  22  23
ENDBRANCH  21  22
ENDBRANCH  20  21
ENDBRANCH  19  20
ENDBRANCH  18  19
ENDBRANCH  17  18
ENDBRANCH  16  17
ENDBRANCH  15  16
ENDBRANCH   1  15
TORSDOF 22
BEGIN_RES ARG D 557
REMARK  4 active torsions:
REMARK  status: ('A' for Active; 'I' for Inactive)
REMARK    1  A    between atoms: CA   and  CB  
REMARK    2  A    between atoms: CB   and  CG  
REMARK    3  A    between atoms: CG   and  CD  
REMARK    4  A    between atoms: CD   and  NE  
REMARK       I    between atoms: NE   and  CZ  
REMARK       I    between atoms: CZ   and  NH1 
REMARK       I    between atoms: CZ   and  NH2 
ROOT
ATOM      1  CA  ARG D 557     -26.217   2.705 -17.014  1.00 35.49     0.159 C 
ENDROOT
BRANCH   1   2
ATOM      2  CB  ARG D 557     -26.789   1.319 -17.183  1.00 35.49     0.034 C 
BRANCH   2   3
ATOM      3  CG  ARG D 557     -28.228   1.227 -17.460  1.00 35.49     0.027 C 
BRANCH   3   4
ATOM      4  CD  ARG D 557     -28.931   0.342 -16.504  1.00 35.49     0.116 C 
BRANCH   4   5
ATOM      5  NE  ARG D 557     -28.774  -1.050 -16.837  1.00 35.49    -0.212 N 
ATOM      6  CZ  ARG D 557     -27.850  -1.854 -16.362  1.00 35.49     0.666 C 
ATOM      7  NH1 ARG D 557     -26.928  -1.449 -15.509  1.00 35.49    -0.235 N 
ATOM      8  NH2 ARG D 557     -27.871  -3.093 -16.759  1.00 35.49    -0.235 N 
ATOM      9  HH  ARG D 557     -26.896  -0.638 -15.232  1.00 35.49     0.174 HD
ATOM     10  HH  ARG D 557     -26.352  -2.019 -15.231  1.00 35.49     0.174 HD
ATOM     11  HH  ARG D 557     -28.483  -3.329 -17.304  1.00 35.49     0.174 HD
ATOM     12  HH  ARG D 557     -27.294  -3.643 -16.471  1.00 35.49     0.174 HD
ATOM     13  HE  ARG D 557     -29.282  -1.376 -17.436  1.00 35.49     0.178 HD
ENDBRANCH   4   5
ENDBRANCH   3   4
ENDBRANCH   2   3
ENDBRANCH   1   2
END_RES ARG D 557
BEGIN_RES GLU D 570
REMARK  3 active torsions:
REMARK  status: ('A' for Active; 'I' for Inactive)
REMARK    5  A    between atoms: CA   and  CB  
REMARK    6  A    between atoms: CB   and  CG  
REMARK    7  A    between atoms: CG   and  CD  
ROOT
ATOM     14  CA  GLU D 570     -18.033  -6.348 -13.375  1.00 32.92     0.160 C 
ENDROOT
BRANCH  14  15
ATOM     15  CB  GLU D 570     -19.500  -6.345 -13.794  1.00 32.92     0.043 C 
BRANCH  15  16
ATOM     16  CG  GLU D 570     -20.085  -7.633 -14.249  1.00 32.92     0.100 C 
BRANCH  16  17
ATOM     17  CD  GLU D 570     -20.650  -7.562 -15.648  1.00 32.92     0.185 C 
ATOM     18  OE1 GLU D 570     -21.198  -8.572 -16.131  1.00 32.92    -0.647 OA
ATOM     19  OE2 GLU D 570     -20.527  -6.491 -16.275  1.00 32.92    -0.647 OA
ENDBRANCH  16  17
ENDBRANCH  15  16
ENDBRANCH  14  15
END_RES GLU D 570
ENDMDL
MODEL 9
REMARK VINA RESULT:      -7.1      3.540      7.750
REMARK  22 active torsions:
REMARK  status: ('A' for Active; 'I' for Inactive)
REMARK    1  A    between atoms: C_2  and  C_3 
REMARK    2  A    between atoms: C_3  and  C_4 
REMARK    3  A    between atoms: C_4  and  C_5 
REMARK    4  A    between atoms: C_5  and  C_6 
REMARK    5  A    between atoms: C_6  and  C_7 
REMARK    6  A    between atoms: C_7  and  O_9 
REMARK    7  A    between atoms: O_9  and  C_10 
REMARK    8  A    between atoms: C_10  and  C_12 
REMARK    9  A    between atoms: C_12  and  C_13 
REMARK   10  A    between atoms: C_13  and  C_14 
REMARK   11  A    between atoms: C_14  and  C_15 
REMARK   12  A    between atoms: C_15  and  C_16 
REMARK   13  A    between atoms: C_16  and  C_17 
REMARK   14  A    between atoms: C_17  and  C_18 
REMARK   15  A    between atoms: C_18  and  C_19 
REMARK   16  A    between atoms: C_19  and  C_20 
REMARK   17  A    between atoms: C_20  and  C_21 
REMARK   18  A    between atoms: C_21  and  C_22 
REMARK   19  A    between atoms: C_22  and  C_23 
REMARK   20  A    between atoms: C_23  and  C_24 
REMARK   21  A    between atoms: C_24  and  C_25 
REMARK   22  A    between atoms: C_25  and  C_26 
ROOT
HETATM    1  C   UNL     1     -21.535  -6.226  -2.625  1.00  0.00     0.000 C 
ENDROOT
BRANCH   1   2
HETATM    2  C   UNL     1     -20.920  -7.526  -3.121  1.00  0.00     0.010 C 
BRANCH   2   3
HETATM    3  C   UNL     1     -21.566  -8.027  -4.410  1.00  0.00     0.111 C 
BRANCH   3   4
HETATM    4  C   UNL     1     -20.654  -7.741  -5.572  1.00  0.00     0.259 C 
HETATM    5  O   UNL     1     -19.541  -8.241  -5.723  1.00  0.00    -0.265 OA
BRANCH   4   6
HETATM    6  O   UNL     1     -21.231  -6.860  -6.439  1.00  0.00    -0.316 OA
BRANCH   6   7
HETATM    7  C   UNL     1     -20.345  -5.828  -6.921  1.00  0.00     0.127 C 
HETATM    8  C   UNL     1     -20.136  -4.808  -5.799  1.00  0.00     0.040 C 
BRANCH   7   9
HETATM    9  C   UNL     1     -20.967  -5.188  -8.173  1.00  0.00     0.032 C 
BRANCH   9  10
HETATM   10  C   UNL     1     -19.921  -4.512  -9.057  1.00  0.00     0.002 C 
BRANCH  10  11
HETATM   11  C   UNL     1     -20.241  -4.620 -10.545  1.00  0.00     0.000 C 
BRANCH  11  12
HETATM   12  C   UNL     1     -20.724  -3.267 -11.072  1.00  0.00    -0.000 C 
BRANCH  12  13
HETATM   13  C   UNL     1     -22.086  -3.373 -11.750  1.00  0.00    -0.005 C 
HETATM   14  C   UNL     1     -23.201  -3.510 -10.724  1.00  0.00     0.005 C 
ENDBRANCH  12  13
ENDBRANCH  11  12
ENDBRANCH  10  11
ENDBRANCH   9  10
ENDBRANCH   7   9
ENDBRANCH   6   7
ENDBRANCH   4   6
ENDBRANCH   3   4
ENDBRANCH   2   3
ENDBRANCH   1   2
BRANCH   1  15
HETATM   15  C   UNL     1     -22.373  -6.496  -1.378  1.00  0.00     0.000 C 
BRANCH  15  16
HETATM   16  C   UNL     1     -21.756  -7.603  -0.538  1.00  0.00     0.000 C 
BRANCH  16  17
HETATM   17  C   UNL     1     -22.841  -8.496   0.045  1.00  0.00     0.000 C 
BRANCH  17  18
HETATM   18  C   UNL     1     -22.401  -9.951   0.012  1.00  0.00     0.000 C 
BRANCH  18  19
HETATM   19  C   UNL     1     -20.916 -10.062   0.320  1.00  0.00     0.000 C 
BRANCH  19  20
HETATM   20  C   UNL     1     -20.299 -11.210  -0.462  1.00  0.00     0.000 C 
BRANCH  20  21
HETATM   21  C   UNL     1     -19.927 -10.752  -1.864  1.00  0.00     0.000 C 
BRANCH  21  22
HETATM   22  C   UNL     1     -18.423 -10.841  -2.063  1.00  0.00     0.000 C 
BRANCH  22  23
HETATM   23  C   UNL     1     -17.900  -9.601  -2.774  1.00  0.00     0.000 C 
BRANCH  23  24
HETATM   24  C   UNL     1     -16.383  -9.669  -2.878  1.00  0.00     0.000 C 
BRANCH  24  25
HETATM   25  C   UNL     1     -15.928  -9.695  -4.334  1.00  0.00     0.004 C 
BRANCH  25  26
HETATM   26  C   UNL     1     -15.333 -11.052  -4.743  1.00  0.00    -0.023 C 
HETATM   27  C   UNL     1     -14.953 -11.909  -3.533  1.00  0.00     0.009 C 
HETATM   28  C   UNL     1     -16.331 -11.806  -5.621  1.00  0.00     0.009 C 
ENDBRANCH  25  26
ENDBRANCH  24  25
ENDBRANCH  23  24
ENDBRANCH  22  23
ENDBRANCH  21  22
ENDBRANCH  20  21
ENDBRANCH  19  20
ENDBRANCH  18  19
ENDBRANCH  17  18
ENDBRANCH  16  17
ENDBRANCH  15  16
ENDBRANCH   1  15
TORSDOF 22
BEGIN_RES ARG D 557
REMARK  4 active torsions:
REMARK  status: ('A' for Active; 'I' for Inactive)
REMARK    1  A    between atoms: CA   and  CB  
REMARK    2  A    between atoms: CB   and  CG  
REMARK    3  A    between atoms: CG   and  CD  
REMARK    4  A    between atoms: CD   and  NE  
REMARK       I    between atoms: NE   and  CZ  
REMARK       I    between atoms: CZ   and  NH1 
REMARK       I    between atoms: CZ   and  NH2 
ROOT
ATOM      1  CA  ARG D 557     -26.217   2.705 -17.014  1.00 35.49     0.159 C 
ENDROOT
BRANCH   1   2
ATOM      2  CB  ARG D 557     -26.789   1.319 -17.183  1.00 35.49     0.034 C 
BRANCH   2   3
ATOM      3  CG  ARG D 557     -25.937   0.198 -16.769  1.00 35.49     0.027 C 
BRANCH   3   4
ATOM      4  CD  ARG D 557     -26.706  -0.883 -16.111  1.00 35.49     0.116 C 
BRANCH   4   5
ATOM      5  NE  ARG D 557     -25.990  -1.462 -15.004  1.00 35.49    -0.212 N 
ATOM      6  CZ  ARG D 557     -25.993  -2.732 -14.668  1.00 35.49     0.666 C 
ATOM      7  NH1 ARG D 557     -26.690  -3.639 -15.328  1.00 35.49    -0.235 N 
ATOM      8  NH2 ARG D 557     -25.267  -3.084 -13.647  1.00 35.49    -0.235 N 
ATOM      9  HH  ARG D 557     -27.172  -3.430 -16.005  1.00 35.49     0.174 HD
ATOM     10  HH  ARG D 557     -26.650  -4.453 -15.065  1.00 35.49     0.174 HD
ATOM     11  HH  ARG D 557     -24.822  -2.478 -13.245  1.00 35.49     0.174 HD
ATOM     12  HH  ARG D 557     -25.240  -3.896 -13.403  1.00 35.49     0.174 HD
ATOM     13  HE  ARG D 557     -25.572  -0.937 -14.481  1.00 35.49     0.178 HD
ENDBRANCH   4   5
ENDBRANCH   3   4
ENDBRANCH   2   3
ENDBRANCH   1   2
END_RES ARG D 557
BEGIN_RES GLU D 570
REMARK  3 active torsions:
REMARK  status: ('A' for Active; 'I' for Inactive)
REMARK    5  A    between atoms: CA   and  CB  
REMARK    6  A    between atoms: CB   and  CG  
REMARK    7  A    between atoms: CG   and  CD  
ROOT
ATOM     14  CA  GLU D 570     -18.033  -6.348 -13.375  1.00 32.92     0.160 C 
ENDROOT
BRANCH  14  15
ATOM     15  CB  GLU D 570     -19.500  -6.345 -13.794  1.00 32.92     0.043 C 
BRANCH  15  16
ATOM     16  CG  GLU D 570     -20.050  -7.599 -14.371  1.00 32.92     0.100 C 
BRANCH  16  17
ATOM     17  CD  GLU D 570     -20.779  -7.377 -15.676  1.00 32.92     0.185 C 
ATOM     18  OE1 GLU D 570     -21.610  -8.223 -16.056  1.00 32.92    -0.647 OA
ATOM     19  OE2 GLU D 570     -20.503  -6.354 -16.333  1.00 32.92    -0.647 OA
ENDBRANCH  16  17
ENDBRANCH  15  16
ENDBRANCH  14  15
END_RES GLU D 570
ENDMDL
