MODEL 1
REMARK VINA RESULT:      -8.5      0.000      0.000
REMARK  2 active torsions:
REMARK  status: ('A' for Active; 'I' for Inactive)
REMARK    1  A    between atoms: C_14  and  O_17 
REMARK    2  A    between atoms: C_24  and  O_27 
ROOT
HETATM    1  C   UNL     1     -15.610  -9.733  -4.393  1.00  0.00     0.001 A 
HETATM    2  C   UNL     1     -15.961  -9.569  -3.043  1.00  0.00     0.001 A 
HETATM    3  C   UNL     1     -17.277  -9.772  -2.618  1.00  0.00     0.012 A 
HETATM    4  C   UNL     1     -18.221 -10.135  -3.568  1.00  0.00     0.003 A 
HETATM    5  C   UNL     1     -17.866 -10.286  -4.894  1.00  0.00     0.049 A 
HETATM    6  C   UNL     1     -16.572 -10.092  -5.337  1.00  0.00     0.018 A 
HETATM    7  C   UNL     1     -19.042 -10.672  -5.660  1.00  0.00     0.295 A 
HETATM    8  O   UNL     1     -19.087 -10.873  -6.854  1.00  0.00    -0.259 OA
HETATM    9  O   UNL     1     -20.075 -10.768  -4.777  1.00  0.00    -0.291 OA
HETATM   10  C   UNL     1     -19.678 -10.443  -3.420  1.00  0.00     0.159 A 
HETATM   11  C   UNL     1     -20.473  -9.235  -2.979  1.00  0.00     0.022 A 
HETATM   12  C   UNL     1     -21.210  -9.279  -1.789  1.00  0.00     0.106 A 
HETATM   13  C   UNL     1     -21.916  -8.140  -1.363  1.00  0.00     0.078 A 
HETATM   14  C   UNL     1     -21.874  -6.964  -2.119  1.00  0.00     0.085 A 
HETATM   15  C   UNL     1     -21.145  -6.910  -3.299  1.00  0.00     0.039 A 
HETATM   16  C   UNL     1     -20.456  -8.040  -3.730  1.00  0.00     0.017 A 
HETATM   17 BR   UNL     1     -22.931  -8.162   0.247  1.00  0.00    -0.045 Br
HETATM   18  O   UNL     1     -21.265 -10.396  -0.990  1.00  0.00    -0.306 OA
HETATM   19  C   UNL     1     -20.655 -11.565  -1.381  1.00  0.00     0.106 A 
HETATM   20  C   UNL     1     -19.905 -11.666  -2.557  1.00  0.00     0.022 A 
HETATM   21  C   UNL     1     -19.317 -12.907  -2.889  1.00  0.00     0.017 A 
HETATM   22  C   UNL     1     -19.451 -14.015  -2.054  1.00  0.00     0.039 A 
HETATM   23  C   UNL     1     -20.183 -13.900  -0.879  1.00  0.00     0.085 A 
HETATM   24  C   UNL     1     -20.792 -12.684  -0.539  1.00  0.00     0.078 A 
HETATM   25 BR   UNL     1     -21.789 -12.552   1.081  1.00  0.00    -0.045 Br
ENDROOT
BRANCH  14  26
HETATM   26  O   UNL     1     -22.526  -5.819  -1.753  1.00  0.00    -0.359 OA
HETATM   27  H   UNL     1     -22.895  -5.965  -0.863  1.00  0.00     0.217 HD
ENDBRANCH  14  26
BRANCH  23  28
HETATM   28  O   UNL     1     -20.299 -14.988  -0.057  1.00  0.00    -0.359 OA
HETATM   29  H   UNL     1     -20.858 -14.761   0.705  1.00  0.00     0.217 HD
ENDBRANCH  23  28
TORSDOF 2
BEGIN_RES ARG D 557
REMARK  4 active torsions:
REMARK  status: ('A' for Active; 'I' for Inactive)
REMARK    1  A    between atoms: CA   and  CB  
REMARK    2  A    between atoms: CB   and  CG  
REMARK    3  A    between atoms: CG   and  CD  
REMARK    4  A    between atoms: CD   and  NE  
REMARK       I    between atoms: NE   and  CZ  
REMARK       I    between atoms: CZ   and  NH1 
REMARK       I    between atoms: CZ   and  NH2 
ROOT
ATOM      1  CA  ARG D 557     -26.217   2.705 -17.014  1.00 35.49     0.159 C 
ENDROOT
BRANCH   1   2
ATOM      2  CB  ARG D 557     -26.789   1.319 -17.183  1.00 35.49     0.034 C 
BRANCH   2   3
ATOM      3  CG  ARG D 557     -25.837   0.202 -17.145  1.00 35.49     0.027 C 
BRANCH   3   4
ATOM      4  CD  ARG D 557     -24.753   0.418 -16.159  1.00 35.49     0.116 C 
BRANCH   4   5
ATOM      5  NE  ARG D 557     -24.889  -0.434 -15.008  1.00 35.49    -0.212 N 
ATOM      6  CZ  ARG D 557     -24.069  -1.403 -14.668  1.00 35.49     0.666 C 
ATOM      7  NH1 ARG D 557     -23.004  -1.714 -15.383  1.00 35.49    -0.235 N 
ATOM      8  NH2 ARG D 557     -24.336  -2.061 -13.577  1.00 35.49    -0.235 N 
ATOM      9  HH  ARG D 557     -22.807  -1.292 -16.103  1.00 35.49     0.174 HD
ATOM     10  HH  ARG D 557     -22.503  -2.353 -15.110  1.00 35.49     0.174 HD
ATOM     11  HH  ARG D 557     -25.027  -1.833 -13.131  1.00 35.49     0.174 HD
ATOM     12  HH  ARG D 557     -23.828  -2.690 -13.323  1.00 35.49     0.174 HD
ATOM     13  HE  ARG D 557     -25.588  -0.351 -14.530  1.00 35.49     0.178 HD
ENDBRANCH   4   5
ENDBRANCH   3   4
ENDBRANCH   2   3
ENDBRANCH   1   2
END_RES ARG D 557
BEGIN_RES GLU D 570
REMARK  3 active torsions:
REMARK  status: ('A' for Active; 'I' for Inactive)
REMARK    5  A    between atoms: CA   and  CB  
REMARK    6  A    between atoms: CB   and  CG  
REMARK    7  A    between atoms: CG   and  CD  
ROOT
ATOM     14  CA  GLU D 570     -18.033  -6.348 -13.375  1.00 32.92     0.160 C 
ENDROOT
BRANCH  14  15
ATOM     15  CB  GLU D 570     -19.500  -6.345 -13.794  1.00 32.92     0.043 C 
BRANCH  15  16
ATOM     16  CG  GLU D 570     -20.444  -5.542 -12.974  1.00 32.92     0.100 C 
BRANCH  16  17
ATOM     17  CD  GLU D 570     -21.729  -5.220 -13.702  1.00 32.92     0.185 C 
ATOM     18  OE1 GLU D 570     -22.284  -4.124 -13.493  1.00 32.92    -0.647 OA
ATOM     19  OE2 GLU D 570     -22.194  -6.080 -14.476  1.00 32.92    -0.647 OA
ENDBRANCH  16  17
ENDBRANCH  15  16
ENDBRANCH  14  15
END_RES GLU D 570
ENDMDL
MODEL 2
REMARK VINA RESULT:      -8.2      2.595      4.532
REMARK  2 active torsions:
REMARK  status: ('A' for Active; 'I' for Inactive)
REMARK    1  A    between atoms: C_14  and  O_17 
REMARK    2  A    between atoms: C_24  and  O_27 
ROOT
HETATM    1  C   UNL     1     -24.393 -11.194  -0.593  1.00  0.00     0.001 A 
HETATM    2  C   UNL     1     -23.740 -11.839  -1.657  1.00  0.00     0.001 A 
HETATM    3  C   UNL     1     -22.436 -11.483  -2.013  1.00  0.00     0.012 A 
HETATM    4  C   UNL     1     -21.812 -10.475  -1.291  1.00  0.00     0.003 A 
HETATM    5  C   UNL     1     -22.468  -9.843  -0.253  1.00  0.00     0.049 A 
HETATM    6  C   UNL     1     -23.755 -10.178   0.119  1.00  0.00     0.018 A 
HETATM    7  C   UNL     1     -21.584  -8.841   0.326  1.00  0.00     0.295 A 
HETATM    8  O   UNL     1     -21.848  -8.097   1.246  1.00  0.00    -0.259 OA
HETATM    9  O   UNL     1     -20.409  -8.906  -0.359  1.00  0.00    -0.291 OA
HETATM   10  C   UNL     1     -20.437  -9.902  -1.415  1.00  0.00     0.159 A 
HETATM   11  C   UNL     1     -20.234  -9.188  -2.733  1.00  0.00     0.022 A 
HETATM   12  C   UNL     1     -19.221  -9.604  -3.606  1.00  0.00     0.106 A 
HETATM   13  C   UNL     1     -19.062  -8.963  -4.847  1.00  0.00     0.078 A 
HETATM   14  C   UNL     1     -19.919  -7.920  -5.213  1.00  0.00     0.085 A 
HETATM   15  C   UNL     1     -20.927  -7.501  -4.356  1.00  0.00     0.039 A 
HETATM   16  C   UNL     1     -21.078  -8.126  -3.121  1.00  0.00     0.017 A 
HETATM   17 BR   UNL     1     -17.695  -9.499  -6.058  1.00  0.00    -0.045 Br
HETATM   18  O   UNL     1     -18.368 -10.641  -3.313  1.00  0.00    -0.306 OA
HETATM   19  C   UNL     1     -18.423 -11.267  -2.088  1.00  0.00     0.106 A 
HETATM   20  C   UNL     1     -19.371 -10.935  -1.116  1.00  0.00     0.022 A 
HETATM   21  C   UNL     1     -19.354 -11.622   0.118  1.00  0.00     0.017 A 
HETATM   22  C   UNL     1     -18.430 -12.635   0.368  1.00  0.00     0.039 A 
HETATM   23  C   UNL     1     -17.503 -12.969  -0.611  1.00  0.00     0.085 A 
HETATM   24  C   UNL     1     -17.488 -12.288  -1.837  1.00  0.00     0.078 A 
HETATM   25 BR   UNL     1     -16.208 -12.768  -3.165  1.00  0.00    -0.045 Br
ENDROOT
BRANCH  14  26
HETATM   26  O   UNL     1     -19.826  -7.266  -6.410  1.00  0.00    -0.359 OA
HETATM   27  H   UNL     1     -20.614  -7.503  -6.934  1.00  0.00     0.217 HD
ENDBRANCH  14  26
BRANCH  23  28
HETATM   28  O   UNL     1     -16.608 -13.974  -0.366  1.00  0.00    -0.359 OA
HETATM   29  H   UNL     1     -16.144 -13.799   0.471  1.00  0.00     0.217 HD
ENDBRANCH  23  28
TORSDOF 2
BEGIN_RES ARG D 557
REMARK  4 active torsions:
REMARK  status: ('A' for Active; 'I' for Inactive)
REMARK    1  A    between atoms: CA   and  CB  
REMARK    2  A    between atoms: CB   and  CG  
REMARK    3  A    between atoms: CG   and  CD  
REMARK    4  A    between atoms: CD   and  NE  
REMARK       I    between atoms: NE   and  CZ  
REMARK       I    between atoms: CZ   and  NH1 
REMARK       I    between atoms: CZ   and  NH2 
ROOT
ATOM      1  CA  ARG D 557     -26.217   2.705 -17.014  1.00 35.49     0.159 C 
ENDROOT
BRANCH   1   2
ATOM      2  CB  ARG D 557     -26.789   1.319 -17.183  1.00 35.49     0.034 C 
BRANCH   2   3
ATOM      3  CG  ARG D 557     -25.837   0.202 -17.145  1.00 35.49     0.027 C 
BRANCH   3   4
ATOM      4  CD  ARG D 557     -24.755   0.416 -16.157  1.00 35.49     0.116 C 
BRANCH   4   5
ATOM      5  NE  ARG D 557     -24.894  -0.439 -15.007  1.00 35.49    -0.212 N 
ATOM      6  CZ  ARG D 557     -24.071  -1.405 -14.664  1.00 35.49     0.666 C 
ATOM      7  NH1 ARG D 557     -23.000  -1.708 -15.374  1.00 35.49    -0.235 N 
ATOM      8  NH2 ARG D 557     -24.342  -2.066 -13.577  1.00 35.49    -0.235 N 
ATOM      9  HH  ARG D 557     -22.801  -1.285 -16.091  1.00 35.49     0.174 HD
ATOM     10  HH  ARG D 557     -22.498  -2.346 -15.099  1.00 35.49     0.174 HD
ATOM     11  HH  ARG D 557     -25.036  -1.843 -13.135  1.00 35.49     0.174 HD
ATOM     12  HH  ARG D 557     -23.831  -2.693 -13.321  1.00 35.49     0.174 HD
ATOM     13  HE  ARG D 557     -25.596  -0.361 -14.534  1.00 35.49     0.178 HD
ENDBRANCH   4   5
ENDBRANCH   3   4
ENDBRANCH   2   3
ENDBRANCH   1   2
END_RES ARG D 557
BEGIN_RES GLU D 570
REMARK  3 active torsions:
REMARK  status: ('A' for Active; 'I' for Inactive)
REMARK    5  A    between atoms: CA   and  CB  
REMARK    6  A    between atoms: CB   and  CG  
REMARK    7  A    between atoms: CG   and  CD  
ROOT
ATOM     14  CA  GLU D 570     -18.033  -6.348 -13.375  1.00 32.92     0.160 C 
ENDROOT
BRANCH  14  15
ATOM     15  CB  GLU D 570     -19.500  -6.345 -13.794  1.00 32.92     0.043 C 
BRANCH  15  16
ATOM     16  CG  GLU D 570     -20.443  -5.535 -12.980  1.00 32.92     0.100 C 
BRANCH  16  17
ATOM     17  CD  GLU D 570     -21.716  -5.194 -13.718  1.00 32.92     0.185 C 
ATOM     18  OE1 GLU D 570     -22.299  -4.124 -13.457  1.00 32.92    -0.647 OA
ATOM     19  OE2 GLU D 570     -22.145  -6.014 -14.554  1.00 32.92    -0.647 OA
ENDBRANCH  16  17
ENDBRANCH  15  16
ENDBRANCH  14  15
END_RES GLU D 570
ENDMDL
MODEL 3
REMARK VINA RESULT:      -8.0      3.091      4.950
REMARK  2 active torsions:
REMARK  status: ('A' for Active; 'I' for Inactive)
REMARK    1  A    between atoms: C_14  and  O_17 
REMARK    2  A    between atoms: C_24  and  O_27 
ROOT
HETATM    1  C   UNL     1     -24.429 -11.206  -0.612  1.00  0.00     0.001 A 
HETATM    2  C   UNL     1     -23.756 -11.832  -1.674  1.00  0.00     0.001 A 
HETATM    3  C   UNL     1     -22.464 -11.435  -2.032  1.00  0.00     0.012 A 
HETATM    4  C   UNL     1     -21.873 -10.406  -1.312  1.00  0.00     0.003 A 
HETATM    5  C   UNL     1     -22.549  -9.793  -0.276  1.00  0.00     0.049 A 
HETATM    6  C   UNL     1     -23.825 -10.168   0.098  1.00  0.00     0.018 A 
HETATM    7  C   UNL     1     -21.698  -8.761   0.300  1.00  0.00     0.295 A 
HETATM    8  O   UNL     1     -21.986  -8.023   1.218  1.00  0.00    -0.259 OA
HETATM    9  O   UNL     1     -20.522  -8.789  -0.385  1.00  0.00    -0.291 OA
HETATM   10  C   UNL     1     -20.517  -9.788  -1.438  1.00  0.00     0.159 A 
HETATM   11  C   UNL     1     -20.338  -9.072  -2.758  1.00  0.00     0.022 A 
HETATM   12  C   UNL     1     -19.312  -9.457  -3.630  1.00  0.00     0.106 A 
HETATM   13  C   UNL     1     -19.175  -8.814  -4.873  1.00  0.00     0.078 A 
HETATM   14  C   UNL     1     -20.065  -7.801  -5.242  1.00  0.00     0.085 A 
HETATM   15  C   UNL     1     -21.086  -7.412  -4.386  1.00  0.00     0.039 A 
HETATM   16  C   UNL     1     -21.217  -8.038  -3.149  1.00  0.00     0.017 A 
HETATM   17 BR   UNL     1     -17.791  -9.308  -6.083  1.00  0.00    -0.045 Br
HETATM   18  O   UNL     1     -18.426 -10.465  -3.335  1.00  0.00    -0.306 OA
HETATM   19  C   UNL     1     -18.460 -11.088  -2.109  1.00  0.00     0.106 A 
HETATM   20  C   UNL     1     -19.418 -10.785  -1.137  1.00  0.00     0.022 A 
HETATM   21  C   UNL     1     -19.379 -11.468   0.099  1.00  0.00     0.017 A 
HETATM   22  C   UNL     1     -18.423 -12.449   0.351  1.00  0.00     0.039 A 
HETATM   23  C   UNL     1     -17.485 -12.756  -0.628  1.00  0.00     0.085 A 
HETATM   24  C   UNL     1     -17.492 -12.078  -1.855  1.00  0.00     0.078 A 
HETATM   25 BR   UNL     1     -16.198 -12.519  -3.182  1.00  0.00    -0.045 Br
ENDROOT
BRANCH  14  26
HETATM   26  O   UNL     1     -19.994  -7.147  -6.441  1.00  0.00    -0.359 OA
HETATM   27  H   UNL     1     -19.990  -6.190  -6.252  1.00  0.00     0.217 HD
ENDBRANCH  14  26
BRANCH  23  28
HETATM   28  O   UNL     1     -16.557 -13.731  -0.380  1.00  0.00    -0.359 OA
HETATM   29  H   UNL     1     -16.621 -14.420  -1.062  1.00  0.00     0.217 HD
ENDBRANCH  23  28
TORSDOF 2
BEGIN_RES ARG D 557
REMARK  4 active torsions:
REMARK  status: ('A' for Active; 'I' for Inactive)
REMARK    1  A    between atoms: CA   and  CB  
REMARK    2  A    between atoms: CB   and  CG  
REMARK    3  A    between atoms: CG   and  CD  
REMARK    4  A    between atoms: CD   and  NE  
REMARK       I    between atoms: NE   and  CZ  
REMARK       I    between atoms: CZ   and  NH1 
REMARK       I    between atoms: CZ   and  NH2 
ROOT
ATOM      1  CA  ARG D 557     -26.217   2.705 -17.014  1.00 35.49     0.159 C 
ENDROOT
BRANCH   1   2
ATOM      2  CB  ARG D 557     -26.789   1.319 -17.183  1.00 35.49     0.034 C 
BRANCH   2   3
ATOM      3  CG  ARG D 557     -28.231   1.227 -17.445  1.00 35.49     0.027 C 
BRANCH   3   4
ATOM      4  CD  ARG D 557     -28.912   0.287 -16.524  1.00 35.49     0.116 C 
BRANCH   4   5
ATOM      5  NE  ARG D 557     -29.246  -0.956 -17.168  1.00 35.49    -0.212 N 
ATOM      6  CZ  ARG D 557     -28.621  -2.100 -17.000  1.00 35.49     0.666 C 
ATOM      7  NH1 ARG D 557     -27.575  -2.226 -16.205  1.00 35.49    -0.235 N 
ATOM      8  NH2 ARG D 557     -29.075  -3.132 -17.649  1.00 35.49    -0.235 N 
ATOM      9  HH  ARG D 557     -27.261  -1.560 -15.766  1.00 35.49     0.174 HD
ATOM     10  HH  ARG D 557     -27.209  -2.998 -16.133  1.00 35.49     0.174 HD
ATOM     11  HH  ARG D 557     -29.757  -3.023 -18.150  1.00 35.49     0.174 HD
ATOM     12  HH  ARG D 557     -28.700  -3.888 -17.563  1.00 35.49     0.174 HD
ATOM     13  HE  ARG D 557     -29.863  -0.949 -17.753  1.00 35.49     0.178 HD
ENDBRANCH   4   5
ENDBRANCH   3   4
ENDBRANCH   2   3
ENDBRANCH   1   2
END_RES ARG D 557
BEGIN_RES GLU D 570
REMARK  3 active torsions:
REMARK  status: ('A' for Active; 'I' for Inactive)
REMARK    5  A    between atoms: CA   and  CB  
REMARK    6  A    between atoms: CB   and  CG  
REMARK    7  A    between atoms: CG   and  CD  
ROOT
ATOM     14  CA  GLU D 570     -18.033  -6.348 -13.375  1.00 32.92     0.160 C 
ENDROOT
BRANCH  14  15
ATOM     15  CB  GLU D 570     -19.500  -6.345 -13.794  1.00 32.92     0.043 C 
BRANCH  15  16
ATOM     16  CG  GLU D 570     -20.448  -5.558 -12.963  1.00 32.92     0.100 C 
BRANCH  16  17
ATOM     17  CD  GLU D 570     -21.710  -5.183 -13.704  1.00 32.92     0.185 C 
ATOM     18  OE1 GLU D 570     -21.647  -4.948 -14.926  1.00 32.92    -0.647 OA
ATOM     19  OE2 GLU D 570     -22.770  -5.106 -13.052  1.00 32.92    -0.647 OA
ENDBRANCH  16  17
ENDBRANCH  15  16
ENDBRANCH  14  15
END_RES GLU D 570
ENDMDL
MODEL 4
REMARK VINA RESULT:      -7.6      1.996      4.089
REMARK  2 active torsions:
REMARK  status: ('A' for Active; 'I' for Inactive)
REMARK    1  A    between atoms: C_14  and  O_17 
REMARK    2  A    between atoms: C_24  and  O_27 
ROOT
HETATM    1  C   UNL     1     -21.887  -6.081  -2.455  1.00  0.00     0.001 A 
HETATM    2  C   UNL     1     -21.529  -6.776  -1.288  1.00  0.00     0.001 A 
HETATM    3  C   UNL     1     -21.102  -8.105  -1.352  1.00  0.00     0.012 A 
HETATM    4  C   UNL     1     -21.047  -8.715  -2.597  1.00  0.00     0.003 A 
HETATM    5  C   UNL     1     -21.409  -8.025  -3.736  1.00  0.00     0.049 A 
HETATM    6  C   UNL     1     -21.832  -6.710  -3.699  1.00  0.00     0.018 A 
HETATM    7  C   UNL     1     -21.252  -8.898  -4.891  1.00  0.00     0.295 A 
HETATM    8  O   UNL     1     -21.493  -8.614  -6.044  1.00  0.00    -0.259 OA
HETATM    9  O   UNL     1     -20.777 -10.087  -4.426  1.00  0.00    -0.291 OA
HETATM   10  C   UNL     1     -20.614 -10.094  -2.984  1.00  0.00     0.159 A 
HETATM   11  C   UNL     1     -21.528 -11.158  -2.418  1.00  0.00     0.022 A 
HETATM   12  C   UNL     1     -21.010 -12.148  -1.574  1.00  0.00     0.106 A 
HETATM   13  C   UNL     1     -21.871 -13.112  -1.019  1.00  0.00     0.078 A 
HETATM   14  C   UNL     1     -23.241 -13.074  -1.300  1.00  0.00     0.085 A 
HETATM   15  C   UNL     1     -23.764 -12.096  -2.133  1.00  0.00     0.039 A 
HETATM   16  C   UNL     1     -22.913 -11.149  -2.694  1.00  0.00     0.017 A 
HETATM   17 BR   UNL     1     -21.204 -14.475   0.129  1.00  0.00    -0.045 Br
HETATM   18  O   UNL     1     -19.679 -12.218  -1.240  1.00  0.00    -0.306 OA
HETATM   19  C   UNL     1     -18.772 -11.349  -1.801  1.00  0.00     0.106 A 
HETATM   20  C   UNL     1     -19.151 -10.327  -2.677  1.00  0.00     0.022 A 
HETATM   21  C   UNL     1     -18.154  -9.483  -3.215  1.00  0.00     0.017 A 
HETATM   22  C   UNL     1     -16.813  -9.637  -2.868  1.00  0.00     0.039 A 
HETATM   23  C   UNL     1     -16.449 -10.646  -1.984  1.00  0.00     0.085 A 
HETATM   24  C   UNL     1     -17.417 -11.508  -1.452  1.00  0.00     0.078 A 
HETATM   25 BR   UNL     1     -16.892 -12.881  -0.239  1.00  0.00    -0.045 Br
ENDROOT
BRANCH  14  26
HETATM   26  O   UNL     1     -24.132 -13.973  -0.780  1.00  0.00    -0.359 OA
HETATM   27  H   UNL     1     -23.645 -14.800  -0.606  1.00  0.00     0.217 HD
ENDBRANCH  14  26
BRANCH  23  28
HETATM   28  O   UNL     1     -15.132 -10.783  -1.637  1.00  0.00    -0.359 OA
HETATM   29  H   UNL     1     -15.049 -11.457  -0.941  1.00  0.00     0.217 HD
ENDBRANCH  23  28
TORSDOF 2
BEGIN_RES ARG D 557
REMARK  4 active torsions:
REMARK  status: ('A' for Active; 'I' for Inactive)
REMARK    1  A    between atoms: CA   and  CB  
REMARK    2  A    between atoms: CB   and  CG  
REMARK    3  A    between atoms: CG   and  CD  
REMARK    4  A    between atoms: CD   and  NE  
REMARK       I    between atoms: NE   and  CZ  
REMARK       I    between atoms: CZ   and  NH1 
REMARK       I    between atoms: CZ   and  NH2 
ROOT
ATOM      1  CA  ARG D 557     -26.217   2.705 -17.014  1.00 35.49     0.159 C 
ENDROOT
BRANCH   1   2
ATOM      2  CB  ARG D 557     -26.789   1.319 -17.183  1.00 35.49     0.034 C 
BRANCH   2   3
ATOM      3  CG  ARG D 557     -25.835   0.203 -17.160  1.00 35.49     0.027 C 
BRANCH   3   4
ATOM      4  CD  ARG D 557     -24.748   0.411 -16.176  1.00 35.49     0.116 C 
BRANCH   4   5
ATOM      5  NE  ARG D 557     -24.895  -0.433 -15.020  1.00 35.49    -0.212 N 
ATOM      6  CZ  ARG D 557     -24.082  -1.405 -14.670  1.00 35.49     0.666 C 
ATOM      7  NH1 ARG D 557     -23.016  -1.728 -15.379  1.00 35.49    -0.235 N 
ATOM      8  NH2 ARG D 557     -24.359  -2.054 -13.576  1.00 35.49    -0.235 N 
ATOM      9  HH  ARG D 557     -22.814  -1.313 -16.100  1.00 35.49     0.174 HD
ATOM     10  HH  ARG D 557     -22.521  -2.369 -15.100  1.00 35.49     0.174 HD
ATOM     11  HH  ARG D 557     -25.050  -1.819 -13.135  1.00 35.49     0.174 HD
ATOM     12  HH  ARG D 557     -23.855  -2.685 -13.316  1.00 35.49     0.174 HD
ATOM     13  HE  ARG D 557     -25.595  -0.343 -14.546  1.00 35.49     0.178 HD
ENDBRANCH   4   5
ENDBRANCH   3   4
ENDBRANCH   2   3
ENDBRANCH   1   2
END_RES ARG D 557
BEGIN_RES GLU D 570
REMARK  3 active torsions:
REMARK  status: ('A' for Active; 'I' for Inactive)
REMARK    5  A    between atoms: CA   and  CB  
REMARK    6  A    between atoms: CB   and  CG  
REMARK    7  A    between atoms: CG   and  CD  
ROOT
ATOM     14  CA  GLU D 570     -18.033  -6.348 -13.375  1.00 32.92     0.160 C 
ENDROOT
BRANCH  14  15
ATOM     15  CB  GLU D 570     -19.500  -6.345 -13.794  1.00 32.92     0.043 C 
BRANCH  15  16
ATOM     16  CG  GLU D 570     -20.443  -5.536 -12.979  1.00 32.92     0.100 C 
BRANCH  16  17
ATOM     17  CD  GLU D 570     -21.740  -5.243 -13.696  1.00 32.92     0.185 C 
ATOM     18  OE1 GLU D 570     -22.298  -4.144 -13.514  1.00 32.92    -0.647 OA
ATOM     19  OE2 GLU D 570     -22.212  -6.129 -14.436  1.00 32.92    -0.647 OA
ENDBRANCH  16  17
ENDBRANCH  15  16
ENDBRANCH  14  15
END_RES GLU D 570
ENDMDL
MODEL 5
REMARK VINA RESULT:      -7.5      2.533      5.545
REMARK  2 active torsions:
REMARK  status: ('A' for Active; 'I' for Inactive)
REMARK    1  A    between atoms: C_14  and  O_17 
REMARK    2  A    between atoms: C_24  and  O_27 
ROOT
HETATM    1  C   UNL     1     -23.063  -8.176   1.030  1.00  0.00     0.001 A 
HETATM    2  C   UNL     1     -21.683  -7.970   0.866  1.00  0.00     0.001 A 
HETATM    3  C   UNL     1     -20.944  -8.767  -0.012  1.00  0.00     0.012 A 
HETATM    4  C   UNL     1     -21.611  -9.766  -0.709  1.00  0.00     0.003 A 
HETATM    5  C   UNL     1     -22.965  -9.963  -0.532  1.00  0.00     0.049 A 
HETATM    6  C   UNL     1     -23.719  -9.188   0.327  1.00  0.00     0.018 A 
HETATM    7  C   UNL     1     -23.399 -11.062  -1.383  1.00  0.00     0.295 A 
HETATM    8  O   UNL     1     -24.524 -11.507  -1.465  1.00  0.00    -0.259 OA
HETATM    9  O   UNL     1     -22.303 -11.488  -2.070  1.00  0.00    -0.291 OA
HETATM   10  C   UNL     1     -21.106 -10.745  -1.721  1.00  0.00     0.159 A 
HETATM   11  C   UNL     1     -20.112 -11.718  -1.125  1.00  0.00     0.022 A 
HETATM   12  C   UNL     1     -18.816 -11.801  -1.648  1.00  0.00     0.106 A 
HETATM   13  C   UNL     1     -17.884 -12.678  -1.065  1.00  0.00     0.078 A 
HETATM   14  C   UNL     1     -18.247 -13.457   0.038  1.00  0.00     0.085 A 
HETATM   15  C   UNL     1     -19.529 -13.382   0.564  1.00  0.00     0.039 A 
HETATM   16  C   UNL     1     -20.458 -12.523  -0.019  1.00  0.00     0.017 A 
HETATM   17 BR   UNL     1     -16.113 -12.820  -1.749  1.00  0.00    -0.045 Br
HETATM   18  O   UNL     1     -18.393 -11.039  -2.711  1.00  0.00    -0.306 OA
HETATM   19  C   UNL     1     -19.272 -10.212  -3.370  1.00  0.00     0.106 A 
HETATM   20  C   UNL     1     -20.602 -10.051  -2.968  1.00  0.00     0.022 A 
HETATM   21  C   UNL     1     -21.440  -9.187  -3.705  1.00  0.00     0.017 A 
HETATM   22  C   UNL     1     -20.959  -8.477  -4.804  1.00  0.00     0.039 A 
HETATM   23  C   UNL     1     -19.632  -8.630  -5.186  1.00  0.00     0.085 A 
HETATM   24  C   UNL     1     -18.785  -9.497  -4.481  1.00  0.00     0.078 A 
HETATM   25 BR   UNL     1     -16.968  -9.687  -5.024  1.00  0.00    -0.045 Br
ENDROOT
BRANCH  14  26
HETATM   26  O   UNL     1     -17.384 -14.318   0.658  1.00  0.00    -0.359 OA
HETATM   27  H   UNL     1     -16.482 -14.079   0.377  1.00  0.00     0.217 HD
ENDBRANCH  14  26
BRANCH  23  28
HETATM   28  O   UNL     1     -19.161  -7.920  -6.257  1.00  0.00    -0.359 OA
HETATM   29  H   UNL     1     -19.720  -7.138  -6.399  1.00  0.00     0.217 HD
ENDBRANCH  23  28
TORSDOF 2
BEGIN_RES ARG D 557
REMARK  4 active torsions:
REMARK  status: ('A' for Active; 'I' for Inactive)
REMARK    1  A    between atoms: CA   and  CB  
REMARK    2  A    between atoms: CB   and  CG  
REMARK    3  A    between atoms: CG   and  CD  
REMARK    4  A    between atoms: CD   and  NE  
REMARK       I    between atoms: NE   and  CZ  
REMARK       I    between atoms: CZ   and  NH1 
REMARK       I    between atoms: CZ   and  NH2 
ROOT
ATOM      1  CA  ARG D 557     -26.217   2.705 -17.014  1.00 35.49     0.159 C 
ENDROOT
BRANCH   1   2
ATOM      2  CB  ARG D 557     -26.789   1.319 -17.183  1.00 35.49     0.034 C 
BRANCH   2   3
ATOM      3  CG  ARG D 557     -25.837   0.202 -17.142  1.00 35.49     0.027 C 
BRANCH   3   4
ATOM      4  CD  ARG D 557     -24.759   0.415 -16.150  1.00 35.49     0.116 C 
BRANCH   4   5
ATOM      5  NE  ARG D 557     -24.901  -0.442 -15.003  1.00 35.49    -0.212 N 
ATOM      6  CZ  ARG D 557     -24.089  -1.420 -14.670  1.00 35.49     0.666 C 
ATOM      7  NH1 ARG D 557     -23.028  -1.737 -15.389  1.00 35.49    -0.235 N 
ATOM      8  NH2 ARG D 557     -24.359  -2.081 -13.582  1.00 35.49    -0.235 N 
ATOM      9  HH  ARG D 557     -22.829  -1.314 -16.107  1.00 35.49     0.174 HD
ATOM     10  HH  ARG D 557     -22.533  -2.383 -15.121  1.00 35.49     0.174 HD
ATOM     11  HH  ARG D 557     -25.047  -1.849 -13.133  1.00 35.49     0.174 HD
ATOM     12  HH  ARG D 557     -23.856  -2.717 -13.333  1.00 35.49     0.174 HD
ATOM     13  HE  ARG D 557     -25.597  -0.355 -14.523  1.00 35.49     0.178 HD
ENDBRANCH   4   5
ENDBRANCH   3   4
ENDBRANCH   2   3
ENDBRANCH   1   2
END_RES ARG D 557
BEGIN_RES GLU D 570
REMARK  3 active torsions:
REMARK  status: ('A' for Active; 'I' for Inactive)
REMARK    5  A    between atoms: CA   and  CB  
REMARK    6  A    between atoms: CB   and  CG  
REMARK    7  A    between atoms: CG   and  CD  
ROOT
ATOM     14  CA  GLU D 570     -18.033  -6.348 -13.375  1.00 32.92     0.160 C 
ENDROOT
BRANCH  14  15
ATOM     15  CB  GLU D 570     -19.500  -6.345 -13.794  1.00 32.92     0.043 C 
BRANCH  15  16
ATOM     16  CG  GLU D 570     -20.444  -5.542 -12.975  1.00 32.92     0.100 C 
BRANCH  16  17
ATOM     17  CD  GLU D 570     -21.718  -5.198 -13.711  1.00 32.92     0.185 C 
ATOM     18  OE1 GLU D 570     -22.143  -5.980 -14.583  1.00 32.92    -0.647 OA
ATOM     19  OE2 GLU D 570     -22.288  -4.127 -13.425  1.00 32.92    -0.647 OA
ENDBRANCH  16  17
ENDBRANCH  15  16
ENDBRANCH  14  15
END_RES GLU D 570
ENDMDL
MODEL 6
REMARK VINA RESULT:      -7.5      2.716      4.897
REMARK  2 active torsions:
REMARK  status: ('A' for Active; 'I' for Inactive)
REMARK    1  A    between atoms: C_14  and  O_17 
REMARK    2  A    between atoms: C_24  and  O_27 
ROOT
HETATM    1  C   UNL     1     -21.926  -6.378  -2.317  1.00  0.00     0.001 A 
HETATM    2  C   UNL     1     -21.594  -6.682  -3.647  1.00  0.00     0.001 A 
HETATM    3  C   UNL     1     -21.023  -7.915  -3.976  1.00  0.00     0.012 A 
HETATM    4  C   UNL     1     -20.792  -8.822  -2.951  1.00  0.00     0.003 A 
HETATM    5  C   UNL     1     -21.114  -8.508  -1.646  1.00  0.00     0.049 A 
HETATM    6  C   UNL     1     -21.681  -7.298  -1.297  1.00  0.00     0.018 A 
HETATM    7  C   UNL     1     -20.772  -9.634  -0.789  1.00  0.00     0.295 A 
HETATM    8  O   UNL     1     -20.912  -9.690   0.414  1.00  0.00    -0.259 OA
HETATM    9  O   UNL     1     -20.272 -10.610  -1.597  1.00  0.00    -0.291 OA
HETATM   10  C   UNL     1     -20.228 -10.207  -2.991  1.00  0.00     0.159 A 
HETATM   11  C   UNL     1     -18.782 -10.221  -3.434  1.00  0.00     0.022 A 
HETATM   12  C   UNL     1     -18.405 -10.947  -4.571  1.00  0.00     0.106 A 
HETATM   13  C   UNL     1     -17.067 -10.925  -5.001  1.00  0.00     0.078 A 
HETATM   14  C   UNL     1     -16.117 -10.171  -4.303  1.00  0.00     0.085 A 
HETATM   15  C   UNL     1     -16.480  -9.447  -3.176  1.00  0.00     0.039 A 
HETATM   16  C   UNL     1     -17.802  -9.478  -2.740  1.00  0.00     0.017 A 
HETATM   17 BR   UNL     1     -16.516 -11.901  -6.539  1.00  0.00    -0.045 Br
HETATM   18  O   UNL     1     -19.299 -11.682  -5.313  1.00  0.00    -0.306 OA
HETATM   19  C   UNL     1     -20.608 -11.802  -4.910  1.00  0.00     0.106 A 
HETATM   20  C   UNL     1     -21.112 -11.148  -3.781  1.00  0.00     0.022 A 
HETATM   21  C   UNL     1     -22.468 -11.332  -3.433  1.00  0.00     0.017 A 
HETATM   22  C   UNL     1     -23.311 -12.129  -4.205  1.00  0.00     0.039 A 
HETATM   23  C   UNL     1     -22.805 -12.761  -5.334  1.00  0.00     0.085 A 
HETATM   24  C   UNL     1     -21.458 -12.610  -5.690  1.00  0.00     0.078 A 
HETATM   25 BR   UNL     1     -20.790 -13.485  -7.246  1.00  0.00    -0.045 Br
ENDROOT
BRANCH  14  26
HETATM   26  O   UNL     1     -14.804 -10.097  -4.678  1.00  0.00    -0.359 OA
HETATM   27  H   UNL     1     -14.548  -9.156  -4.659  1.00  0.00     0.217 HD
ENDBRANCH  14  26
BRANCH  23  28
HETATM   28  O   UNL     1     -23.641 -13.531  -6.097  1.00  0.00    -0.359 OA
HETATM   29  H   UNL     1     -24.288 -12.961  -6.546  1.00  0.00     0.217 HD
ENDBRANCH  23  28
TORSDOF 2
BEGIN_RES ARG D 557
REMARK  4 active torsions:
REMARK  status: ('A' for Active; 'I' for Inactive)
REMARK    1  A    between atoms: CA   and  CB  
REMARK    2  A    between atoms: CB   and  CG  
REMARK    3  A    between atoms: CG   and  CD  
REMARK    4  A    between atoms: CD   and  NE  
REMARK       I    between atoms: NE   and  CZ  
REMARK       I    between atoms: CZ   and  NH1 
REMARK       I    between atoms: CZ   and  NH2 
ROOT
ATOM      1  CA  ARG D 557     -26.217   2.705 -17.014  1.00 35.49     0.159 C 
ENDROOT
BRANCH   1   2
ATOM      2  CB  ARG D 557     -26.789   1.319 -17.183  1.00 35.49     0.034 C 
BRANCH   2   3
ATOM      3  CG  ARG D 557     -25.836   0.203 -17.152  1.00 35.49     0.027 C 
BRANCH   3   4
ATOM      4  CD  ARG D 557     -24.758   0.408 -16.158  1.00 35.49     0.116 C 
BRANCH   4   5
ATOM      5  NE  ARG D 557     -24.907  -0.448 -15.011  1.00 35.49    -0.212 N 
ATOM      6  CZ  ARG D 557     -24.087  -1.414 -14.663  1.00 35.49     0.666 C 
ATOM      7  NH1 ARG D 557     -23.010  -1.718 -15.363  1.00 35.49    -0.235 N 
ATOM      8  NH2 ARG D 557     -24.367  -2.077 -13.578  1.00 35.49    -0.235 N 
ATOM      9  HH  ARG D 557     -22.805  -1.293 -16.079  1.00 35.49     0.174 HD
ATOM     10  HH  ARG D 557     -22.510  -2.356 -15.085  1.00 35.49     0.174 HD
ATOM     11  HH  ARG D 557     -25.065  -1.854 -13.142  1.00 35.49     0.174 HD
ATOM     12  HH  ARG D 557     -23.859  -2.704 -13.319  1.00 35.49     0.174 HD
ATOM     13  HE  ARG D 557     -25.613  -0.370 -14.544  1.00 35.49     0.178 HD
ENDBRANCH   4   5
ENDBRANCH   3   4
ENDBRANCH   2   3
ENDBRANCH   1   2
END_RES ARG D 557
BEGIN_RES GLU D 570
REMARK  3 active torsions:
REMARK  status: ('A' for Active; 'I' for Inactive)
REMARK    5  A    between atoms: CA   and  CB  
REMARK    6  A    between atoms: CB   and  CG  
REMARK    7  A    between atoms: CG   and  CD  
ROOT
ATOM     14  CA  GLU D 570     -18.033  -6.348 -13.375  1.00 32.92     0.160 C 
ENDROOT
BRANCH  14  15
ATOM     15  CB  GLU D 570     -19.500  -6.345 -13.794  1.00 32.92     0.043 C 
BRANCH  15  16
ATOM     16  CG  GLU D 570     -20.441  -5.528 -12.985  1.00 32.92     0.100 C 
BRANCH  16  17
ATOM     17  CD  GLU D 570     -21.727  -5.216 -13.714  1.00 32.92     0.185 C 
ATOM     18  OE1 GLU D 570     -22.305  -4.136 -13.486  1.00 32.92    -0.647 OA
ATOM     19  OE2 GLU D 570     -22.170  -6.067 -14.510  1.00 32.92    -0.647 OA
ENDBRANCH  16  17
ENDBRANCH  15  16
ENDBRANCH  14  15
END_RES GLU D 570
ENDMDL
MODEL 7
REMARK VINA RESULT:      -7.4      1.746      2.009
REMARK  2 active torsions:
REMARK  status: ('A' for Active; 'I' for Inactive)
REMARK    1  A    between atoms: C_14  and  O_17 
REMARK    2  A    between atoms: C_24  and  O_27 
ROOT
HETATM    1  C   UNL     1     -15.699 -10.267  -2.901  1.00  0.00     0.001 A 
HETATM    2  C   UNL     1     -16.409 -10.970  -1.913  1.00  0.00     0.001 A 
HETATM    3  C   UNL     1     -17.792 -11.145  -2.019  1.00  0.00     0.012 A 
HETATM    4  C   UNL     1     -18.438 -10.601  -3.120  1.00  0.00     0.003 A 
HETATM    5  C   UNL     1     -17.729  -9.906  -4.079  1.00  0.00     0.049 A 
HETATM    6  C   UNL     1     -16.363  -9.721  -3.999  1.00  0.00     0.018 A 
HETATM    7  C   UNL     1     -18.649  -9.456  -5.115  1.00  0.00     0.295 A 
HETATM    8  O   UNL     1     -18.363  -8.806  -6.097  1.00  0.00    -0.259 OA
HETATM    9  O   UNL     1     -19.886  -9.909  -4.770  1.00  0.00    -0.291 OA
HETATM   10  C   UNL     1     -19.879 -10.643  -3.518  1.00  0.00     0.159 A 
HETATM   11  C   UNL     1     -20.762  -9.903  -2.538  1.00  0.00     0.022 A 
HETATM   12  C   UNL     1     -21.799 -10.577  -1.883  1.00  0.00     0.106 A 
HETATM   13  C   UNL     1     -22.592  -9.893  -0.944  1.00  0.00     0.078 A 
HETATM   14  C   UNL     1     -22.338  -8.548  -0.658  1.00  0.00     0.085 A 
HETATM   15  C   UNL     1     -21.312  -7.871  -1.300  1.00  0.00     0.039 A 
HETATM   16  C   UNL     1     -20.533  -8.542  -2.240  1.00  0.00     0.017 A 
HETATM   17 BR   UNL     1     -24.013 -10.775  -0.036  1.00  0.00    -0.045 Br
HETATM   18  O   UNL     1     -22.077 -11.905  -2.102  1.00  0.00    -0.306 OA
HETATM   19  C   UNL     1     -21.386 -12.615  -3.057  1.00  0.00     0.106 A 
HETATM   20  C   UNL     1     -20.341 -12.057  -3.799  1.00  0.00     0.022 A 
HETATM   21  C   UNL     1     -19.688 -12.854  -4.766  1.00  0.00     0.017 A 
HETATM   22  C   UNL     1     -20.050 -14.184  -4.969  1.00  0.00     0.039 A 
HETATM   23  C   UNL     1     -21.079 -14.734  -4.215  1.00  0.00     0.085 A 
HETATM   24  C   UNL     1     -21.755 -13.957  -3.263  1.00  0.00     0.078 A 
HETATM   25 BR   UNL     1     -23.160 -14.736  -2.238  1.00  0.00    -0.045 Br
ENDROOT
BRANCH  14  26
HETATM   26  O   UNL     1     -23.063  -7.832   0.255  1.00  0.00    -0.359 OA
HETATM   27  H   UNL     1     -22.984  -8.288   1.113  1.00  0.00     0.217 HD
ENDBRANCH  14  26
BRANCH  23  28
HETATM   28  O   UNL     1     -21.421 -16.044  -4.409  1.00  0.00    -0.359 OA
HETATM   29  H   UNL     1     -22.197 -16.262  -3.865  1.00  0.00     0.217 HD
ENDBRANCH  23  28
TORSDOF 2
BEGIN_RES ARG D 557
REMARK  4 active torsions:
REMARK  status: ('A' for Active; 'I' for Inactive)
REMARK    1  A    between atoms: CA   and  CB  
REMARK    2  A    between atoms: CB   and  CG  
REMARK    3  A    between atoms: CG   and  CD  
REMARK    4  A    between atoms: CD   and  NE  
REMARK       I    between atoms: NE   and  CZ  
REMARK       I    between atoms: CZ   and  NH1 
REMARK       I    between atoms: CZ   and  NH2 
ROOT
ATOM      1  CA  ARG D 557     -26.217   2.705 -17.014  1.00 35.49     0.159 C 
ENDROOT
BRANCH   1   2
ATOM      2  CB  ARG D 557     -26.789   1.319 -17.183  1.00 35.49     0.034 C 
BRANCH   2   3
ATOM      3  CG  ARG D 557     -25.837   0.202 -17.144  1.00 35.49     0.027 C 
BRANCH   3   4
ATOM      4  CD  ARG D 557     -24.756   0.416 -16.155  1.00 35.49     0.116 C 
BRANCH   4   5
ATOM      5  NE  ARG D 557     -24.895  -0.440 -15.007  1.00 35.49    -0.212 N 
ATOM      6  CZ  ARG D 557     -24.074  -1.408 -14.666  1.00 35.49     0.666 C 
ATOM      7  NH1 ARG D 557     -23.005  -1.715 -15.378  1.00 35.49    -0.235 N 
ATOM      8  NH2 ARG D 557     -24.344  -2.069 -13.578  1.00 35.49    -0.235 N 
ATOM      9  HH  ARG D 557     -22.807  -1.291 -16.096  1.00 35.49     0.174 HD
ATOM     10  HH  ARG D 557     -22.505  -2.354 -15.105  1.00 35.49     0.174 HD
ATOM     11  HH  ARG D 557     -25.037  -1.844 -13.135  1.00 35.49     0.174 HD
ATOM     12  HH  ARG D 557     -23.836  -2.698 -13.324  1.00 35.49     0.174 HD
ATOM     13  HE  ARG D 557     -25.596  -0.359 -14.531  1.00 35.49     0.178 HD
ENDBRANCH   4   5
ENDBRANCH   3   4
ENDBRANCH   2   3
ENDBRANCH   1   2
END_RES ARG D 557
BEGIN_RES GLU D 570
REMARK  3 active torsions:
REMARK  status: ('A' for Active; 'I' for Inactive)
REMARK    5  A    between atoms: CA   and  CB  
REMARK    6  A    between atoms: CB   and  CG  
REMARK    7  A    between atoms: CG   and  CD  
ROOT
ATOM     14  CA  GLU D 570     -18.033  -6.348 -13.375  1.00 32.92     0.160 C 
ENDROOT
BRANCH  14  15
ATOM     15  CB  GLU D 570     -19.500  -6.345 -13.794  1.00 32.92     0.043 C 
BRANCH  15  16
ATOM     16  CG  GLU D 570     -20.444  -5.542 -12.975  1.00 32.92     0.100 C 
BRANCH  16  17
ATOM     17  CD  GLU D 570     -21.737  -5.237 -13.695  1.00 32.92     0.185 C 
ATOM     18  OE1 GLU D 570     -22.224  -6.097 -14.455  1.00 32.92    -0.647 OA
ATOM     19  OE2 GLU D 570     -22.261  -4.121 -13.510  1.00 32.92    -0.647 OA
ENDBRANCH  16  17
ENDBRANCH  15  16
ENDBRANCH  14  15
END_RES GLU D 570
ENDMDL
MODEL 8
REMARK VINA RESULT:      -7.3     13.853     17.569
REMARK  2 active torsions:
REMARK  status: ('A' for Active; 'I' for Inactive)
REMARK    1  A    between atoms: C_14  and  O_17 
REMARK    2  A    between atoms: C_24  and  O_27 
ROOT
HETATM    1  C   UNL     1     -26.830   7.197  -4.464  1.00  0.00     0.001 A 
HETATM    2  C   UNL     1     -26.656   8.581  -4.297  1.00  0.00     0.001 A 
HETATM    3  C   UNL     1     -25.690   9.076  -3.416  1.00  0.00     0.012 A 
HETATM    4  C   UNL     1     -24.917   8.164  -2.712  1.00  0.00     0.003 A 
HETATM    5  C   UNL     1     -25.104   6.806  -2.878  1.00  0.00     0.049 A 
HETATM    6  C   UNL     1     -26.050   6.292  -3.744  1.00  0.00     0.018 A 
HETATM    7  C   UNL     1     -24.163   6.090  -2.029  1.00  0.00     0.295 A 
HETATM    8  O   UNL     1     -24.065   4.886  -1.921  1.00  0.00    -0.259 OA
HETATM    9  O   UNL     1     -23.415   7.030  -1.387  1.00  0.00    -0.291 OA
HETATM   10  C   UNL     1     -23.807   8.383  -1.734  1.00  0.00     0.159 A 
HETATM   11  C   UNL     1     -24.286   9.067  -0.473  1.00  0.00     0.022 A 
HETATM   12  C   UNL     1     -23.729  10.294  -0.088  1.00  0.00     0.106 A 
HETATM   13  C   UNL     1     -24.206  10.945   1.064  1.00  0.00     0.078 A 
HETATM   14  C   UNL     1     -25.238  10.375   1.816  1.00  0.00     0.085 A 
HETATM   15  C   UNL     1     -25.797   9.161   1.443  1.00  0.00     0.039 A 
HETATM   16  C   UNL     1     -25.319   8.508   0.310  1.00  0.00     0.017 A 
HETATM   17 BR   UNL     1     -23.473  12.610   1.620  1.00  0.00    -0.045 Br
HETATM   18  O   UNL     1     -22.734  10.915  -0.803  1.00  0.00    -0.306 OA
HETATM   19  C   UNL     1     -22.175  10.301  -1.900  1.00  0.00     0.106 A 
HETATM   20  C   UNL     1     -22.620   9.066  -2.380  1.00  0.00     0.022 A 
HETATM   21  C   UNL     1     -21.986   8.502  -3.509  1.00  0.00     0.017 A 
HETATM   22  C   UNL     1     -20.949   9.166  -4.162  1.00  0.00     0.039 A 
HETATM   23  C   UNL     1     -20.525  10.401  -3.687  1.00  0.00     0.085 A 
HETATM   24  C   UNL     1     -21.126  10.972  -2.557  1.00  0.00     0.078 A 
HETATM   25 BR   UNL     1     -20.528  12.670  -1.929  1.00  0.00    -0.045 Br
ENDROOT
BRANCH  14  26
HETATM   26  O   UNL     1     -25.755  10.964   2.937  1.00  0.00    -0.359 OA
HETATM   27  H   UNL     1     -26.545  10.455   3.197  1.00  0.00     0.217 HD
ENDBRANCH  14  26
BRANCH  23  28
HETATM   28  O   UNL     1     -19.516  11.055  -4.341  1.00  0.00    -0.359 OA
HETATM   29  H   UNL     1     -19.646  12.015  -4.261  1.00  0.00     0.217 HD
ENDBRANCH  23  28
TORSDOF 2
BEGIN_RES ARG D 557
REMARK  4 active torsions:
REMARK  status: ('A' for Active; 'I' for Inactive)
REMARK    1  A    between atoms: CA   and  CB  
REMARK    2  A    between atoms: CB   and  CG  
REMARK    3  A    between atoms: CG   and  CD  
REMARK    4  A    between atoms: CD   and  NE  
REMARK       I    between atoms: NE   and  CZ  
REMARK       I    between atoms: CZ   and  NH1 
REMARK       I    between atoms: CZ   and  NH2 
ROOT
ATOM      1  CA  ARG D 557     -26.217   2.705 -17.014  1.00 35.49     0.159 C 
ENDROOT
BRANCH   1   2
ATOM      2  CB  ARG D 557     -26.789   1.319 -17.183  1.00 35.49     0.034 C 
BRANCH   2   3
ATOM      3  CG  ARG D 557     -25.839   0.201 -17.128  1.00 35.49     0.027 C 
BRANCH   3   4
ATOM      4  CD  ARG D 557     -24.754   0.431 -16.147  1.00 35.49     0.116 C 
BRANCH   4   5
ATOM      5  NE  ARG D 557     -24.874  -0.424 -14.995  1.00 35.49    -0.212 N 
ATOM      6  CZ  ARG D 557     -24.049  -1.393 -14.668  1.00 35.49     0.666 C 
ATOM      7  NH1 ARG D 557     -22.994  -1.703 -15.399  1.00 35.49    -0.235 N 
ATOM      8  NH2 ARG D 557     -24.301  -2.054 -13.576  1.00 35.49    -0.235 N 
ATOM      9  HH  ARG D 557     -22.807  -1.280 -16.121  1.00 35.49     0.174 HD
ATOM     10  HH  ARG D 557     -22.489  -2.343 -15.135  1.00 35.49     0.174 HD
ATOM     11  HH  ARG D 557     -24.986  -1.827 -13.120  1.00 35.49     0.174 HD
ATOM     12  HH  ARG D 557     -23.789  -2.683 -13.330  1.00 35.49     0.174 HD
ATOM     13  HE  ARG D 557     -25.566  -0.342 -14.508  1.00 35.49     0.178 HD
ENDBRANCH   4   5
ENDBRANCH   3   4
ENDBRANCH   2   3
ENDBRANCH   1   2
END_RES ARG D 557
BEGIN_RES GLU D 570
REMARK  3 active torsions:
REMARK  status: ('A' for Active; 'I' for Inactive)
REMARK    5  A    between atoms: CA   and  CB  
REMARK    6  A    between atoms: CB   and  CG  
REMARK    7  A    between atoms: CG   and  CD  
ROOT
ATOM     14  CA  GLU D 570     -18.033  -6.348 -13.375  1.00 32.92     0.160 C 
ENDROOT
BRANCH  14  15
ATOM     15  CB  GLU D 570     -19.500  -6.345 -13.794  1.00 32.92     0.043 C 
BRANCH  15  16
ATOM     16  CG  GLU D 570     -20.448  -5.559 -12.962  1.00 32.92     0.100 C 
BRANCH  16  17
ATOM     17  CD  GLU D 570     -21.742  -5.250 -13.677  1.00 32.92     0.185 C 
ATOM     18  OE1 GLU D 570     -22.264  -6.127 -14.392  1.00 32.92    -0.647 OA
ATOM     19  OE2 GLU D 570     -22.231  -4.111 -13.535  1.00 32.92    -0.647 OA
ENDBRANCH  16  17
ENDBRANCH  15  16
ENDBRANCH  14  15
END_RES GLU D 570
ENDMDL
MODEL 9
REMARK VINA RESULT:      -7.1      1.555      4.502
REMARK  2 active torsions:
REMARK  status: ('A' for Active; 'I' for Inactive)
REMARK    1  A    between atoms: C_14  and  O_17 
REMARK    2  A    between atoms: C_24  and  O_27 
ROOT
HETATM    1  C   UNL     1     -19.759 -12.763  -7.821  1.00  0.00     0.001 A 
HETATM    2  C   UNL     1     -20.805 -12.620  -6.894  1.00  0.00     0.001 A 
HETATM    3  C   UNL     1     -20.607 -11.923  -5.699  1.00  0.00     0.012 A 
HETATM    4  C   UNL     1     -19.351 -11.384  -5.456  1.00  0.00     0.003 A 
HETATM    5  C   UNL     1     -18.330 -11.538  -6.372  1.00  0.00     0.049 A 
HETATM    6  C   UNL     1     -18.501 -12.220  -7.561  1.00  0.00     0.018 A 
HETATM    7  C   UNL     1     -17.136 -10.873  -5.867  1.00  0.00     0.295 A 
HETATM    8  O   UNL     1     -16.055 -10.825  -6.414  1.00  0.00    -0.259 OA
HETATM    9  O   UNL     1     -17.470 -10.314  -4.671  1.00  0.00    -0.291 OA
HETATM   10  C   UNL     1     -18.849 -10.578  -4.301  1.00  0.00     0.159 A 
HETATM   11  C   UNL     1     -18.841 -11.371  -3.013  1.00  0.00     0.022 A 
HETATM   12  C   UNL     1     -19.580 -10.923  -1.911  1.00  0.00     0.106 A 
HETATM   13  C   UNL     1     -19.601 -11.684  -0.729  1.00  0.00     0.078 A 
HETATM   14  C   UNL     1     -18.896 -12.890  -0.658  1.00  0.00     0.085 A 
HETATM   15  C   UNL     1     -18.162 -13.344  -1.745  1.00  0.00     0.039 A 
HETATM   16  C   UNL     1     -18.129 -12.586  -2.912  1.00  0.00     0.017 A 
HETATM   17 BR   UNL     1     -20.591 -11.106   0.790  1.00  0.00    -0.045 Br
HETATM   18  O   UNL     1     -20.315  -9.761  -1.932  1.00  0.00    -0.306 OA
HETATM   19  C   UNL     1     -20.283  -8.934  -3.031  1.00  0.00     0.106 A 
HETATM   20  C   UNL     1     -19.568  -9.250  -4.190  1.00  0.00     0.022 A 
HETATM   21  C   UNL     1     -19.582  -8.342  -5.271  1.00  0.00     0.017 A 
HETATM   22  C   UNL     1     -20.314  -7.157  -5.209  1.00  0.00     0.039 A 
HETATM   23  C   UNL     1     -21.035  -6.860  -4.059  1.00  0.00     0.085 A 
HETATM   24  C   UNL     1     -21.020  -7.737  -2.966  1.00  0.00     0.078 A 
HETATM   25 BR   UNL     1     -22.020  -7.308  -1.401  1.00  0.00    -0.045 Br
ENDROOT
BRANCH  14  26
HETATM   26  O   UNL     1     -18.888 -13.683   0.456  1.00  0.00    -0.359 OA
HETATM   27  H   UNL     1     -18.080 -14.228   0.421  1.00  0.00     0.217 HD
ENDBRANCH  14  26
BRANCH  23  28
HETATM   28  O   UNL     1     -21.762  -5.702  -4.010  1.00  0.00    -0.359 OA
HETATM   29  H   UNL     1     -21.217  -4.962  -4.325  1.00  0.00     0.217 HD
ENDBRANCH  23  28
TORSDOF 2
BEGIN_RES ARG D 557
REMARK  4 active torsions:
REMARK  status: ('A' for Active; 'I' for Inactive)
REMARK    1  A    between atoms: CA   and  CB  
REMARK    2  A    between atoms: CB   and  CG  
REMARK    3  A    between atoms: CG   and  CD  
REMARK    4  A    between atoms: CD   and  NE  
REMARK       I    between atoms: NE   and  CZ  
REMARK       I    between atoms: CZ   and  NH1 
REMARK       I    between atoms: CZ   and  NH2 
ROOT
ATOM      1  CA  ARG D 557     -26.217   2.705 -17.014  1.00 35.49     0.159 C 
ENDROOT
BRANCH   1   2
ATOM      2  CB  ARG D 557     -26.789   1.319 -17.183  1.00 35.49     0.034 C 
BRANCH   2   3
ATOM      3  CG  ARG D 557     -25.837   0.202 -17.146  1.00 35.49     0.027 C 
BRANCH   3   4
ATOM      4  CD  ARG D 557     -24.754   0.416 -16.159  1.00 35.49     0.116 C 
BRANCH   4   5
ATOM      5  NE  ARG D 557     -24.894  -0.436 -15.008  1.00 35.49    -0.212 N 
ATOM      6  CZ  ARG D 557     -24.073  -1.404 -14.664  1.00 35.49     0.666 C 
ATOM      7  NH1 ARG D 557     -23.005  -1.714 -15.376  1.00 35.49    -0.235 N 
ATOM      8  NH2 ARG D 557     -24.344  -2.061 -13.575  1.00 35.49    -0.235 N 
ATOM      9  HH  ARG D 557     -22.807  -1.293 -16.095  1.00 35.49     0.174 HD
ATOM     10  HH  ARG D 557     -22.505  -2.353 -15.101  1.00 35.49     0.174 HD
ATOM     11  HH  ARG D 557     -25.036  -1.834 -13.131  1.00 35.49     0.174 HD
ATOM     12  HH  ARG D 557     -23.836  -2.690 -13.319  1.00 35.49     0.174 HD
ATOM     13  HE  ARG D 557     -25.594  -0.353 -14.532  1.00 35.49     0.178 HD
ENDBRANCH   4   5
ENDBRANCH   3   4
ENDBRANCH   2   3
ENDBRANCH   1   2
END_RES ARG D 557
BEGIN_RES GLU D 570
REMARK  3 active torsions:
REMARK  status: ('A' for Active; 'I' for Inactive)
REMARK    5  A    between atoms: CA   and  CB  
REMARK    6  A    between atoms: CB   and  CG  
REMARK    7  A    between atoms: CG   and  CD  
ROOT
ATOM     14  CA  GLU D 570     -18.033  -6.348 -13.375  1.00 32.92     0.160 C 
ENDROOT
BRANCH  14  15
ATOM     15  CB  GLU D 570     -19.500  -6.345 -13.794  1.00 32.92     0.043 C 
BRANCH  15  16
ATOM     16  CG  GLU D 570     -20.440  -5.524 -12.988  1.00 32.92     0.100 C 
BRANCH  16  17
ATOM     17  CD  GLU D 570     -21.720  -5.201 -13.724  1.00 32.92     0.185 C 
ATOM     18  OE1 GLU D 570     -22.151  -6.008 -14.571  1.00 32.92    -0.647 OA
ATOM     19  OE2 GLU D 570     -22.289  -4.123 -13.463  1.00 32.92    -0.647 OA
ENDBRANCH  16  17
ENDBRANCH  15  16
ENDBRANCH  14  15
END_RES GLU D 570
ENDMDL
