MODEL 1
REMARK VINA RESULT:      -6.1      0.000      0.000
REMARK  11 active torsions:
REMARK  status: ('A' for Active; 'I' for Inactive)
REMARK    1  A    between atoms: C_1  and  C_2 
REMARK    2  A    between atoms: C_1  and  C_9 
REMARK    3  A    between atoms: C_2  and  C_3 
REMARK    4  A    between atoms: C_3  and  C_4 
REMARK    5  A    between atoms: C_4  and  C_5 
REMARK    6  A    between atoms: C_5  and  C_6 
REMARK    7  A    between atoms: C_6  and  O_8 
REMARK    8  A    between atoms: C_9  and  C_10 
REMARK    9  A    between atoms: C_10  and  C_11 
REMARK   10  A    between atoms: C_11  and  C_12 
REMARK   11  A    between atoms: C_12  and  O_14 
ROOT
HETATM    1  C   UNL     1     -34.623  -1.891 -12.351  1.00  0.00     0.000 C 
ENDROOT
BRANCH   1   2
HETATM    2  C   UNL     1     -35.861  -1.086 -11.945  1.00  0.00     0.000 C 
BRANCH   2   3
HETATM    3  C   UNL     1     -36.119   0.120 -12.850  1.00  0.00     0.001 C 
BRANCH   3   4
HETATM    4  C   UNL     1     -35.097   0.194 -13.983  1.00  0.00     0.010 C 
BRANCH   4   5
HETATM    5  C   UNL     1     -35.782   0.414 -15.331  1.00  0.00     0.110 C 
BRANCH   5   6
HETATM    6  C   UNL     1     -35.747  -0.830 -16.184  1.00  0.00     0.139 C 
HETATM    7  O   UNL     1     -35.183  -1.873 -15.893  1.00  0.00    -0.650 OA
BRANCH   6   8
HETATM    8  O   UNL     1     -36.429  -0.678 -17.343  1.00  0.00    -0.776 OA
HETATM    9  H   UNL     1     -35.860  -0.498 -18.113  1.00  0.00     0.167 HD
ENDBRANCH   6   8
ENDBRANCH   5   6
ENDBRANCH   4   5
ENDBRANCH   3   4
ENDBRANCH   2   3
ENDBRANCH   1   2
BRANCH   1  10
HETATM   10  C   UNL     1     -33.727  -2.257 -11.165  1.00  0.00     0.001 C 
BRANCH  10  11
HETATM   11  C   UNL     1     -33.108  -3.641 -11.343  1.00  0.00     0.010 C 
BRANCH  11  12
HETATM   12  C   UNL     1     -33.956  -4.714 -10.662  1.00  0.00     0.110 C 
BRANCH  12  13
HETATM   13  C   UNL     1     -34.612  -5.629 -11.669  1.00  0.00     0.139 C 
HETATM   14  O   UNL     1     -35.118  -5.276 -12.722  1.00  0.00    -0.650 OA
BRANCH  13  15
HETATM   15  O   UNL     1     -34.581  -6.925 -11.280  1.00  0.00    -0.776 OA
HETATM   16  H   UNL     1     -33.883  -7.450 -11.714  1.00  0.00     0.167 HD
ENDBRANCH  13  15
ENDBRANCH  12  13
ENDBRANCH  11  12
ENDBRANCH  10  11
ENDBRANCH   1  10
TORSDOF 11
BEGIN_RES ARG D 557
REMARK  4 active torsions:
REMARK  status: ('A' for Active; 'I' for Inactive)
REMARK    1  A    between atoms: CA   and  CB  
REMARK    2  A    between atoms: CB   and  CG  
REMARK    3  A    between atoms: CG   and  CD  
REMARK    4  A    between atoms: CD   and  NE  
REMARK       I    between atoms: NE   and  CZ  
REMARK       I    between atoms: CZ   and  NH1 
REMARK       I    between atoms: CZ   and  NH2 
ROOT
ATOM      1  CA  ARG D 557     -26.217   2.705 -17.014  1.00 35.49     0.159 C 
ENDROOT
BRANCH   1   2
ATOM      2  CB  ARG D 557     -26.789   1.319 -17.183  1.00 35.49     0.034 C 
BRANCH   2   3
ATOM      3  CG  ARG D 557     -25.835   0.203 -17.160  1.00 35.49     0.027 C 
BRANCH   3   4
ATOM      4  CD  ARG D 557     -24.750   0.409 -16.174  1.00 35.49     0.116 C 
BRANCH   4   5
ATOM      5  NE  ARG D 557     -24.900  -0.437 -15.019  1.00 35.49    -0.212 N 
ATOM      6  CZ  ARG D 557     -24.089  -1.411 -14.670  1.00 35.49     0.666 C 
ATOM      7  NH1 ARG D 557     -23.021  -1.733 -15.377  1.00 35.49    -0.235 N 
ATOM      8  NH2 ARG D 557     -24.368  -2.062 -13.578  1.00 35.49    -0.235 N 
ATOM      9  HH  ARG D 557     -22.818  -1.316 -16.098  1.00 35.49     0.174 HD
ATOM     10  HH  ARG D 557     -22.527  -2.375 -15.099  1.00 35.49     0.174 HD
ATOM     11  HH  ARG D 557     -25.059  -1.827 -13.137  1.00 35.49     0.174 HD
ATOM     12  HH  ARG D 557     -23.866  -2.693 -13.318  1.00 35.49     0.174 HD
ATOM     13  HE  ARG D 557     -25.601  -0.347 -14.546  1.00 35.49     0.178 HD
ENDBRANCH   4   5
ENDBRANCH   3   4
ENDBRANCH   2   3
ENDBRANCH   1   2
END_RES ARG D 557
BEGIN_RES GLU D 570
REMARK  3 active torsions:
REMARK  status: ('A' for Active; 'I' for Inactive)
REMARK    5  A    between atoms: CA   and  CB  
REMARK    6  A    between atoms: CB   and  CG  
REMARK    7  A    between atoms: CG   and  CD  
ROOT
ATOM     14  CA  GLU D 570     -18.033  -6.348 -13.375  1.00 32.92     0.160 C 
ENDROOT
BRANCH  14  15
ATOM     15  CB  GLU D 570     -19.500  -6.345 -13.794  1.00 32.92     0.043 C 
BRANCH  15  16
ATOM     16  CG  GLU D 570     -20.446  -5.548 -12.970  1.00 32.92     0.100 C 
BRANCH  16  17
ATOM     17  CD  GLU D 570     -21.742  -5.248 -13.686  1.00 32.92     0.185 C 
ATOM     18  OE1 GLU D 570     -22.255  -6.128 -14.403  1.00 32.92    -0.647 OA
ATOM     19  OE2 GLU D 570     -22.242  -4.115 -13.540  1.00 32.92    -0.647 OA
ENDBRANCH  16  17
ENDBRANCH  15  16
ENDBRANCH  14  15
END_RES GLU D 570
ENDMDL
MODEL 2
REMARK VINA RESULT:      -6.0      7.732     11.756
REMARK  11 active torsions:
REMARK  status: ('A' for Active; 'I' for Inactive)
REMARK    1  A    between atoms: C_1  and  C_2 
REMARK    2  A    between atoms: C_1  and  C_9 
REMARK    3  A    between atoms: C_2  and  C_3 
REMARK    4  A    between atoms: C_3  and  C_4 
REMARK    5  A    between atoms: C_4  and  C_5 
REMARK    6  A    between atoms: C_5  and  C_6 
REMARK    7  A    between atoms: C_6  and  O_8 
REMARK    8  A    between atoms: C_9  and  C_10 
REMARK    9  A    between atoms: C_10  and  C_11 
REMARK   10  A    between atoms: C_11  and  C_12 
REMARK   11  A    between atoms: C_12  and  O_14 
ROOT
HETATM    1  C   UNL     1     -20.214  -4.435  -9.427  1.00  0.00     0.000 C 
ENDROOT
BRANCH   1   2
HETATM    2  C   UNL     1     -19.826  -3.927  -8.035  1.00  0.00     0.000 C 
BRANCH   2   3
HETATM    3  C   UNL     1     -19.575  -5.054  -7.032  1.00  0.00     0.001 C 
BRANCH   3   4
HETATM    4  C   UNL     1     -20.429  -4.883  -5.777  1.00  0.00     0.010 C 
BRANCH   4   5
HETATM    5  C   UNL     1     -21.671  -5.771  -5.829  1.00  0.00     0.110 C 
BRANCH   5   6
HETATM    6  C   UNL     1     -21.869  -6.529  -4.539  1.00  0.00     0.139 C 
HETATM    7  O   UNL     1     -22.020  -6.024  -3.437  1.00  0.00    -0.650 OA
BRANCH   6   8
HETATM    8  O   UNL     1     -21.871  -7.869  -4.725  1.00  0.00    -0.776 OA
HETATM    9  H   UNL     1     -22.165  -8.142  -5.613  1.00  0.00     0.167 HD
ENDBRANCH   6   8
ENDBRANCH   5   6
ENDBRANCH   4   5
ENDBRANCH   3   4
ENDBRANCH   2   3
ENDBRANCH   1   2
BRANCH   1  10
HETATM   10  C   UNL     1     -21.573  -3.914  -9.901  1.00  0.00     0.001 C 
BRANCH  10  11
HETATM   11  C   UNL     1     -22.719  -4.581  -9.144  1.00  0.00     0.010 C 
BRANCH  11  12
HETATM   12  C   UNL     1     -23.922  -4.810 -10.057  1.00  0.00     0.110 C 
BRANCH  12  13
HETATM   13  C   UNL     1     -24.689  -3.533 -10.301  1.00  0.00     0.139 C 
HETATM   14  O   UNL     1     -25.042  -3.117 -11.393  1.00  0.00    -0.650 OA
BRANCH  13  15
HETATM   15  O   UNL     1     -24.960  -2.869  -9.153  1.00  0.00    -0.776 OA
HETATM   16  H   UNL     1     -24.883  -3.421  -8.352  1.00  0.00     0.167 HD
ENDBRANCH  13  15
ENDBRANCH  12  13
ENDBRANCH  11  12
ENDBRANCH  10  11
ENDBRANCH   1  10
TORSDOF 11
BEGIN_RES ARG D 557
REMARK  4 active torsions:
REMARK  status: ('A' for Active; 'I' for Inactive)
REMARK    1  A    between atoms: CA   and  CB  
REMARK    2  A    between atoms: CB   and  CG  
REMARK    3  A    between atoms: CG   and  CD  
REMARK    4  A    between atoms: CD   and  NE  
REMARK       I    between atoms: NE   and  CZ  
REMARK       I    between atoms: CZ   and  NH1 
REMARK       I    between atoms: CZ   and  NH2 
ROOT
ATOM      1  CA  ARG D 557     -26.217   2.705 -17.014  1.00 35.49     0.159 C 
ENDROOT
BRANCH   1   2
ATOM      2  CB  ARG D 557     -26.789   1.319 -17.183  1.00 35.49     0.034 C 
BRANCH   2   3
ATOM      3  CG  ARG D 557     -25.856   0.196 -17.029  1.00 35.49     0.027 C 
BRANCH   3   4
ATOM      4  CD  ARG D 557     -26.170  -0.641 -15.848  1.00 35.49     0.116 C 
BRANCH   4   5
ATOM      5  NE  ARG D 557     -25.058  -0.737 -14.940  1.00 35.49    -0.212 N 
ATOM      6  CZ  ARG D 557     -24.629  -1.838 -14.365  1.00 35.49     0.666 C 
ATOM      7  NH1 ARG D 557     -25.205  -3.010 -14.558  1.00 35.49    -0.235 N 
ATOM      8  NH2 ARG D 557     -23.591  -1.742 -13.586  1.00 35.49    -0.235 N 
ATOM      9  HH  ARG D 557     -25.888  -3.096 -15.069  1.00 35.49     0.174 HD
ATOM     10  HH  ARG D 557     -24.879  -3.694 -14.158  1.00 35.49     0.174 HD
ATOM     11  HH  ARG D 557     -23.235  -0.974 -13.486  1.00 35.49     0.174 HD
ATOM     12  HH  ARG D 557     -23.282  -2.432 -13.200  1.00 35.49     0.174 HD
ATOM     13  HE  ARG D 557     -24.673  -0.017 -14.703  1.00 35.49     0.178 HD
ENDBRANCH   4   5
ENDBRANCH   3   4
ENDBRANCH   2   3
ENDBRANCH   1   2
END_RES ARG D 557
BEGIN_RES GLU D 570
REMARK  3 active torsions:
REMARK  status: ('A' for Active; 'I' for Inactive)
REMARK    5  A    between atoms: CA   and  CB  
REMARK    6  A    between atoms: CB   and  CG  
REMARK    7  A    between atoms: CG   and  CD  
ROOT
ATOM     14  CA  GLU D 570     -18.033  -6.348 -13.375  1.00 32.92     0.160 C 
ENDROOT
BRANCH  14  15
ATOM     15  CB  GLU D 570     -19.500  -6.345 -13.794  1.00 32.92     0.043 C 
BRANCH  15  16
ATOM     16  CG  GLU D 570     -20.438  -5.515 -12.995  1.00 32.92     0.100 C 
BRANCH  16  17
ATOM     17  CD  GLU D 570     -21.786  -5.346 -13.657  1.00 32.92     0.185 C 
ATOM     18  OE1 GLU D 570     -22.522  -4.407 -13.300  1.00 32.92    -0.647 OA
ATOM     19  OE2 GLU D 570     -22.116  -6.172 -14.531  1.00 32.92    -0.647 OA
ENDBRANCH  16  17
ENDBRANCH  15  16
ENDBRANCH  14  15
END_RES GLU D 570
ENDMDL
MODEL 3
REMARK VINA RESULT:      -6.0      8.066     11.278
REMARK  11 active torsions:
REMARK  status: ('A' for Active; 'I' for Inactive)
REMARK    1  A    between atoms: C_1  and  C_2 
REMARK    2  A    between atoms: C_1  and  C_9 
REMARK    3  A    between atoms: C_2  and  C_3 
REMARK    4  A    between atoms: C_3  and  C_4 
REMARK    5  A    between atoms: C_4  and  C_5 
REMARK    6  A    between atoms: C_5  and  C_6 
REMARK    7  A    between atoms: C_6  and  O_8 
REMARK    8  A    between atoms: C_9  and  C_10 
REMARK    9  A    between atoms: C_10  and  C_11 
REMARK   10  A    between atoms: C_11  and  C_12 
REMARK   11  A    between atoms: C_12  and  O_14 
ROOT
HETATM    1  C   UNL     1     -21.022  -3.795  -7.037  1.00  0.00     0.000 C 
ENDROOT
BRANCH   1   2
HETATM    2  C   UNL     1     -20.040  -3.992  -8.196  1.00  0.00     0.000 C 
BRANCH   2   3
HETATM    3  C   UNL     1     -20.682  -4.637  -9.425  1.00  0.00     0.001 C 
BRANCH   3   4
HETATM    4  C   UNL     1     -21.765  -3.741 -10.023  1.00  0.00     0.010 C 
BRANCH   4   5
HETATM    5  C   UNL     1     -23.061  -4.516 -10.247  1.00  0.00     0.110 C 
BRANCH   5   6
HETATM    6  C   UNL     1     -24.276  -3.659  -9.985  1.00  0.00     0.139 C 
HETATM    7  O   UNL     1     -25.052  -3.251 -10.835  1.00  0.00    -0.650 OA
BRANCH   6   8
HETATM    8  O   UNL     1     -24.434  -3.380  -8.670  1.00  0.00    -0.776 OA
HETATM    9  H   UNL     1     -23.594  -3.226  -8.198  1.00  0.00     0.167 HD
ENDBRANCH   6   8
ENDBRANCH   5   6
ENDBRANCH   4   5
ENDBRANCH   3   4
ENDBRANCH   2   3
ENDBRANCH   1   2
BRANCH   1  10
HETATM   10  C   UNL     1     -21.647  -5.104  -6.548  1.00  0.00     0.001 C 
BRANCH  10  11
HETATM   11  C   UNL     1     -20.996  -5.581  -5.253  1.00  0.00     0.010 C 
BRANCH  11  12
HETATM   12  C   UNL     1     -21.826  -6.680  -4.592  1.00  0.00     0.110 C 
BRANCH  12  13
HETATM   13  C   UNL     1     -21.744  -6.612  -3.086  1.00  0.00     0.139 C 
HETATM   14  O   UNL     1     -22.434  -5.905  -2.370  1.00  0.00    -0.650 OA
BRANCH  13  15
HETATM   15  O   UNL     1     -20.800  -7.444  -2.585  1.00  0.00    -0.776 OA
HETATM   16  H   UNL     1     -20.071  -7.631  -3.206  1.00  0.00     0.167 HD
ENDBRANCH  13  15
ENDBRANCH  12  13
ENDBRANCH  11  12
ENDBRANCH  10  11
ENDBRANCH   1  10
TORSDOF 11
BEGIN_RES ARG D 557
REMARK  4 active torsions:
REMARK  status: ('A' for Active; 'I' for Inactive)
REMARK    1  A    between atoms: CA   and  CB  
REMARK    2  A    between atoms: CB   and  CG  
REMARK    3  A    between atoms: CG   and  CD  
REMARK    4  A    between atoms: CD   and  NE  
REMARK       I    between atoms: NE   and  CZ  
REMARK       I    between atoms: CZ   and  NH1 
REMARK       I    between atoms: CZ   and  NH2 
ROOT
ATOM      1  CA  ARG D 557     -26.217   2.705 -17.014  1.00 35.49     0.159 C 
ENDROOT
BRANCH   1   2
ATOM      2  CB  ARG D 557     -26.789   1.319 -17.183  1.00 35.49     0.034 C 
BRANCH   2   3
ATOM      3  CG  ARG D 557     -25.833   0.205 -17.185  1.00 35.49     0.027 C 
BRANCH   3   4
ATOM      4  CD  ARG D 557     -24.738   0.400 -16.208  1.00 35.49     0.116 C 
BRANCH   4   5
ATOM      5  NE  ARG D 557     -24.895  -0.433 -15.044  1.00 35.49    -0.212 N 
ATOM      6  CZ  ARG D 557     -24.084  -1.399 -14.676  1.00 35.49     0.666 C 
ATOM      7  NH1 ARG D 557     -23.010  -1.727 -15.370  1.00 35.49    -0.235 N 
ATOM      8  NH2 ARG D 557     -24.371  -2.038 -13.579  1.00 35.49    -0.235 N 
ATOM      9  HH  ARG D 557     -22.801  -1.319 -16.094  1.00 35.49     0.174 HD
ATOM     10  HH  ARG D 557     -22.517  -2.365 -15.080  1.00 35.49     0.174 HD
ATOM     11  HH  ARG D 557     -25.067  -1.800 -13.148  1.00 35.49     0.174 HD
ATOM     12  HH  ARG D 557     -23.869  -2.665 -13.308  1.00 35.49     0.174 HD
ATOM     13  HE  ARG D 557     -25.600  -0.339 -14.578  1.00 35.49     0.178 HD
ENDBRANCH   4   5
ENDBRANCH   3   4
ENDBRANCH   2   3
ENDBRANCH   1   2
END_RES ARG D 557
BEGIN_RES GLU D 570
REMARK  3 active torsions:
REMARK  status: ('A' for Active; 'I' for Inactive)
REMARK    5  A    between atoms: CA   and  CB  
REMARK    6  A    between atoms: CB   and  CG  
REMARK    7  A    between atoms: CG   and  CD  
ROOT
ATOM     14  CA  GLU D 570     -18.033  -6.348 -13.375  1.00 32.92     0.160 C 
ENDROOT
BRANCH  14  15
ATOM     15  CB  GLU D 570     -19.500  -6.345 -13.794  1.00 32.92     0.043 C 
BRANCH  15  16
ATOM     16  CG  GLU D 570     -20.441  -5.527 -12.986  1.00 32.92     0.100 C 
BRANCH  16  17
ATOM     17  CD  GLU D 570     -21.740  -5.243 -13.703  1.00 32.92     0.185 C 
ATOM     18  OE1 GLU D 570     -22.261  -4.117 -13.588  1.00 32.92    -0.647 OA
ATOM     19  OE2 GLU D 570     -22.251  -6.161 -14.374  1.00 32.92    -0.647 OA
ENDBRANCH  16  17
ENDBRANCH  15  16
ENDBRANCH  14  15
END_RES GLU D 570
ENDMDL
MODEL 4
REMARK VINA RESULT:      -6.0      7.172      9.902
REMARK  11 active torsions:
REMARK  status: ('A' for Active; 'I' for Inactive)
REMARK    1  A    between atoms: C_1  and  C_2 
REMARK    2  A    between atoms: C_1  and  C_9 
REMARK    3  A    between atoms: C_2  and  C_3 
REMARK    4  A    between atoms: C_3  and  C_4 
REMARK    5  A    between atoms: C_4  and  C_5 
REMARK    6  A    between atoms: C_5  and  C_6 
REMARK    7  A    between atoms: C_6  and  O_8 
REMARK    8  A    between atoms: C_9  and  C_10 
REMARK    9  A    between atoms: C_10  and  C_11 
REMARK   10  A    between atoms: C_11  and  C_12 
REMARK   11  A    between atoms: C_12  and  O_14 
ROOT
HETATM    1  C   UNL     1     -20.337  -4.671 -10.233  1.00  0.00     0.000 C 
ENDROOT
BRANCH   1   2
HETATM    2  C   UNL     1     -20.729  -3.414 -11.014  1.00  0.00     0.000 C 
BRANCH   2   3
HETATM    3  C   UNL     1     -21.823  -3.668 -12.053  1.00  0.00     0.001 C 
BRANCH   3   4
HETATM    4  C   UNL     1     -22.759  -2.467 -12.181  1.00  0.00     0.010 C 
BRANCH   4   5
HETATM    5  C   UNL     1     -24.046  -2.847 -12.910  1.00  0.00     0.110 C 
BRANCH   5   6
HETATM    6  C   UNL     1     -23.827  -2.974 -14.398  1.00  0.00     0.139 C 
HETATM    7  O   UNL     1     -23.207  -2.186 -15.093  1.00  0.00    -0.650 OA
BRANCH   6   8
HETATM    8  O   UNL     1     -24.398  -4.091 -14.907  1.00  0.00    -0.776 OA
HETATM    9  H   UNL     1     -25.327  -4.215 -14.637  1.00  0.00     0.167 HD
ENDBRANCH   6   8
ENDBRANCH   5   6
ENDBRANCH   4   5
ENDBRANCH   3   4
ENDBRANCH   2   3
ENDBRANCH   1   2
BRANCH   1  10
HETATM   10  C   UNL     1     -20.872  -4.682  -8.799  1.00  0.00     0.001 C 
BRANCH  10  11
HETATM   11  C   UNL     1     -21.924  -3.595  -8.590  1.00  0.00     0.010 C 
BRANCH  11  12
HETATM   12  C   UNL     1     -23.266  -4.200  -8.181  1.00  0.00     0.110 C 
BRANCH  12  13
HETATM   13  C   UNL     1     -24.299  -4.058  -9.274  1.00  0.00     0.139 C 
HETATM   14  O   UNL     1     -24.546  -4.895 -10.127  1.00  0.00    -0.650 OA
BRANCH  13  15
HETATM   15  O   UNL     1     -24.951  -2.873  -9.212  1.00  0.00    -0.776 OA
HETATM   16  H   UNL     1     -25.820  -2.925  -8.774  1.00  0.00     0.167 HD
ENDBRANCH  13  15
ENDBRANCH  12  13
ENDBRANCH  11  12
ENDBRANCH  10  11
ENDBRANCH   1  10
TORSDOF 11
BEGIN_RES ARG D 557
REMARK  4 active torsions:
REMARK  status: ('A' for Active; 'I' for Inactive)
REMARK    1  A    between atoms: CA   and  CB  
REMARK    2  A    between atoms: CB   and  CG  
REMARK    3  A    between atoms: CG   and  CD  
REMARK    4  A    between atoms: CD   and  NE  
REMARK       I    between atoms: NE   and  CZ  
REMARK       I    between atoms: CZ   and  NH1 
REMARK       I    between atoms: CZ   and  NH2 
ROOT
ATOM      1  CA  ARG D 557     -26.217   2.705 -17.014  1.00 35.49     0.159 C 
ENDROOT
BRANCH   1   2
ATOM      2  CB  ARG D 557     -26.789   1.319 -17.183  1.00 35.49     0.034 C 
BRANCH   2   3
ATOM      3  CG  ARG D 557     -28.206   1.143 -16.843  1.00 35.49     0.027 C 
BRANCH   3   4
ATOM      4  CD  ARG D 557     -28.699  -0.216 -17.163  1.00 35.49     0.116 C 
BRANCH   4   5
ATOM      5  NE  ARG D 557     -27.904  -1.242 -16.540  1.00 35.49    -0.212 N 
ATOM      6  CZ  ARG D 557     -28.079  -2.537 -16.674  1.00 35.49     0.666 C 
ATOM      7  NH1 ARG D 557     -29.047  -3.049 -17.412  1.00 35.49    -0.235 N 
ATOM      8  NH2 ARG D 557     -27.249  -3.323 -16.052  1.00 35.49    -0.235 N 
ATOM      9  HH  ARG D 557     -29.603  -2.551 -17.832  1.00 35.49     0.174 HD
ATOM     10  HH  ARG D 557     -29.110  -3.902 -17.465  1.00 35.49     0.174 HD
ATOM     11  HH  ARG D 557     -26.629  -2.964 -15.589  1.00 35.49     0.174 HD
ATOM     12  HH  ARG D 557     -27.327  -4.164 -16.118  1.00 35.49     0.174 HD
ATOM     13  HE  ARG D 557     -27.303  -1.001 -15.989  1.00 35.49     0.178 HD
ENDBRANCH   4   5
ENDBRANCH   3   4
ENDBRANCH   2   3
ENDBRANCH   1   2
END_RES ARG D 557
BEGIN_RES GLU D 570
REMARK  3 active torsions:
REMARK  status: ('A' for Active; 'I' for Inactive)
REMARK    5  A    between atoms: CA   and  CB  
REMARK    6  A    between atoms: CB   and  CG  
REMARK    7  A    between atoms: CG   and  CD  
ROOT
ATOM     14  CA  GLU D 570     -18.033  -6.348 -13.375  1.00 32.92     0.160 C 
ENDROOT
BRANCH  14  15
ATOM     15  CB  GLU D 570     -19.500  -6.345 -13.794  1.00 32.92     0.043 C 
BRANCH  15  16
ATOM     16  CG  GLU D 570     -19.816  -5.904 -15.177  1.00 32.92     0.100 C 
BRANCH  16  17
ATOM     17  CD  GLU D 570     -21.282  -5.599 -15.378  1.00 32.92     0.185 C 
ATOM     18  OE1 GLU D 570     -22.118  -6.113 -14.610  1.00 32.92    -0.647 OA
ATOM     19  OE2 GLU D 570     -21.599  -4.851 -16.324  1.00 32.92    -0.647 OA
ENDBRANCH  16  17
ENDBRANCH  15  16
ENDBRANCH  14  15
END_RES GLU D 570
ENDMDL
MODEL 5
REMARK VINA RESULT:      -5.9      7.085     10.737
REMARK  11 active torsions:
REMARK  status: ('A' for Active; 'I' for Inactive)
REMARK    1  A    between atoms: C_1  and  C_2 
REMARK    2  A    between atoms: C_1  and  C_9 
REMARK    3  A    between atoms: C_2  and  C_3 
REMARK    4  A    between atoms: C_3  and  C_4 
REMARK    5  A    between atoms: C_4  and  C_5 
REMARK    6  A    between atoms: C_5  and  C_6 
REMARK    7  A    between atoms: C_6  and  O_8 
REMARK    8  A    between atoms: C_9  and  C_10 
REMARK    9  A    between atoms: C_10  and  C_11 
REMARK   10  A    between atoms: C_11  and  C_12 
REMARK   11  A    between atoms: C_12  and  O_14 
ROOT
HETATM    1  C   UNL     1     -20.793  -4.247 -11.326  1.00  0.00     0.000 C 
ENDROOT
BRANCH   1   2
HETATM    2  C   UNL     1     -20.191  -4.627  -9.970  1.00  0.00     0.000 C 
BRANCH   2   3
HETATM    3  C   UNL     1     -20.928  -3.997  -8.787  1.00  0.00     0.001 C 
BRANCH   3   4
HETATM    4  C   UNL     1     -22.222  -4.746  -8.474  1.00  0.00     0.010 C 
BRANCH   4   5
HETATM    5  C   UNL     1     -23.431  -3.816  -8.550  1.00  0.00     0.110 C 
BRANCH   5   6
HETATM    6  C   UNL     1     -24.376  -4.220  -9.655  1.00  0.00     0.139 C 
HETATM    7  O   UNL     1     -24.219  -5.165 -10.412  1.00  0.00    -0.650 OA
BRANCH   6   8
HETATM    8  O   UNL     1     -25.457  -3.409  -9.728  1.00  0.00    -0.776 OA
HETATM    9  H   UNL     1     -25.239  -2.459  -9.690  1.00  0.00     0.167 HD
ENDBRANCH   6   8
ENDBRANCH   5   6
ENDBRANCH   4   5
ENDBRANCH   3   4
ENDBRANCH   2   3
ENDBRANCH   1   2
BRANCH   1  10
HETATM   10  C   UNL     1     -21.203  -2.775 -11.412  1.00  0.00     0.001 C 
BRANCH  10  11
HETATM   11  C   UNL     1     -22.509  -2.606 -12.185  1.00  0.00     0.010 C 
BRANCH  11  12
HETATM   12  C   UNL     1     -22.699  -3.733 -13.197  1.00  0.00     0.110 C 
BRANCH  12  13
HETATM   13  C   UNL     1     -22.722  -3.212 -14.615  1.00  0.00     0.139 C 
HETATM   14  O   UNL     1     -23.400  -2.280 -15.015  1.00  0.00    -0.650 OA
BRANCH  13  15
HETATM   15  O   UNL     1     -21.887  -3.900 -15.428  1.00  0.00    -0.776 OA
HETATM   16  H   UNL     1     -21.750  -3.480 -16.298  1.00  0.00     0.167 HD
ENDBRANCH  13  15
ENDBRANCH  12  13
ENDBRANCH  11  12
ENDBRANCH  10  11
ENDBRANCH   1  10
TORSDOF 11
BEGIN_RES ARG D 557
REMARK  4 active torsions:
REMARK  status: ('A' for Active; 'I' for Inactive)
REMARK    1  A    between atoms: CA   and  CB  
REMARK    2  A    between atoms: CB   and  CG  
REMARK    3  A    between atoms: CG   and  CD  
REMARK    4  A    between atoms: CD   and  NE  
REMARK       I    between atoms: NE   and  CZ  
REMARK       I    between atoms: CZ   and  NH1 
REMARK       I    between atoms: CZ   and  NH2 
ROOT
ATOM      1  CA  ARG D 557     -26.217   2.705 -17.014  1.00 35.49     0.159 C 
ENDROOT
BRANCH   1   2
ATOM      2  CB  ARG D 557     -26.789   1.319 -17.183  1.00 35.49     0.034 C 
BRANCH   2   3
ATOM      3  CG  ARG D 557     -28.230   1.227 -17.450  1.00 35.49     0.027 C 
BRANCH   3   4
ATOM      4  CD  ARG D 557     -28.921   0.317 -16.508  1.00 35.49     0.116 C 
BRANCH   4   5
ATOM      5  NE  ARG D 557     -29.309  -0.919 -17.134  1.00 35.49    -0.212 N 
ATOM      6  CZ  ARG D 557     -28.671  -2.064 -17.034  1.00 35.49     0.666 C 
ATOM      7  NH1 ARG D 557     -27.560  -2.198 -16.335  1.00 35.49    -0.235 N 
ATOM      8  NH2 ARG D 557     -29.179  -3.090 -17.653  1.00 35.49    -0.235 N 
ATOM      9  HH  ARG D 557     -27.209  -1.537 -15.918  1.00 35.49     0.174 HD
ATOM     10  HH  ARG D 557     -27.189  -2.970 -16.304  1.00 35.49     0.174 HD
ATOM     11  HH  ARG D 557     -29.902  -2.975 -18.091  1.00 35.49     0.174 HD
ATOM     12  HH  ARG D 557     -28.798  -3.846 -17.609  1.00 35.49     0.174 HD
ATOM     13  HE  ARG D 557     -29.975  -0.907 -17.663  1.00 35.49     0.178 HD
ENDBRANCH   4   5
ENDBRANCH   3   4
ENDBRANCH   2   3
ENDBRANCH   1   2
END_RES ARG D 557
BEGIN_RES GLU D 570
REMARK  3 active torsions:
REMARK  status: ('A' for Active; 'I' for Inactive)
REMARK    5  A    between atoms: CA   and  CB  
REMARK    6  A    between atoms: CB   and  CG  
REMARK    7  A    between atoms: CG   and  CD  
ROOT
ATOM     14  CA  GLU D 570     -18.033  -6.348 -13.375  1.00 32.92     0.160 C 
ENDROOT
BRANCH  14  15
ATOM     15  CB  GLU D 570     -19.500  -6.345 -13.794  1.00 32.92     0.043 C 
BRANCH  15  16
ATOM     16  CG  GLU D 570     -20.126  -7.656 -14.106  1.00 32.92     0.100 C 
BRANCH  16  17
ATOM     17  CD  GLU D 570     -20.956  -7.628 -15.368  1.00 32.92     0.185 C 
ATOM     18  OE1 GLU D 570     -20.726  -8.464 -16.263  1.00 32.92    -0.647 OA
ATOM     19  OE2 GLU D 570     -21.834  -6.749 -15.470  1.00 32.92    -0.647 OA
ENDBRANCH  16  17
ENDBRANCH  15  16
ENDBRANCH  14  15
END_RES GLU D 570
ENDMDL
MODEL 6
REMARK VINA RESULT:      -5.9      2.364      5.182
REMARK  11 active torsions:
REMARK  status: ('A' for Active; 'I' for Inactive)
REMARK    1  A    between atoms: C_1  and  C_2 
REMARK    2  A    between atoms: C_1  and  C_9 
REMARK    3  A    between atoms: C_2  and  C_3 
REMARK    4  A    between atoms: C_3  and  C_4 
REMARK    5  A    between atoms: C_4  and  C_5 
REMARK    6  A    between atoms: C_5  and  C_6 
REMARK    7  A    between atoms: C_6  and  O_8 
REMARK    8  A    between atoms: C_9  and  C_10 
REMARK    9  A    between atoms: C_10  and  C_11 
REMARK   10  A    between atoms: C_11  and  C_12 
REMARK   11  A    between atoms: C_12  and  O_14 
ROOT
HETATM    1  C   UNL     1     -35.017  -1.516 -12.638  1.00  0.00     0.000 C 
ENDROOT
BRANCH   1   2
HETATM    2  C   UNL     1     -34.810  -1.841 -11.156  1.00  0.00     0.000 C 
BRANCH   2   3
HETATM    3  C   UNL     1     -33.380  -2.277 -10.830  1.00  0.00     0.001 C 
BRANCH   3   4
HETATM    4  C   UNL     1     -33.057  -3.636 -11.450  1.00  0.00     0.010 C 
BRANCH   4   5
HETATM    5  C   UNL     1     -33.836  -4.755 -10.762  1.00  0.00     0.110 C 
BRANCH   5   6
HETATM    6  C   UNL     1     -34.612  -5.586 -11.755  1.00  0.00     0.139 C 
HETATM    7  O   UNL     1     -35.133  -5.167 -12.776  1.00  0.00    -0.650 OA
BRANCH   6   8
HETATM    8  O   UNL     1     -34.673  -6.890 -11.396  1.00  0.00    -0.776 OA
HETATM    9  H   UNL     1     -34.115  -7.474 -11.943  1.00  0.00     0.167 HD
ENDBRANCH   6   8
ENDBRANCH   5   6
ENDBRANCH   4   5
ENDBRANCH   3   4
ENDBRANCH   2   3
ENDBRANCH   1   2
BRANCH   1  10
HETATM   10  C   UNL     1     -35.066  -0.013 -12.924  1.00  0.00     0.001 C 
BRANCH  10  11
HETATM   11  C   UNL     1     -36.054   0.307 -14.043  1.00  0.00     0.010 C 
BRANCH  11  12
HETATM   12  C   UNL     1     -35.369   0.274 -15.408  1.00  0.00     0.110 C 
BRANCH  12  13
HETATM   13  C   UNL     1     -35.922  -0.825 -16.283  1.00  0.00     0.139 C 
HETATM   14  O   UNL     1     -36.884  -0.722 -17.026  1.00  0.00    -0.650 OA
BRANCH  13  15
HETATM   15  O   UNL     1     -35.221  -1.977 -16.164  1.00  0.00    -0.776 OA
HETATM   16  H   UNL     1     -34.595  -2.134 -16.895  1.00  0.00     0.167 HD
ENDBRANCH  13  15
ENDBRANCH  12  13
ENDBRANCH  11  12
ENDBRANCH  10  11
ENDBRANCH   1  10
TORSDOF 11
BEGIN_RES ARG D 557
REMARK  4 active torsions:
REMARK  status: ('A' for Active; 'I' for Inactive)
REMARK    1  A    between atoms: CA   and  CB  
REMARK    2  A    between atoms: CB   and  CG  
REMARK    3  A    between atoms: CG   and  CD  
REMARK    4  A    between atoms: CD   and  NE  
REMARK       I    between atoms: NE   and  CZ  
REMARK       I    between atoms: CZ   and  NH1 
REMARK       I    between atoms: CZ   and  NH2 
ROOT
ATOM      1  CA  ARG D 557     -26.217   2.705 -17.014  1.00 35.49     0.159 C 
ENDROOT
BRANCH   1   2
ATOM      2  CB  ARG D 557     -26.789   1.319 -17.183  1.00 35.49     0.034 C 
BRANCH   2   3
ATOM      3  CG  ARG D 557     -28.231   1.226 -17.442  1.00 35.49     0.027 C 
BRANCH   3   4
ATOM      4  CD  ARG D 557     -28.916   0.311 -16.501  1.00 35.49     0.116 C 
BRANCH   4   5
ATOM      5  NE  ARG D 557     -29.316  -0.918 -17.134  1.00 35.49    -0.212 N 
ATOM      6  CZ  ARG D 557     -28.695  -2.072 -17.032  1.00 35.49     0.666 C 
ATOM      7  NH1 ARG D 557     -27.592  -2.224 -16.323  1.00 35.49    -0.235 N 
ATOM      8  NH2 ARG D 557     -29.212  -3.089 -17.659  1.00 35.49    -0.235 N 
ATOM      9  HH  ARG D 557     -27.236  -1.570 -15.901  1.00 35.49     0.174 HD
ATOM     10  HH  ARG D 557     -27.233  -3.002 -16.291  1.00 35.49     0.174 HD
ATOM     11  HH  ARG D 557     -29.929  -2.963 -18.104  1.00 35.49     0.174 HD
ATOM     12  HH  ARG D 557     -28.843  -3.851 -17.614  1.00 35.49     0.174 HD
ATOM     13  HE  ARG D 557     -29.976  -0.895 -17.670  1.00 35.49     0.178 HD
ENDBRANCH   4   5
ENDBRANCH   3   4
ENDBRANCH   2   3
ENDBRANCH   1   2
END_RES ARG D 557
BEGIN_RES GLU D 570
REMARK  3 active torsions:
REMARK  status: ('A' for Active; 'I' for Inactive)
REMARK    5  A    between atoms: CA   and  CB  
REMARK    6  A    between atoms: CB   and  CG  
REMARK    7  A    between atoms: CG   and  CD  
ROOT
ATOM     14  CA  GLU D 570     -18.033  -6.348 -13.375  1.00 32.92     0.160 C 
ENDROOT
BRANCH  14  15
ATOM     15  CB  GLU D 570     -19.500  -6.345 -13.794  1.00 32.92     0.043 C 
BRANCH  15  16
ATOM     16  CG  GLU D 570     -20.133  -7.659 -14.078  1.00 32.92     0.100 C 
BRANCH  16  17
ATOM     17  CD  GLU D 570     -20.850  -7.692 -15.408  1.00 32.92     0.185 C 
ATOM     18  OE1 GLU D 570     -20.640  -8.643 -16.185  1.00 32.92    -0.647 OA
ATOM     19  OE2 GLU D 570     -21.616  -6.748 -15.683  1.00 32.92    -0.647 OA
ENDBRANCH  16  17
ENDBRANCH  15  16
ENDBRANCH  14  15
END_RES GLU D 570
ENDMDL
MODEL 7
REMARK VINA RESULT:      -5.9      5.897      7.186
REMARK  11 active torsions:
REMARK  status: ('A' for Active; 'I' for Inactive)
REMARK    1  A    between atoms: C_1  and  C_2 
REMARK    2  A    between atoms: C_1  and  C_9 
REMARK    3  A    between atoms: C_2  and  C_3 
REMARK    4  A    between atoms: C_3  and  C_4 
REMARK    5  A    between atoms: C_4  and  C_5 
REMARK    6  A    between atoms: C_5  and  C_6 
REMARK    7  A    between atoms: C_6  and  O_8 
REMARK    8  A    between atoms: C_9  and  C_10 
REMARK    9  A    between atoms: C_10  and  C_11 
REMARK   10  A    between atoms: C_11  and  C_12 
REMARK   11  A    between atoms: C_12  and  O_14 
ROOT
HETATM    1  C   UNL     1     -28.722  -3.388 -17.272  1.00  0.00     0.000 C 
ENDROOT
BRANCH   1   2
HETATM    2  C   UNL     1     -29.725  -4.295 -17.991  1.00  0.00     0.000 C 
BRANCH   2   3
HETATM    3  C   UNL     1     -30.853  -4.785 -17.081  1.00  0.00     0.001 C 
BRANCH   3   4
HETATM    4  C   UNL     1     -30.833  -6.307 -16.941  1.00  0.00     0.010 C 
BRANCH   4   5
HETATM    5  C   UNL     1     -30.910  -6.987 -18.306  1.00  0.00     0.110 C 
BRANCH   5   6
HETATM    6  C   UNL     1     -29.925  -8.125 -18.418  1.00  0.00     0.139 C 
HETATM    7  O   UNL     1     -29.668  -8.742 -19.440  1.00  0.00    -0.650 OA
BRANCH   6   8
HETATM    8  O   UNL     1     -29.327  -8.405 -17.237  1.00  0.00    -0.776 OA
HETATM    9  H   UNL     1     -29.904  -8.268 -16.463  1.00  0.00     0.167 HD
ENDBRANCH   6   8
ENDBRANCH   5   6
ENDBRANCH   4   5
ENDBRANCH   3   4
ENDBRANCH   2   3
ENDBRANCH   1   2
BRANCH   1  10
HETATM   10  C   UNL     1     -27.816  -4.145 -16.298  1.00  0.00     0.001 C 
BRANCH  10  11
HETATM   11  C   UNL     1     -27.214  -5.388 -16.950  1.00  0.00     0.010 C 
BRANCH  11  12
HETATM   12  C   UNL     1     -26.906  -6.461 -15.908  1.00  0.00     0.110 C 
BRANCH  12  13
HETATM   13  C   UNL     1     -25.419  -6.670 -15.745  1.00  0.00     0.139 C 
HETATM   14  O   UNL     1     -24.823  -7.714 -15.957  1.00  0.00    -0.650 OA
BRANCH  13  15
HETATM   15  O   UNL     1     -24.785  -5.547 -15.331  1.00  0.00    -0.776 OA
HETATM   16  H   UNL     1     -25.211  -5.115 -14.567  1.00  0.00     0.167 HD
ENDBRANCH  13  15
ENDBRANCH  12  13
ENDBRANCH  11  12
ENDBRANCH  10  11
ENDBRANCH   1  10
TORSDOF 11
BEGIN_RES ARG D 557
REMARK  4 active torsions:
REMARK  status: ('A' for Active; 'I' for Inactive)
REMARK    1  A    between atoms: CA   and  CB  
REMARK    2  A    between atoms: CB   and  CG  
REMARK    3  A    between atoms: CG   and  CD  
REMARK    4  A    between atoms: CD   and  NE  
REMARK       I    between atoms: NE   and  CZ  
REMARK       I    between atoms: CZ   and  NH1 
REMARK       I    between atoms: CZ   and  NH2 
ROOT
ATOM      1  CA  ARG D 557     -26.217   2.705 -17.014  1.00 35.49     0.159 C 
ENDROOT
BRANCH   1   2
ATOM      2  CB  ARG D 557     -26.789   1.319 -17.183  1.00 35.49     0.034 C 
BRANCH   2   3
ATOM      3  CG  ARG D 557     -25.856   0.196 -17.032  1.00 35.49     0.027 C 
BRANCH   3   4
ATOM      4  CD  ARG D 557     -26.149  -0.626 -15.836  1.00 35.49     0.116 C 
BRANCH   4   5
ATOM      5  NE  ARG D 557     -25.019  -0.718 -14.951  1.00 35.49    -0.212 N 
ATOM      6  CZ  ARG D 557     -24.634  -1.797 -14.306  1.00 35.49     0.666 C 
ATOM      7  NH1 ARG D 557     -25.280  -2.946 -14.398  1.00 35.49    -0.235 N 
ATOM      8  NH2 ARG D 557     -23.571  -1.705 -13.561  1.00 35.49    -0.235 N 
ATOM      9  HH  ARG D 557     -25.980  -3.030 -14.884  1.00 35.49     0.174 HD
ATOM     10  HH  ARG D 557     -24.981  -3.616 -13.956  1.00 35.49     0.174 HD
ATOM     11  HH  ARG D 557     -23.171  -0.953 -13.527  1.00 35.49     0.174 HD
ATOM     12  HH  ARG D 557     -23.290  -2.381 -13.133  1.00 35.49     0.174 HD
ATOM     13  HE  ARG D 557     -24.588  -0.006 -14.777  1.00 35.49     0.178 HD
ENDBRANCH   4   5
ENDBRANCH   3   4
ENDBRANCH   2   3
ENDBRANCH   1   2
END_RES ARG D 557
BEGIN_RES GLU D 570
REMARK  3 active torsions:
REMARK  status: ('A' for Active; 'I' for Inactive)
REMARK    5  A    between atoms: CA   and  CB  
REMARK    6  A    between atoms: CB   and  CG  
REMARK    7  A    between atoms: CG   and  CD  
ROOT
ATOM     14  CA  GLU D 570     -18.033  -6.348 -13.375  1.00 32.92     0.160 C 
ENDROOT
BRANCH  14  15
ATOM     15  CB  GLU D 570     -19.500  -6.345 -13.794  1.00 32.92     0.043 C 
BRANCH  15  16
ATOM     16  CG  GLU D 570     -20.429  -5.475 -13.028  1.00 32.92     0.100 C 
BRANCH  16  17
ATOM     17  CD  GLU D 570     -21.786  -5.344 -13.679  1.00 32.92     0.185 C 
ATOM     18  OE1 GLU D 570     -22.569  -4.464 -13.274  1.00 32.92    -0.647 OA
ATOM     19  OE2 GLU D 570     -22.075  -6.141 -14.593  1.00 32.92    -0.647 OA
ENDBRANCH  16  17
ENDBRANCH  15  16
ENDBRANCH  14  15
END_RES GLU D 570
ENDMDL
MODEL 8
REMARK VINA RESULT:      -5.8      7.398     10.520
REMARK  11 active torsions:
REMARK  status: ('A' for Active; 'I' for Inactive)
REMARK    1  A    between atoms: C_1  and  C_2 
REMARK    2  A    between atoms: C_1  and  C_9 
REMARK    3  A    between atoms: C_2  and  C_3 
REMARK    4  A    between atoms: C_3  and  C_4 
REMARK    5  A    between atoms: C_4  and  C_5 
REMARK    6  A    between atoms: C_5  and  C_6 
REMARK    7  A    between atoms: C_6  and  O_8 
REMARK    8  A    between atoms: C_9  and  C_10 
REMARK    9  A    between atoms: C_10  and  C_11 
REMARK   10  A    between atoms: C_11  and  C_12 
REMARK   11  A    between atoms: C_12  and  O_14 
ROOT
HETATM    1  C   UNL     1     -20.077  -4.806 -10.447  1.00  0.00     0.000 C 
ENDROOT
BRANCH   1   2
HETATM    2  C   UNL     1     -19.877  -4.473  -8.966  1.00  0.00     0.000 C 
BRANCH   2   3
HETATM    3  C   UNL     1     -21.086  -4.831  -8.099  1.00  0.00     0.001 C 
BRANCH   3   4
HETATM    4  C   UNL     1     -22.140  -3.725  -8.129  1.00  0.00     0.010 C 
BRANCH   4   5
HETATM    5  C   UNL     1     -23.547  -4.300  -7.974  1.00  0.00     0.110 C 
BRANCH   5   6
HETATM    6  C   UNL     1     -24.379  -4.078  -9.214  1.00  0.00     0.139 C 
HETATM    7  O   UNL     1     -24.547  -4.890 -10.110  1.00  0.00    -0.650 OA
BRANCH   6   8
HETATM    8  O   UNL     1     -24.948  -2.850  -9.238  1.00  0.00    -0.776 OA
HETATM    9  H   UNL     1     -24.806  -2.367 -10.073  1.00  0.00     0.167 HD
ENDBRANCH   6   8
ENDBRANCH   5   6
ENDBRANCH   4   5
ENDBRANCH   3   4
ENDBRANCH   2   3
ENDBRANCH   1   2
BRANCH   1  10
HETATM   10  C   UNL     1     -20.465  -3.589 -11.291  1.00  0.00     0.001 C 
BRANCH  10  11
HETATM   11  C   UNL     1     -21.793  -3.814 -12.011  1.00  0.00     0.010 C 
BRANCH  11  12
HETATM   12  C   UNL     1     -22.662  -2.559 -11.966  1.00  0.00     0.110 C 
BRANCH  12  13
HETATM   13  C   UNL     1     -23.812  -2.640 -12.942  1.00  0.00     0.139 C 
HETATM   14  O   UNL     1     -23.734  -2.449 -14.145  1.00  0.00    -0.650 OA
BRANCH  13  15
HETATM   15  O   UNL     1     -24.978  -2.960 -12.335  1.00  0.00    -0.776 OA
HETATM   16  H   UNL     1     -25.697  -3.183 -12.955  1.00  0.00     0.167 HD
ENDBRANCH  13  15
ENDBRANCH  12  13
ENDBRANCH  11  12
ENDBRANCH  10  11
ENDBRANCH   1  10
TORSDOF 11
BEGIN_RES ARG D 557
REMARK  4 active torsions:
REMARK  status: ('A' for Active; 'I' for Inactive)
REMARK    1  A    between atoms: CA   and  CB  
REMARK    2  A    between atoms: CB   and  CG  
REMARK    3  A    between atoms: CG   and  CD  
REMARK    4  A    between atoms: CD   and  NE  
REMARK       I    between atoms: NE   and  CZ  
REMARK       I    between atoms: CZ   and  NH1 
REMARK       I    between atoms: CZ   and  NH2 
ROOT
ATOM      1  CA  ARG D 557     -26.217   2.705 -17.014  1.00 35.49     0.159 C 
ENDROOT
BRANCH   1   2
ATOM      2  CB  ARG D 557     -26.789   1.319 -17.183  1.00 35.49     0.034 C 
BRANCH   2   3
ATOM      3  CG  ARG D 557     -26.175   0.249 -16.387  1.00 35.49     0.027 C 
BRANCH   3   4
ATOM      4  CD  ARG D 557     -27.097  -0.888 -16.163  1.00 35.49     0.116 C 
BRANCH   4   5
ATOM      5  NE  ARG D 557     -26.435  -2.010 -15.553  1.00 35.49    -0.212 N 
ATOM      6  CZ  ARG D 557     -26.795  -3.269 -15.668  1.00 35.49     0.666 C 
ATOM      7  NH1 ARG D 557     -27.848  -3.645 -16.370  1.00 35.49    -0.235 N 
ATOM      8  NH2 ARG D 557     -26.064  -4.160 -15.062  1.00 35.49    -0.235 N 
ATOM      9  HH  ARG D 557     -28.341  -3.076 -16.779  1.00 35.49     0.174 HD
ATOM     10  HH  ARG D 557     -28.032  -4.480 -16.412  1.00 35.49     0.174 HD
ATOM     11  HH  ARG D 557     -25.386  -3.889 -14.622  1.00 35.49     0.174 HD
ATOM     12  HH  ARG D 557     -26.262  -4.983 -15.117  1.00 35.49     0.174 HD
ATOM     13  HE  ARG D 557     -25.789  -1.853 -15.023  1.00 35.49     0.178 HD
ENDBRANCH   4   5
ENDBRANCH   3   4
ENDBRANCH   2   3
ENDBRANCH   1   2
END_RES ARG D 557
BEGIN_RES GLU D 570
REMARK  3 active torsions:
REMARK  status: ('A' for Active; 'I' for Inactive)
REMARK    5  A    between atoms: CA   and  CB  
REMARK    6  A    between atoms: CB   and  CG  
REMARK    7  A    between atoms: CG   and  CD  
ROOT
ATOM     14  CA  GLU D 570     -18.033  -6.348 -13.375  1.00 32.92     0.160 C 
ENDROOT
BRANCH  14  15
ATOM     15  CB  GLU D 570     -19.500  -6.345 -13.794  1.00 32.92     0.043 C 
BRANCH  15  16
ATOM     16  CG  GLU D 570     -19.812  -5.947 -15.191  1.00 32.92     0.100 C 
BRANCH  16  17
ATOM     17  CD  GLU D 570     -21.285  -5.700 -15.418  1.00 32.92     0.185 C 
ATOM     18  OE1 GLU D 570     -22.090  -6.634 -15.239  1.00 32.92    -0.647 OA
ATOM     19  OE2 GLU D 570     -21.637  -4.565 -15.796  1.00 32.92    -0.647 OA
ENDBRANCH  16  17
ENDBRANCH  15  16
ENDBRANCH  14  15
END_RES GLU D 570
ENDMDL
MODEL 9
REMARK VINA RESULT:      -5.7      2.739      3.677
REMARK  11 active torsions:
REMARK  status: ('A' for Active; 'I' for Inactive)
REMARK    1  A    between atoms: C_1  and  C_2 
REMARK    2  A    between atoms: C_1  and  C_9 
REMARK    3  A    between atoms: C_2  and  C_3 
REMARK    4  A    between atoms: C_3  and  C_4 
REMARK    5  A    between atoms: C_4  and  C_5 
REMARK    6  A    between atoms: C_5  and  C_6 
REMARK    7  A    between atoms: C_6  and  O_8 
REMARK    8  A    between atoms: C_9  and  C_10 
REMARK    9  A    between atoms: C_10  and  C_11 
REMARK   10  A    between atoms: C_11  and  C_12 
REMARK   11  A    between atoms: C_12  and  O_14 
ROOT
HETATM    1  C   UNL     1     -34.965  -1.985 -10.729  1.00  0.00     0.000 C 
ENDROOT
BRANCH   1   2
HETATM    2  C   UNL     1     -35.587  -1.247 -11.918  1.00  0.00     0.000 C 
BRANCH   2   3
HETATM    3  C   UNL     1     -36.566  -0.148 -11.500  1.00  0.00     0.001 C 
BRANCH   3   4
HETATM    4  C   UNL     1     -37.113  -0.396 -10.095  1.00  0.00     0.010 C 
BRANCH   4   5
HETATM    5  C   UNL     1     -37.450   0.919  -9.394  1.00  0.00     0.110 C 
BRANCH   5   6
HETATM    6  C   UNL     1     -36.718   1.054  -8.081  1.00  0.00     0.139 C 
HETATM    7  O   UNL     1     -37.038   1.794  -7.165  1.00  0.00    -0.650 OA
BRANCH   6   8
HETATM    8  O   UNL     1     -35.636   0.243  -8.010  1.00  0.00    -0.776 OA
HETATM    9  H   UNL     1     -35.691  -0.536  -8.593  1.00  0.00     0.167 HD
ENDBRANCH   6   8
ENDBRANCH   5   6
ENDBRANCH   4   5
ENDBRANCH   3   4
ENDBRANCH   2   3
ENDBRANCH   1   2
BRANCH   1  10
HETATM   10  C   UNL     1     -33.453  -2.180 -10.865  1.00  0.00     0.001 C 
BRANCH  10  11
HETATM   11  C   UNL     1     -33.108  -3.625 -11.215  1.00  0.00     0.010 C 
BRANCH  11  12
HETATM   12  C   UNL     1     -34.151  -4.590 -10.656  1.00  0.00     0.110 C 
BRANCH  12  13
HETATM   13  C   UNL     1     -34.663  -5.536 -11.717  1.00  0.00     0.139 C 
HETATM   14  O   UNL     1     -35.125  -5.204 -12.797  1.00  0.00    -0.650 OA
BRANCH  13  15
HETATM   15  O   UNL     1     -34.553  -6.833 -11.345  1.00  0.00    -0.776 OA
HETATM   16  H   UNL     1     -35.405  -7.251 -11.123  1.00  0.00     0.167 HD
ENDBRANCH  13  15
ENDBRANCH  12  13
ENDBRANCH  11  12
ENDBRANCH  10  11
ENDBRANCH   1  10
TORSDOF 11
BEGIN_RES ARG D 557
REMARK  4 active torsions:
REMARK  status: ('A' for Active; 'I' for Inactive)
REMARK    1  A    between atoms: CA   and  CB  
REMARK    2  A    between atoms: CB   and  CG  
REMARK    3  A    between atoms: CG   and  CD  
REMARK    4  A    between atoms: CD   and  NE  
REMARK       I    between atoms: NE   and  CZ  
REMARK       I    between atoms: CZ   and  NH1 
REMARK       I    between atoms: CZ   and  NH2 
ROOT
ATOM      1  CA  ARG D 557     -26.217   2.705 -17.014  1.00 35.49     0.159 C 
ENDROOT
BRANCH   1   2
ATOM      2  CB  ARG D 557     -26.789   1.319 -17.183  1.00 35.49     0.034 C 
BRANCH   2   3
ATOM      3  CG  ARG D 557     -25.837   0.202 -17.142  1.00 35.49     0.027 C 
BRANCH   3   4
ATOM      4  CD  ARG D 557     -24.761   0.414 -16.147  1.00 35.49     0.116 C 
BRANCH   4   5
ATOM      5  NE  ARG D 557     -24.907  -0.441 -14.999  1.00 35.49    -0.212 N 
ATOM      6  CZ  ARG D 557     -24.101  -1.423 -14.665  1.00 35.49     0.666 C 
ATOM      7  NH1 ARG D 557     -23.042  -1.747 -15.384  1.00 35.49    -0.235 N 
ATOM      8  NH2 ARG D 557     -24.375  -2.081 -13.576  1.00 35.49    -0.235 N 
ATOM      9  HH  ARG D 557     -22.841  -1.326 -16.102  1.00 35.49     0.174 HD
ATOM     10  HH  ARG D 557     -22.551  -2.395 -15.115  1.00 35.49     0.174 HD
ATOM     11  HH  ARG D 557     -25.062  -1.845 -13.128  1.00 35.49     0.174 HD
ATOM     12  HH  ARG D 557     -23.876  -2.719 -13.326  1.00 35.49     0.174 HD
ATOM     13  HE  ARG D 557     -25.604  -0.349 -14.519  1.00 35.49     0.178 HD
ENDBRANCH   4   5
ENDBRANCH   3   4
ENDBRANCH   2   3
ENDBRANCH   1   2
END_RES ARG D 557
BEGIN_RES GLU D 570
REMARK  3 active torsions:
REMARK  status: ('A' for Active; 'I' for Inactive)
REMARK    5  A    between atoms: CA   and  CB  
REMARK    6  A    between atoms: CB   and  CG  
REMARK    7  A    between atoms: CG   and  CD  
ROOT
ATOM     14  CA  GLU D 570     -18.033  -6.348 -13.375  1.00 32.92     0.160 C 
ENDROOT
BRANCH  14  15
ATOM     15  CB  GLU D 570     -19.500  -6.345 -13.794  1.00 32.92     0.043 C 
BRANCH  15  16
ATOM     16  CG  GLU D 570     -20.451  -5.576 -12.951  1.00 32.92     0.100 C 
BRANCH  16  17
ATOM     17  CD  GLU D 570     -21.731  -5.227 -13.674  1.00 32.92     0.185 C 
ATOM     18  OE1 GLU D 570     -22.203  -4.081 -13.551  1.00 32.92    -0.647 OA
ATOM     19  OE2 GLU D 570     -22.277  -6.116 -14.358  1.00 32.92    -0.647 OA
ENDBRANCH  16  17
ENDBRANCH  15  16
ENDBRANCH  14  15
END_RES GLU D 570
ENDMDL
