MODEL 1
REMARK VINA RESULT:      -6.1      0.000      0.000
REMARK  6 active torsions:
REMARK  status: ('A' for Active; 'I' for Inactive)
REMARK    1  A    between atoms: C_5  and  C_6 
REMARK    2  A    between atoms: C_6  and  C_7 
REMARK    3  A    between atoms: C_7  and  C_8 
REMARK    4  A    between atoms: C_8  and  C_9 
REMARK    5  A    between atoms: C_9  and  C_10 
REMARK    6  A    between atoms: C_10  and  O_12 
ROOT
HETATM    1  C   UNL     1     -23.779  -4.830 -13.904  1.00  0.00     0.002 C 
ENDROOT
BRANCH   1   2
HETATM    2  C   UNL     1     -22.446  -4.515 -13.219  1.00  0.00     0.016 C 
BRANCH   2   3
HETATM    3  C   UNL     1     -22.505  -3.256 -12.339  1.00  0.00     0.059 C 
HETATM    4  C   UNL     1     -21.361  -3.113 -11.326  1.00  0.00     0.027 C 
HETATM    5  C   UNL     1     -21.440  -4.200 -10.257  1.00  0.00     0.087 C 
HETATM    6  S   UNL     1     -23.169  -4.330  -9.727  1.00  0.00    -0.097 SA
HETATM    7  S   UNL     1     -24.003  -3.308 -11.301  1.00  0.00    -0.093 SA
ENDBRANCH   2   3
ENDBRANCH   1   2
BRANCH   1   8
HETATM    8  C   UNL     1     -23.765  -6.244 -14.486  1.00  0.00     0.010 C 
BRANCH   8   9
HETATM    9  C   UNL     1     -24.881  -6.445 -15.509  1.00  0.00     0.110 C 
BRANCH   9  10
HETATM   10  C   UNL     1     -24.399  -7.240 -16.699  1.00  0.00     0.139 C 
HETATM   11  O   UNL     1     -24.256  -6.806 -17.830  1.00  0.00    -0.650 OA
BRANCH  10  12
HETATM   12  O   UNL     1     -24.134  -8.529 -16.383  1.00  0.00    -0.776 OA
HETATM   13  H   UNL     1     -23.243  -8.670 -16.011  1.00  0.00     0.167 HD
ENDBRANCH  10  12
ENDBRANCH   9  10
ENDBRANCH   8   9
ENDBRANCH   1   8
TORSDOF 6
BEGIN_RES ARG D 557
REMARK  4 active torsions:
REMARK  status: ('A' for Active; 'I' for Inactive)
REMARK    1  A    between atoms: CA   and  CB  
REMARK    2  A    between atoms: CB   and  CG  
REMARK    3  A    between atoms: CG   and  CD  
REMARK    4  A    between atoms: CD   and  NE  
REMARK       I    between atoms: NE   and  CZ  
REMARK       I    between atoms: CZ   and  NH1 
REMARK       I    between atoms: CZ   and  NH2 
ROOT
ATOM      1  CA  ARG D 557     -26.217   2.705 -17.014  1.00 35.49     0.159 C 
ENDROOT
BRANCH   1   2
ATOM      2  CB  ARG D 557     -26.789   1.319 -17.183  1.00 35.49     0.034 C 
BRANCH   2   3
ATOM      3  CG  ARG D 557     -28.219   1.155 -16.896  1.00 35.49     0.027 C 
BRANCH   3   4
ATOM      4  CD  ARG D 557     -28.603  -0.266 -16.733  1.00 35.49     0.116 C 
BRANCH   4   5
ATOM      5  NE  ARG D 557     -27.604  -1.018 -16.020  1.00 35.49    -0.212 N 
ATOM      6  CZ  ARG D 557     -27.430  -2.319 -16.086  1.00 35.49     0.666 C 
ATOM      7  NH1 ARG D 557     -28.192  -3.100 -16.830  1.00 35.49    -0.235 N 
ATOM      8  NH2 ARG D 557     -26.460  -2.832 -15.386  1.00 35.49    -0.235 N 
ATOM      9  HH  ARG D 557     -28.835  -2.784 -17.301  1.00 35.49     0.174 HD
ATOM     10  HH  ARG D 557     -28.030  -3.941 -16.836  1.00 35.49     0.174 HD
ATOM     11  HH  ARG D 557     -25.980  -2.303 -14.920  1.00 35.49     0.174 HD
ATOM     12  HH  ARG D 557     -26.315  -3.667 -15.406  1.00 35.49     0.174 HD
ATOM     13  HE  ARG D 557     -27.116  -0.604 -15.460  1.00 35.49     0.178 HD
ENDBRANCH   4   5
ENDBRANCH   3   4
ENDBRANCH   2   3
ENDBRANCH   1   2
END_RES ARG D 557
BEGIN_RES GLU D 570
REMARK  3 active torsions:
REMARK  status: ('A' for Active; 'I' for Inactive)
REMARK    5  A    between atoms: CA   and  CB  
REMARK    6  A    between atoms: CB   and  CG  
REMARK    7  A    between atoms: CG   and  CD  
ROOT
ATOM     14  CA  GLU D 570     -18.033  -6.348 -13.375  1.00 32.92     0.160 C 
ENDROOT
BRANCH  14  15
ATOM     15  CB  GLU D 570     -19.500  -6.345 -13.794  1.00 32.92     0.043 C 
BRANCH  15  16
ATOM     16  CG  GLU D 570     -20.086  -7.634 -14.245  1.00 32.92     0.100 C 
BRANCH  16  17
ATOM     17  CD  GLU D 570     -20.671  -7.560 -15.636  1.00 32.92     0.185 C 
ATOM     18  OE1 GLU D 570     -20.670  -6.469 -16.236  1.00 32.92    -0.647 OA
ATOM     19  OE2 GLU D 570     -21.152  -8.602 -16.123  1.00 32.92    -0.647 OA
ENDBRANCH  16  17
ENDBRANCH  15  16
ENDBRANCH  14  15
END_RES GLU D 570
ENDMDL
MODEL 2
REMARK VINA RESULT:      -6.0      2.512      3.394
REMARK  6 active torsions:
REMARK  status: ('A' for Active; 'I' for Inactive)
REMARK    1  A    between atoms: C_5  and  C_6 
REMARK    2  A    between atoms: C_6  and  C_7 
REMARK    3  A    between atoms: C_7  and  C_8 
REMARK    4  A    between atoms: C_8  and  C_9 
REMARK    5  A    between atoms: C_9  and  C_10 
REMARK    6  A    between atoms: C_10  and  O_12 
ROOT
HETATM    1  C   UNL     1     -22.825  -2.579 -12.190  1.00  0.00     0.002 C 
ENDROOT
BRANCH   1   2
HETATM    2  C   UNL     1     -21.579  -2.951 -11.379  1.00  0.00     0.016 C 
BRANCH   2   3
HETATM    3  C   UNL     1     -21.644  -4.371 -10.794  1.00  0.00     0.059 C 
HETATM    4  C   UNL     1     -22.988  -4.754 -10.160  1.00  0.00     0.027 C 
HETATM    5  C   UNL     1     -23.256  -3.927  -8.906  1.00  0.00     0.087 C 
HETATM    6  S   UNL     1     -21.725  -3.883  -7.935  1.00  0.00    -0.097 SA
HETATM    7  S   UNL     1     -20.456  -4.519  -9.420  1.00  0.00    -0.093 SA
ENDBRANCH   2   3
ENDBRANCH   1   2
BRANCH   1   8
HETATM    8  C   UNL     1     -22.802  -3.263 -13.557  1.00  0.00     0.010 C 
BRANCH   8   9
HETATM    9  C   UNL     1     -23.235  -2.312 -14.671  1.00  0.00     0.110 C 
BRANCH   9  10
HETATM   10  C   UNL     1     -24.664  -1.861 -14.486  1.00  0.00     0.139 C 
HETATM   11  O   UNL     1     -25.609  -2.588 -14.234  1.00  0.00    -0.650 OA
BRANCH  10  12
HETATM   12  O   UNL     1     -24.804  -0.522 -14.634  1.00  0.00    -0.776 OA
HETATM   13  H   UNL     1     -25.731  -0.228 -14.711  1.00  0.00     0.167 HD
ENDBRANCH  10  12
ENDBRANCH   9  10
ENDBRANCH   8   9
ENDBRANCH   1   8
TORSDOF 6
BEGIN_RES ARG D 557
REMARK  4 active torsions:
REMARK  status: ('A' for Active; 'I' for Inactive)
REMARK    1  A    between atoms: CA   and  CB  
REMARK    2  A    between atoms: CB   and  CG  
REMARK    3  A    between atoms: CG   and  CD  
REMARK    4  A    between atoms: CD   and  NE  
REMARK       I    between atoms: NE   and  CZ  
REMARK       I    between atoms: CZ   and  NH1 
REMARK       I    between atoms: CZ   and  NH2 
ROOT
ATOM      1  CA  ARG D 557     -26.217   2.705 -17.014  1.00 35.49     0.159 C 
ENDROOT
BRANCH   1   2
ATOM      2  CB  ARG D 557     -26.789   1.319 -17.183  1.00 35.49     0.034 C 
BRANCH   2   3
ATOM      3  CG  ARG D 557     -28.236   1.225 -17.410  1.00 35.49     0.027 C 
BRANCH   3   4
ATOM      4  CD  ARG D 557     -28.893   0.280 -16.478  1.00 35.49     0.116 C 
BRANCH   4   5
ATOM      5  NE  ARG D 557     -29.328  -0.921 -17.140  1.00 35.49    -0.212 N 
ATOM      6  CZ  ARG D 557     -28.738  -2.093 -17.070  1.00 35.49     0.666 C 
ATOM      7  NH1 ARG D 557     -27.636  -2.292 -16.370  1.00 35.49    -0.235 N 
ATOM      8  NH2 ARG D 557     -29.284  -3.080 -17.719  1.00 35.49    -0.235 N 
ATOM      9  HH  ARG D 557     -27.261  -1.657 -15.933  1.00 35.49     0.174 HD
ATOM     10  HH  ARG D 557     -27.297  -3.079 -16.359  1.00 35.49     0.174 HD
ATOM     11  HH  ARG D 557     -29.999  -2.924 -18.157  1.00 35.49     0.174 HD
ATOM     12  HH  ARG D 557     -28.934  -3.852 -17.695  1.00 35.49     0.174 HD
ATOM     13  HE  ARG D 557     -29.990  -0.867 -17.671  1.00 35.49     0.178 HD
ENDBRANCH   4   5
ENDBRANCH   3   4
ENDBRANCH   2   3
ENDBRANCH   1   2
END_RES ARG D 557
BEGIN_RES GLU D 570
REMARK  3 active torsions:
REMARK  status: ('A' for Active; 'I' for Inactive)
REMARK    5  A    between atoms: CA   and  CB  
REMARK    6  A    between atoms: CB   and  CG  
REMARK    7  A    between atoms: CG   and  CD  
ROOT
ATOM     14  CA  GLU D 570     -18.033  -6.348 -13.375  1.00 32.92     0.160 C 
ENDROOT
BRANCH  14  15
ATOM     15  CB  GLU D 570     -19.500  -6.345 -13.794  1.00 32.92     0.043 C 
BRANCH  15  16
ATOM     16  CG  GLU D 570     -19.800  -6.149 -15.236  1.00 32.92     0.100 C 
BRANCH  16  17
ATOM     17  CD  GLU D 570     -20.625  -7.269 -15.824  1.00 32.92     0.185 C 
ATOM     18  OE1 GLU D 570     -20.606  -8.388 -15.275  1.00 32.92    -0.647 OA
ATOM     19  OE2 GLU D 570     -21.285  -7.031 -16.855  1.00 32.92    -0.647 OA
ENDBRANCH  16  17
ENDBRANCH  15  16
ENDBRANCH  14  15
END_RES GLU D 570
ENDMDL
MODEL 3
REMARK VINA RESULT:      -5.9      3.427      4.567
REMARK  6 active torsions:
REMARK  status: ('A' for Active; 'I' for Inactive)
REMARK    1  A    between atoms: C_5  and  C_6 
REMARK    2  A    between atoms: C_6  and  C_7 
REMARK    3  A    between atoms: C_7  and  C_8 
REMARK    4  A    between atoms: C_8  and  C_9 
REMARK    5  A    between atoms: C_9  and  C_10 
REMARK    6  A    between atoms: C_10  and  O_12 
ROOT
HETATM    1  C   UNL     1     -20.517  -3.847 -10.748  1.00  0.00     0.002 C 
ENDROOT
BRANCH   1   2
HETATM    2  C   UNL     1     -20.485  -4.746  -9.509  1.00  0.00     0.016 C 
BRANCH   2   3
HETATM    3  C   UNL     1     -20.035  -4.004  -8.240  1.00  0.00     0.059 C 
HETATM    4  C   UNL     1     -19.072  -4.785  -7.334  1.00  0.00     0.027 C 
HETATM    5  C   UNL     1     -19.765  -5.995  -6.715  1.00  0.00     0.087 C 
HETATM    6  S   UNL     1     -21.396  -5.459  -6.131  1.00  0.00    -0.097 SA
HETATM    7  S   UNL     1     -21.480  -3.692  -7.173  1.00  0.00    -0.093 SA
ENDBRANCH   2   3
ENDBRANCH   1   2
BRANCH   1   8
HETATM    8  C   UNL     1     -21.924  -3.295 -10.979  1.00  0.00     0.010 C 
BRANCH   8   9
HETATM    9  C   UNL     1     -22.999  -4.283 -10.532  1.00  0.00     0.110 C 
BRANCH   9  10
HETATM   10  C   UNL     1     -24.307  -3.582 -10.249  1.00  0.00     0.139 C 
HETATM   11  O   UNL     1     -25.092  -3.182 -11.091  1.00  0.00    -0.650 OA
BRANCH  10  12
HETATM   12  O   UNL     1     -24.532  -3.432  -8.923  1.00  0.00    -0.776 OA
HETATM   13  H   UNL     1     -23.937  -3.959  -8.359  1.00  0.00     0.167 HD
ENDBRANCH  10  12
ENDBRANCH   9  10
ENDBRANCH   8   9
ENDBRANCH   1   8
TORSDOF 6
BEGIN_RES ARG D 557
REMARK  4 active torsions:
REMARK  status: ('A' for Active; 'I' for Inactive)
REMARK    1  A    between atoms: CA   and  CB  
REMARK    2  A    between atoms: CB   and  CG  
REMARK    3  A    between atoms: CG   and  CD  
REMARK    4  A    between atoms: CD   and  NE  
REMARK       I    between atoms: NE   and  CZ  
REMARK       I    between atoms: CZ   and  NH1 
REMARK       I    between atoms: CZ   and  NH2 
ROOT
ATOM      1  CA  ARG D 557     -26.217   2.705 -17.014  1.00 35.49     0.159 C 
ENDROOT
BRANCH   1   2
ATOM      2  CB  ARG D 557     -26.789   1.319 -17.183  1.00 35.49     0.034 C 
BRANCH   2   3
ATOM      3  CG  ARG D 557     -25.859   0.196 -17.016  1.00 35.49     0.027 C 
BRANCH   3   4
ATOM      4  CD  ARG D 557     -26.221  -0.671 -15.872  1.00 35.49     0.116 C 
BRANCH   4   5
ATOM      5  NE  ARG D 557     -25.111  -0.886 -14.981  1.00 35.49    -0.212 N 
ATOM      6  CZ  ARG D 557     -24.895  -1.970 -14.271  1.00 35.49     0.666 C 
ATOM      7  NH1 ARG D 557     -25.712  -3.006 -14.291  1.00 35.49    -0.235 N 
ATOM      8  NH2 ARG D 557     -23.823  -2.000 -13.532  1.00 35.49    -0.235 N 
ATOM      9  HH  ARG D 557     -26.422  -3.009 -14.772  1.00 35.49     0.174 HD
ATOM     10  HH  ARG D 557     -25.519  -3.687 -13.809  1.00 35.49     0.174 HD
ATOM     11  HH  ARG D 557     -23.310  -1.319 -13.544  1.00 35.49     0.174 HD
ATOM     12  HH  ARG D 557     -23.648  -2.684 -13.063  1.00 35.49     0.174 HD
ATOM     13  HE  ARG D 557     -24.573  -0.241 -14.851  1.00 35.49     0.178 HD
ENDBRANCH   4   5
ENDBRANCH   3   4
ENDBRANCH   2   3
ENDBRANCH   1   2
END_RES ARG D 557
BEGIN_RES GLU D 570
REMARK  3 active torsions:
REMARK  status: ('A' for Active; 'I' for Inactive)
REMARK    5  A    between atoms: CA   and  CB  
REMARK    6  A    between atoms: CB   and  CG  
REMARK    7  A    between atoms: CG   and  CD  
ROOT
ATOM     14  CA  GLU D 570     -18.033  -6.348 -13.375  1.00 32.92     0.160 C 
ENDROOT
BRANCH  14  15
ATOM     15  CB  GLU D 570     -19.500  -6.345 -13.794  1.00 32.92     0.043 C 
BRANCH  15  16
ATOM     16  CG  GLU D 570     -19.797  -6.249 -15.247  1.00 32.92     0.100 C 
BRANCH  16  17
ATOM     17  CD  GLU D 570     -20.791  -7.286 -15.715  1.00 32.92     0.185 C 
ATOM     18  OE1 GLU D 570     -21.761  -6.924 -16.408  1.00 32.92    -0.647 OA
ATOM     19  OE2 GLU D 570     -20.607  -8.470 -15.370  1.00 32.92    -0.647 OA
ENDBRANCH  16  17
ENDBRANCH  15  16
ENDBRANCH  14  15
END_RES GLU D 570
ENDMDL
MODEL 4
REMARK VINA RESULT:      -5.9      7.660      9.749
REMARK  6 active torsions:
REMARK  status: ('A' for Active; 'I' for Inactive)
REMARK    1  A    between atoms: C_5  and  C_6 
REMARK    2  A    between atoms: C_6  and  C_7 
REMARK    3  A    between atoms: C_7  and  C_8 
REMARK    4  A    between atoms: C_8  and  C_9 
REMARK    5  A    between atoms: C_9  and  C_10 
REMARK    6  A    between atoms: C_10  and  O_12 
ROOT
HETATM    1  C   UNL     1     -33.776  -2.192 -11.097  1.00  0.00     0.002 C 
ENDROOT
BRANCH   1   2
HETATM    2  C   UNL     1     -34.707  -1.775 -12.240  1.00  0.00     0.016 C 
BRANCH   2   3
HETATM    3  C   UNL     1     -34.975  -0.262 -12.275  1.00  0.00     0.059 C 
HETATM    4  C   UNL     1     -36.273   0.187 -11.590  1.00  0.00     0.027 C 
HETATM    5  C   UNL     1     -37.495  -0.327 -12.346  1.00  0.00     0.087 C 
HETATM    6  S   UNL     1     -37.208  -0.050 -14.115  1.00  0.00    -0.097 SA
HETATM    7  S   UNL     1     -35.184   0.280 -14.003  1.00  0.00    -0.093 SA
ENDBRANCH   2   3
ENDBRANCH   1   2
BRANCH   1   8
HETATM    8  C   UNL     1     -33.160  -3.563 -11.375  1.00  0.00     0.010 C 
BRANCH   8   9
HETATM    9  C   UNL     1     -33.929  -4.680 -10.673  1.00  0.00     0.110 C 
BRANCH   9  10
HETATM   10  C   UNL     1     -34.591  -5.603 -11.669  1.00  0.00     0.139 C 
HETATM   11  O   UNL     1     -35.108  -5.259 -12.719  1.00  0.00    -0.650 OA
BRANCH  10  12
HETATM   12  O   UNL     1     -34.559  -6.896 -11.272  1.00  0.00    -0.776 OA
HETATM   13  H   UNL     1     -34.873  -7.525 -11.948  1.00  0.00     0.167 HD
ENDBRANCH  10  12
ENDBRANCH   9  10
ENDBRANCH   8   9
ENDBRANCH   1   8
TORSDOF 6
BEGIN_RES ARG D 557
REMARK  4 active torsions:
REMARK  status: ('A' for Active; 'I' for Inactive)
REMARK    1  A    between atoms: CA   and  CB  
REMARK    2  A    between atoms: CB   and  CG  
REMARK    3  A    between atoms: CG   and  CD  
REMARK    4  A    between atoms: CD   and  NE  
REMARK       I    between atoms: NE   and  CZ  
REMARK       I    between atoms: CZ   and  NH1 
REMARK       I    between atoms: CZ   and  NH2 
ROOT
ATOM      1  CA  ARG D 557     -26.217   2.705 -17.014  1.00 35.49     0.159 C 
ENDROOT
BRANCH   1   2
ATOM      2  CB  ARG D 557     -26.789   1.319 -17.183  1.00 35.49     0.034 C 
BRANCH   2   3
ATOM      3  CG  ARG D 557     -25.839   0.201 -17.128  1.00 35.49     0.027 C 
BRANCH   3   4
ATOM      4  CD  ARG D 557     -24.757   0.428 -16.143  1.00 35.49     0.116 C 
BRANCH   4   5
ATOM      5  NE  ARG D 557     -24.864  -0.449 -15.007  1.00 35.49    -0.212 N 
ATOM      6  CZ  ARG D 557     -24.022  -1.409 -14.696  1.00 35.49     0.666 C 
ATOM      7  NH1 ARG D 557     -22.960  -1.686 -15.430  1.00 35.49    -0.235 N 
ATOM      8  NH2 ARG D 557     -24.264  -2.093 -13.616  1.00 35.49    -0.235 N 
ATOM      9  HH  ARG D 557     -22.780  -1.247 -16.144  1.00 35.49     0.174 HD
ATOM     10  HH  ARG D 557     -22.445  -2.322 -15.176  1.00 35.49     0.174 HD
ATOM     11  HH  ARG D 557     -24.953  -1.887 -13.158  1.00 35.49     0.174 HD
ATOM     12  HH  ARG D 557     -23.741  -2.718 -13.381  1.00 35.49     0.174 HD
ATOM     13  HE  ARG D 557     -25.558  -0.388 -14.520  1.00 35.49     0.178 HD
ENDBRANCH   4   5
ENDBRANCH   3   4
ENDBRANCH   2   3
ENDBRANCH   1   2
END_RES ARG D 557
BEGIN_RES GLU D 570
REMARK  3 active torsions:
REMARK  status: ('A' for Active; 'I' for Inactive)
REMARK    5  A    between atoms: CA   and  CB  
REMARK    6  A    between atoms: CB   and  CG  
REMARK    7  A    between atoms: CG   and  CD  
ROOT
ATOM     14  CA  GLU D 570     -18.033  -6.348 -13.375  1.00 32.92     0.160 C 
ENDROOT
BRANCH  14  15
ATOM     15  CB  GLU D 570     -19.500  -6.345 -13.794  1.00 32.92     0.043 C 
BRANCH  15  16
ATOM     16  CG  GLU D 570     -20.448  -5.558 -12.963  1.00 32.92     0.100 C 
BRANCH  16  17
ATOM     17  CD  GLU D 570     -21.642  -5.060 -13.743  1.00 32.92     0.185 C 
ATOM     18  OE1 GLU D 570     -21.584  -5.034 -14.987  1.00 32.92    -0.647 OA
ATOM     19  OE2 GLU D 570     -22.640  -4.675 -13.102  1.00 32.92    -0.647 OA
ENDBRANCH  16  17
ENDBRANCH  15  16
ENDBRANCH  14  15
END_RES GLU D 570
ENDMDL
MODEL 5
REMARK VINA RESULT:      -5.8      7.396      9.617
REMARK  6 active torsions:
REMARK  status: ('A' for Active; 'I' for Inactive)
REMARK    1  A    between atoms: C_5  and  C_6 
REMARK    2  A    between atoms: C_6  and  C_7 
REMARK    3  A    between atoms: C_7  and  C_8 
REMARK    4  A    between atoms: C_8  and  C_9 
REMARK    5  A    between atoms: C_9  and  C_10 
REMARK    6  A    between atoms: C_10  and  O_12 
ROOT
HETATM    1  C   UNL     1     -34.081  -2.100 -11.165  1.00  0.00     0.002 C 
ENDROOT
BRANCH   1   2
HETATM    2  C   UNL     1     -34.786  -1.603 -12.431  1.00  0.00     0.016 C 
BRANCH   2   3
HETATM    3  C   UNL     1     -35.309  -0.164 -12.301  1.00  0.00     0.059 C 
HETATM    4  C   UNL     1     -36.833  -0.012 -12.401  1.00  0.00     0.027 C 
HETATM    5  C   UNL     1     -37.326  -0.360 -13.802  1.00  0.00     0.087 C 
HETATM    6  S   UNL     1     -36.212   0.435 -14.993  1.00  0.00    -0.097 SA
HETATM    7  S   UNL     1     -34.680   0.840 -13.686  1.00  0.00    -0.093 SA
ENDBRANCH   2   3
ENDBRANCH   1   2
BRANCH   1   8
HETATM    8  C   UNL     1     -33.260  -3.355 -11.462  1.00  0.00     0.010 C 
BRANCH   8   9
HETATM    9  C   UNL     1     -33.819  -4.580 -10.741  1.00  0.00     0.110 C 
BRANCH   9  10
HETATM   10  C   UNL     1     -34.547  -5.496 -11.696  1.00  0.00     0.139 C 
HETATM   11  O   UNL     1     -35.091  -5.151 -12.731  1.00  0.00    -0.650 OA
BRANCH  10  12
HETATM   12  O   UNL     1     -34.542  -6.783 -11.279  1.00  0.00    -0.776 OA
HETATM   13  H   UNL     1     -33.679  -7.228 -11.379  1.00  0.00     0.167 HD
ENDBRANCH  10  12
ENDBRANCH   9  10
ENDBRANCH   8   9
ENDBRANCH   1   8
TORSDOF 6
BEGIN_RES ARG D 557
REMARK  4 active torsions:
REMARK  status: ('A' for Active; 'I' for Inactive)
REMARK    1  A    between atoms: CA   and  CB  
REMARK    2  A    between atoms: CB   and  CG  
REMARK    3  A    between atoms: CG   and  CD  
REMARK    4  A    between atoms: CD   and  NE  
REMARK       I    between atoms: NE   and  CZ  
REMARK       I    between atoms: CZ   and  NH1 
REMARK       I    between atoms: CZ   and  NH2 
ROOT
ATOM      1  CA  ARG D 557     -26.217   2.705 -17.014  1.00 35.49     0.159 C 
ENDROOT
BRANCH   1   2
ATOM      2  CB  ARG D 557     -26.789   1.319 -17.183  1.00 35.49     0.034 C 
BRANCH   2   3
ATOM      3  CG  ARG D 557     -28.231   1.226 -17.440  1.00 35.49     0.027 C 
BRANCH   3   4
ATOM      4  CD  ARG D 557     -28.914   0.306 -16.502  1.00 35.49     0.116 C 
BRANCH   4   5
ATOM      5  NE  ARG D 557     -29.285  -0.934 -17.132  1.00 35.49    -0.212 N 
ATOM      6  CZ  ARG D 557     -28.640  -2.074 -17.025  1.00 35.49     0.666 C 
ATOM      7  NH1 ARG D 557     -27.536  -2.199 -16.312  1.00 35.49    -0.235 N 
ATOM      8  NH2 ARG D 557     -29.133  -3.103 -17.650  1.00 35.49    -0.235 N 
ATOM      9  HH  ARG D 557     -27.195  -1.535 -15.891  1.00 35.49     0.174 HD
ATOM     10  HH  ARG D 557     -27.160  -2.968 -16.277  1.00 35.49     0.174 HD
ATOM     11  HH  ARG D 557     -29.851  -2.994 -18.096  1.00 35.49     0.174 HD
ATOM     12  HH  ARG D 557     -28.747  -3.857 -17.601  1.00 35.49     0.174 HD
ATOM     13  HE  ARG D 557     -29.944  -0.927 -17.669  1.00 35.49     0.178 HD
ENDBRANCH   4   5
ENDBRANCH   3   4
ENDBRANCH   2   3
ENDBRANCH   1   2
END_RES ARG D 557
BEGIN_RES GLU D 570
REMARK  3 active torsions:
REMARK  status: ('A' for Active; 'I' for Inactive)
REMARK    5  A    between atoms: CA   and  CB  
REMARK    6  A    between atoms: CB   and  CG  
REMARK    7  A    between atoms: CG   and  CD  
ROOT
ATOM     14  CA  GLU D 570     -18.033  -6.348 -13.375  1.00 32.92     0.160 C 
ENDROOT
BRANCH  14  15
ATOM     15  CB  GLU D 570     -19.500  -6.345 -13.794  1.00 32.92     0.043 C 
BRANCH  15  16
ATOM     16  CG  GLU D 570     -20.439  -5.516 -12.994  1.00 32.92     0.100 C 
BRANCH  16  17
ATOM     17  CD  GLU D 570     -21.745  -5.252 -13.706  1.00 32.92     0.185 C 
ATOM     18  OE1 GLU D 570     -22.336  -4.173 -13.507  1.00 32.92    -0.647 OA
ATOM     19  OE2 GLU D 570     -22.191  -6.141 -14.459  1.00 32.92    -0.647 OA
ENDBRANCH  16  17
ENDBRANCH  15  16
ENDBRANCH  14  15
END_RES GLU D 570
ENDMDL
MODEL 6
REMARK VINA RESULT:      -5.8      6.967      9.400
REMARK  6 active torsions:
REMARK  status: ('A' for Active; 'I' for Inactive)
REMARK    1  A    between atoms: C_5  and  C_6 
REMARK    2  A    between atoms: C_6  and  C_7 
REMARK    3  A    between atoms: C_7  and  C_8 
REMARK    4  A    between atoms: C_8  and  C_9 
REMARK    5  A    between atoms: C_9  and  C_10 
REMARK    6  A    between atoms: C_10  and  O_12 
ROOT
HETATM    1  C   UNL     1     -35.185  -0.056 -12.764  1.00  0.00     0.002 C 
ENDROOT
BRANCH   1   2
HETATM    2  C   UNL     1     -34.876  -1.555 -12.697  1.00  0.00     0.016 C 
BRANCH   2   3
HETATM    3  C   UNL     1     -34.623  -2.052 -11.264  1.00  0.00     0.059 C 
HETATM    4  C   UNL     1     -33.195  -2.543 -10.987  1.00  0.00     0.027 C 
HETATM    5  C   UNL     1     -32.891  -3.813 -11.777  1.00  0.00     0.087 C 
HETATM    6  S   UNL     1     -34.323  -4.915 -11.624  1.00  0.00    -0.097 SA
HETATM    7  S   UNL     1     -35.658  -3.515 -10.935  1.00  0.00    -0.093 SA
ENDBRANCH   2   3
ENDBRANCH   1   2
BRANCH   1   8
HETATM    8  C   UNL     1     -35.050   0.459 -14.197  1.00  0.00     0.010 C 
BRANCH   8   9
HETATM    9  C   UNL     1     -36.215   0.002 -15.073  1.00  0.00     0.110 C 
BRANCH   9  10
HETATM   10  C   UNL     1     -35.731  -0.801 -16.257  1.00  0.00     0.139 C 
HETATM   11  O   UNL     1     -34.712  -1.471 -16.290  1.00  0.00    -0.650 OA
BRANCH  10  12
HETATM   12  O   UNL     1     -36.562  -0.702 -17.320  1.00  0.00    -0.776 OA
HETATM   13  H   UNL     1     -37.066  -1.517 -17.506  1.00  0.00     0.167 HD
ENDBRANCH  10  12
ENDBRANCH   9  10
ENDBRANCH   8   9
ENDBRANCH   1   8
TORSDOF 6
BEGIN_RES ARG D 557
REMARK  4 active torsions:
REMARK  status: ('A' for Active; 'I' for Inactive)
REMARK    1  A    between atoms: CA   and  CB  
REMARK    2  A    between atoms: CB   and  CG  
REMARK    3  A    between atoms: CG   and  CD  
REMARK    4  A    between atoms: CD   and  NE  
REMARK       I    between atoms: NE   and  CZ  
REMARK       I    between atoms: CZ   and  NH1 
REMARK       I    between atoms: CZ   and  NH2 
ROOT
ATOM      1  CA  ARG D 557     -26.217   2.705 -17.014  1.00 35.49     0.159 C 
ENDROOT
BRANCH   1   2
ATOM      2  CB  ARG D 557     -26.789   1.319 -17.183  1.00 35.49     0.034 C 
BRANCH   2   3
ATOM      3  CG  ARG D 557     -28.233   1.226 -17.428  1.00 35.49     0.027 C 
BRANCH   3   4
ATOM      4  CD  ARG D 557     -28.907   0.304 -16.486  1.00 35.49     0.116 C 
BRANCH   4   5
ATOM      5  NE  ARG D 557     -29.311  -0.923 -17.122  1.00 35.49    -0.212 N 
ATOM      6  CZ  ARG D 557     -28.686  -2.075 -17.035  1.00 35.49     0.666 C 
ATOM      7  NH1 ARG D 557     -27.574  -2.228 -16.339  1.00 35.49    -0.235 N 
ATOM      8  NH2 ARG D 557     -29.207  -3.090 -17.662  1.00 35.49    -0.235 N 
ATOM      9  HH  ARG D 557     -27.215  -1.575 -15.917  1.00 35.49     0.174 HD
ATOM     10  HH  ARG D 557     -27.212  -3.004 -16.316  1.00 35.49     0.174 HD
ATOM     11  HH  ARG D 557     -29.929  -2.963 -18.097  1.00 35.49     0.174 HD
ATOM     12  HH  ARG D 557     -28.834  -3.851 -17.625  1.00 35.49     0.174 HD
ATOM     13  HE  ARG D 557     -29.978  -0.898 -17.650  1.00 35.49     0.178 HD
ENDBRANCH   4   5
ENDBRANCH   3   4
ENDBRANCH   2   3
ENDBRANCH   1   2
END_RES ARG D 557
BEGIN_RES GLU D 570
REMARK  3 active torsions:
REMARK  status: ('A' for Active; 'I' for Inactive)
REMARK    5  A    between atoms: CA   and  CB  
REMARK    6  A    between atoms: CB   and  CG  
REMARK    7  A    between atoms: CG   and  CD  
ROOT
ATOM     14  CA  GLU D 570     -18.033  -6.348 -13.375  1.00 32.92     0.160 C 
ENDROOT
BRANCH  14  15
ATOM     15  CB  GLU D 570     -19.500  -6.345 -13.794  1.00 32.92     0.043 C 
BRANCH  15  16
ATOM     16  CG  GLU D 570     -20.430  -5.477 -13.026  1.00 32.92     0.100 C 
BRANCH  16  17
ATOM     17  CD  GLU D 570     -21.715  -5.189 -13.766  1.00 32.92     0.185 C 
ATOM     18  OE1 GLU D 570     -22.800  -5.327 -13.171  1.00 32.92    -0.647 OA
ATOM     19  OE2 GLU D 570     -21.635  -4.838 -14.960  1.00 32.92    -0.647 OA
ENDBRANCH  16  17
ENDBRANCH  15  16
ENDBRANCH  14  15
END_RES GLU D 570
ENDMDL
MODEL 7
REMARK VINA RESULT:      -5.8      3.814      5.742
REMARK  6 active torsions:
REMARK  status: ('A' for Active; 'I' for Inactive)
REMARK    1  A    between atoms: C_5  and  C_6 
REMARK    2  A    between atoms: C_6  and  C_7 
REMARK    3  A    between atoms: C_7  and  C_8 
REMARK    4  A    between atoms: C_8  and  C_9 
REMARK    5  A    between atoms: C_9  and  C_10 
REMARK    6  A    between atoms: C_10  and  O_12 
ROOT
HETATM    1  C   UNL     1     -26.892  -6.093 -16.784  1.00  0.00     0.002 C 
ENDROOT
BRANCH   1   2
HETATM    2  C   UNL     1     -28.394  -5.986 -16.502  1.00  0.00     0.016 C 
BRANCH   2   3
HETATM    3  C   UNL     1     -29.246  -5.972 -17.782  1.00  0.00     0.059 C 
HETATM    4  C   UNL     1     -29.418  -4.595 -18.437  1.00  0.00     0.027 C 
HETATM    5  C   UNL     1     -30.241  -3.666 -17.548  1.00  0.00     0.087 C 
HETATM    6  S   UNL     1     -31.661  -4.609 -16.929  1.00  0.00    -0.097 SA
HETATM    7  S   UNL     1     -30.950  -6.482 -17.384  1.00  0.00    -0.093 SA
ENDBRANCH   2   3
ENDBRANCH   1   2
BRANCH   1   8
HETATM    8  C   UNL     1     -26.193  -6.896 -15.687  1.00  0.00     0.010 C 
BRANCH   8   9
HETATM    9  C   UNL     1     -24.718  -6.521 -15.565  1.00  0.00     0.110 C 
BRANCH   9  10
HETATM   10  C   UNL     1     -23.876  -7.265 -16.575  1.00  0.00     0.139 C 
HETATM   11  O   UNL     1     -23.127  -6.752 -17.388  1.00  0.00    -0.650 OA
BRANCH  10  12
HETATM   12  O   UNL     1     -24.039  -8.606 -16.491  1.00  0.00    -0.776 OA
HETATM   13  H   UNL     1     -24.509  -8.995 -17.253  1.00  0.00     0.167 HD
ENDBRANCH  10  12
ENDBRANCH   9  10
ENDBRANCH   8   9
ENDBRANCH   1   8
TORSDOF 6
BEGIN_RES ARG D 557
REMARK  4 active torsions:
REMARK  status: ('A' for Active; 'I' for Inactive)
REMARK    1  A    between atoms: CA   and  CB  
REMARK    2  A    between atoms: CB   and  CG  
REMARK    3  A    between atoms: CG   and  CD  
REMARK    4  A    between atoms: CD   and  NE  
REMARK       I    between atoms: NE   and  CZ  
REMARK       I    between atoms: CZ   and  NH1 
REMARK       I    between atoms: CZ   and  NH2 
ROOT
ATOM      1  CA  ARG D 557     -26.217   2.705 -17.014  1.00 35.49     0.159 C 
ENDROOT
BRANCH   1   2
ATOM      2  CB  ARG D 557     -26.789   1.319 -17.183  1.00 35.49     0.034 C 
BRANCH   2   3
ATOM      3  CG  ARG D 557     -25.865   0.195 -16.990  1.00 35.49     0.027 C 
BRANCH   3   4
ATOM      4  CD  ARG D 557     -26.304  -0.717 -15.909  1.00 35.49     0.116 C 
BRANCH   4   5
ATOM      5  NE  ARG D 557     -25.270  -0.937 -14.932  1.00 35.49    -0.212 N 
ATOM      6  CZ  ARG D 557     -25.009  -2.078 -14.334  1.00 35.49     0.666 C 
ATOM      7  NH1 ARG D 557     -25.704  -3.176 -14.565  1.00 35.49    -0.235 N 
ATOM      8  NH2 ARG D 557     -24.018  -2.100 -13.490  1.00 35.49    -0.235 N 
ATOM      9  HH  ARG D 557     -26.359  -3.184 -15.118  1.00 35.49     0.174 HD
ATOM     10  HH  ARG D 557     -25.487  -3.891 -14.147  1.00 35.49     0.174 HD
ATOM     11  HH  ARG D 557     -23.582  -1.378 -13.365  1.00 35.49     0.174 HD
ATOM     12  HH  ARG D 557     -23.818  -2.819 -13.087  1.00 35.49     0.174 HD
ATOM     13  HE  ARG D 557     -24.819  -0.266 -14.669  1.00 35.49     0.178 HD
ENDBRANCH   4   5
ENDBRANCH   3   4
ENDBRANCH   2   3
ENDBRANCH   1   2
END_RES ARG D 557
BEGIN_RES GLU D 570
REMARK  3 active torsions:
REMARK  status: ('A' for Active; 'I' for Inactive)
REMARK    5  A    between atoms: CA   and  CB  
REMARK    6  A    between atoms: CB   and  CG  
REMARK    7  A    between atoms: CG   and  CD  
ROOT
ATOM     14  CA  GLU D 570     -18.033  -6.348 -13.375  1.00 32.92     0.160 C 
ENDROOT
BRANCH  14  15
ATOM     15  CB  GLU D 570     -19.500  -6.345 -13.794  1.00 32.92     0.043 C 
BRANCH  15  16
ATOM     16  CG  GLU D 570     -20.449  -5.563 -12.960  1.00 32.92     0.100 C 
BRANCH  16  17
ATOM     17  CD  GLU D 570     -21.659  -5.089 -13.731  1.00 32.92     0.185 C 
ATOM     18  OE1 GLU D 570     -22.701  -4.809 -13.108  1.00 32.92    -0.647 OA
ATOM     19  OE2 GLU D 570     -21.568  -5.012 -14.972  1.00 32.92    -0.647 OA
ENDBRANCH  16  17
ENDBRANCH  15  16
ENDBRANCH  14  15
END_RES GLU D 570
ENDMDL
MODEL 8
REMARK VINA RESULT:      -5.7      2.922      3.975
REMARK  6 active torsions:
REMARK  status: ('A' for Active; 'I' for Inactive)
REMARK    1  A    between atoms: C_5  and  C_6 
REMARK    2  A    between atoms: C_6  and  C_7 
REMARK    3  A    between atoms: C_7  and  C_8 
REMARK    4  A    between atoms: C_8  and  C_9 
REMARK    5  A    between atoms: C_9  and  C_10 
REMARK    6  A    between atoms: C_10  and  O_12 
ROOT
HETATM    1  C   UNL     1     -20.831  -3.708 -11.141  1.00  0.00     0.002 C 
ENDROOT
BRANCH   1   2
HETATM    2  C   UNL     1     -20.662  -4.617  -9.920  1.00  0.00     0.016 C 
BRANCH   2   3
HETATM    3  C   UNL     1     -20.350  -3.839  -8.631  1.00  0.00     0.059 C 
HETATM    4  C   UNL     1     -19.261  -4.456  -7.743  1.00  0.00     0.027 C 
HETATM    5  C   UNL     1     -19.723  -5.787  -7.157  1.00  0.00     0.087 C 
HETATM    6  S   UNL     1     -21.423  -5.568  -6.563  1.00  0.00    -0.097 SA
HETATM    7  S   UNL     1     -21.825  -3.819  -7.560  1.00  0.00    -0.093 SA
ENDBRANCH   2   3
ENDBRANCH   1   2
BRANCH   1   8
HETATM    8  C   UNL     1     -22.043  -4.139 -11.969  1.00  0.00     0.010 C 
BRANCH   8   9
HETATM    9  C   UNL     1     -23.245  -4.464 -11.086  1.00  0.00     0.110 C 
BRANCH   9  10
HETATM   10  C   UNL     1     -24.266  -3.351 -11.115  1.00  0.00     0.139 C 
HETATM   11  O   UNL     1     -25.193  -3.220 -10.334  1.00  0.00    -0.650 OA
BRANCH  10  12
HETATM   12  O   UNL     1     -24.050  -2.482 -12.130  1.00  0.00    -0.776 OA
HETATM   13  H   UNL     1     -24.515  -2.714 -12.955  1.00  0.00     0.167 HD
ENDBRANCH  10  12
ENDBRANCH   9  10
ENDBRANCH   8   9
ENDBRANCH   1   8
TORSDOF 6
BEGIN_RES ARG D 557
REMARK  4 active torsions:
REMARK  status: ('A' for Active; 'I' for Inactive)
REMARK    1  A    between atoms: CA   and  CB  
REMARK    2  A    between atoms: CB   and  CG  
REMARK    3  A    between atoms: CG   and  CD  
REMARK    4  A    between atoms: CD   and  NE  
REMARK       I    between atoms: NE   and  CZ  
REMARK       I    between atoms: CZ   and  NH1 
REMARK       I    between atoms: CZ   and  NH2 
ROOT
ATOM      1  CA  ARG D 557     -26.217   2.705 -17.014  1.00 35.49     0.159 C 
ENDROOT
BRANCH   1   2
ATOM      2  CB  ARG D 557     -26.789   1.319 -17.183  1.00 35.49     0.034 C 
BRANCH   2   3
ATOM      3  CG  ARG D 557     -28.223   1.158 -16.911  1.00 35.49     0.027 C 
BRANCH   3   4
ATOM      4  CD  ARG D 557     -28.590  -0.249 -16.632  1.00 35.49     0.116 C 
BRANCH   4   5
ATOM      5  NE  ARG D 557     -27.552  -0.949 -15.921  1.00 35.49    -0.212 N 
ATOM      6  CZ  ARG D 557     -27.319  -2.241 -15.979  1.00 35.49     0.666 C 
ATOM      7  NH1 ARG D 557     -28.050  -3.061 -16.712  1.00 35.49    -0.235 N 
ATOM      8  NH2 ARG D 557     -26.321  -2.703 -15.283  1.00 35.49    -0.235 N 
ATOM      9  HH  ARG D 557     -28.710  -2.779 -17.179  1.00 35.49     0.174 HD
ATOM     10  HH  ARG D 557     -27.849  -3.894 -16.713  1.00 35.49     0.174 HD
ATOM     11  HH  ARG D 557     -25.862  -2.149 -14.825  1.00 35.49     0.174 HD
ATOM     12  HH  ARG D 557     -26.138  -3.530 -15.298  1.00 35.49     0.174 HD
ATOM     13  HE  ARG D 557     -27.080  -0.508 -15.369  1.00 35.49     0.178 HD
ENDBRANCH   4   5
ENDBRANCH   3   4
ENDBRANCH   2   3
ENDBRANCH   1   2
END_RES ARG D 557
BEGIN_RES GLU D 570
REMARK  3 active torsions:
REMARK  status: ('A' for Active; 'I' for Inactive)
REMARK    5  A    between atoms: CA   and  CB  
REMARK    6  A    between atoms: CB   and  CG  
REMARK    7  A    between atoms: CG   and  CD  
ROOT
ATOM     14  CA  GLU D 570     -18.033  -6.348 -13.375  1.00 32.92     0.160 C 
ENDROOT
BRANCH  14  15
ATOM     15  CB  GLU D 570     -19.500  -6.345 -13.794  1.00 32.92     0.043 C 
BRANCH  15  16
ATOM     16  CG  GLU D 570     -19.809  -5.980 -15.201  1.00 32.92     0.100 C 
BRANCH  16  17
ATOM     17  CD  GLU D 570     -21.275  -5.688 -15.425  1.00 32.92     0.185 C 
ATOM     18  OE1 GLU D 570     -21.600  -4.636 -16.007  1.00 32.92    -0.647 OA
ATOM     19  OE2 GLU D 570     -22.107  -6.513 -14.999  1.00 32.92    -0.647 OA
ENDBRANCH  16  17
ENDBRANCH  15  16
ENDBRANCH  14  15
END_RES GLU D 570
ENDMDL
MODEL 9
REMARK VINA RESULT:      -5.3      7.140      9.570
REMARK  6 active torsions:
REMARK  status: ('A' for Active; 'I' for Inactive)
REMARK    1  A    between atoms: C_5  and  C_6 
REMARK    2  A    between atoms: C_6  and  C_7 
REMARK    3  A    between atoms: C_7  and  C_8 
REMARK    4  A    between atoms: C_8  and  C_9 
REMARK    5  A    between atoms: C_9  and  C_10 
REMARK    6  A    between atoms: C_10  and  O_12 
ROOT
HETATM    1  C   UNL     1     -35.663  -0.506 -12.958  1.00  0.00     0.002 C 
ENDROOT
BRANCH   1   2
HETATM    2  C   UNL     1     -34.939  -1.846 -12.797  1.00  0.00     0.016 C 
BRANCH   2   3
HETATM    3  C   UNL     1     -34.683  -2.218 -11.328  1.00  0.00     0.059 C 
HETATM    4  C   UNL     1     -33.223  -2.543 -10.982  1.00  0.00     0.027 C 
HETATM    5  C   UNL     1     -32.771  -3.826 -11.674  1.00  0.00     0.087 C 
HETATM    6  S   UNL     1     -34.090  -5.054 -11.479  1.00  0.00    -0.097 SA
HETATM    7  S   UNL     1     -35.579  -3.752 -10.923  1.00  0.00    -0.093 SA
ENDBRANCH   2   3
ENDBRANCH   1   2
BRANCH   1   8
HETATM    8  C   UNL     1     -35.052   0.305 -14.101  1.00  0.00     0.010 C 
BRANCH   8   9
HETATM    9  C   UNL     1     -36.009   0.425 -15.285  1.00  0.00     0.110 C 
BRANCH   9  10
HETATM   10  C   UNL     1     -35.757  -0.658 -16.308  1.00  0.00     0.139 C 
HETATM   11  O   UNL     1     -34.806  -1.420 -16.312  1.00  0.00    -0.650 OA
BRANCH  10  12
HETATM   12  O   UNL     1     -36.720  -0.701 -17.258  1.00  0.00    -0.776 OA
HETATM   13  H   UNL     1     -36.969  -1.605 -17.527  1.00  0.00     0.167 HD
ENDBRANCH  10  12
ENDBRANCH   9  10
ENDBRANCH   8   9
ENDBRANCH   1   8
TORSDOF 6
BEGIN_RES ARG D 557
REMARK  4 active torsions:
REMARK  status: ('A' for Active; 'I' for Inactive)
REMARK    1  A    between atoms: CA   and  CB  
REMARK    2  A    between atoms: CB   and  CG  
REMARK    3  A    between atoms: CG   and  CD  
REMARK    4  A    between atoms: CD   and  NE  
REMARK       I    between atoms: NE   and  CZ  
REMARK       I    between atoms: CZ   and  NH1 
REMARK       I    between atoms: CZ   and  NH2 
ROOT
ATOM      1  CA  ARG D 557     -26.217   2.705 -17.014  1.00 35.49     0.159 C 
ENDROOT
BRANCH   1   2
ATOM      2  CB  ARG D 557     -26.789   1.319 -17.183  1.00 35.49     0.034 C 
BRANCH   2   3
ATOM      3  CG  ARG D 557     -26.526   0.360 -16.104  1.00 35.49     0.027 C 
BRANCH   3   4
ATOM      4  CD  ARG D 557     -25.082   0.076 -15.940  1.00 35.49     0.116 C 
BRANCH   4   5
ATOM      5  NE  ARG D 557     -24.806  -0.656 -14.732  1.00 35.49    -0.212 N 
ATOM      6  CZ  ARG D 557     -23.803  -1.486 -14.549  1.00 35.49     0.666 C 
ATOM      7  NH1 ARG D 557     -22.922  -1.753 -15.495  1.00 35.49    -0.235 N 
ATOM      8  NH2 ARG D 557     -23.694  -2.047 -13.380  1.00 35.49    -0.235 N 
ATOM      9  HH  ARG D 557     -22.973  -1.393 -16.271  1.00 35.49     0.174 HD
ATOM     10  HH  ARG D 557     -22.287  -2.300 -15.317  1.00 35.49     0.174 HD
ATOM     11  HH  ARG D 557     -24.274  -1.850 -12.786  1.00 35.49     0.174 HD
ATOM     12  HH  ARG D 557     -23.058  -2.585 -13.222  1.00 35.49     0.174 HD
ATOM     13  HE  ARG D 557     -25.365  -0.600 -14.095  1.00 35.49     0.178 HD
ENDBRANCH   4   5
ENDBRANCH   3   4
ENDBRANCH   2   3
ENDBRANCH   1   2
END_RES ARG D 557
BEGIN_RES GLU D 570
REMARK  3 active torsions:
REMARK  status: ('A' for Active; 'I' for Inactive)
REMARK    5  A    between atoms: CA   and  CB  
REMARK    6  A    between atoms: CB   and  CG  
REMARK    7  A    between atoms: CG   and  CD  
ROOT
ATOM     14  CA  GLU D 570     -18.033  -6.348 -13.375  1.00 32.92     0.160 C 
ENDROOT
BRANCH  14  15
ATOM     15  CB  GLU D 570     -19.500  -6.345 -13.794  1.00 32.92     0.043 C 
BRANCH  15  16
ATOM     16  CG  GLU D 570     -20.452  -5.581 -12.947  1.00 32.92     0.100 C 
BRANCH  16  17
ATOM     17  CD  GLU D 570     -21.668  -5.106 -13.708  1.00 32.92     0.185 C 
ATOM     18  OE1 GLU D 570     -21.605  -5.009 -14.949  1.00 32.92    -0.647 OA
ATOM     19  OE2 GLU D 570     -22.688  -4.811 -13.055  1.00 32.92    -0.647 OA
ENDBRANCH  16  17
ENDBRANCH  15  16
ENDBRANCH  14  15
END_RES GLU D 570
ENDMDL
