MODEL 1
REMARK VINA RESULT:      -7.0      0.000      0.000
REMARK  31 active torsions:
REMARK  status: ('A' for Active; 'I' for Inactive)
REMARK    1  A    between atoms: C_2  and  C_3 
REMARK    2  A    between atoms: C_3  and  C_4 
REMARK    3  A    between atoms: C_4  and  C_5 
REMARK    4  A    between atoms: C_5  and  C_6 
REMARK    5  A    between atoms: C_6  and  C_7 
REMARK    6  A    between atoms: C_7  and  C_8 
REMARK    7  A    between atoms: C_8  and  C_9 
REMARK    8  A    between atoms: C_9  and  C_10 
REMARK    9  A    between atoms: C_10  and  C_11 
REMARK   10  A    between atoms: C_11  and  C_12 
REMARK   11  A    between atoms: C_12  and  C_13 
REMARK   12  A    between atoms: C_13  and  C_14 
REMARK   13  A    between atoms: C_14  and  O_16 
REMARK   14  A    between atoms: O_16  and  C_17 
REMARK   15  A    between atoms: C_17  and  C_18 
REMARK   16  A    between atoms: C_18  and  C_19 
REMARK   17  A    between atoms: C_18  and  C_27 
REMARK   18  A    between atoms: C_19  and  C_20 
REMARK   19  A    between atoms: C_20  and  C_21 
REMARK   20  A    between atoms: C_21  and  C_22 
REMARK   21  A    between atoms: C_22  and  C_23 
REMARK   22  A    between atoms: C_23  and  C_24 
REMARK   23  A    between atoms: C_24  and  C_25 
REMARK   24  A    between atoms: C_27  and  C_28 
REMARK   25  A    between atoms: C_28  and  C_29 
REMARK   26  A    between atoms: C_29  and  C_30 
REMARK   27  A    between atoms: C_30  and  C_31 
REMARK   28  A    between atoms: C_31  and  C_32 
REMARK   29  A    between atoms: C_32  and  C_33 
REMARK   30  A    between atoms: C_33  and  C_34 
REMARK   31  A    between atoms: C_34  and  C_35 
ROOT
HETATM    1  C   UNL     1     -31.184  -4.431 -17.562  1.00  0.00     0.010 C 
ENDROOT
BRANCH   1   2
HETATM    2  C   UNL     1     -32.546  -4.281 -16.865  1.00  0.00     0.183 C 
BRANCH   2   3
HETATM    3  O   UNL     1     -33.230  -3.086 -17.263  1.00  0.00    -0.321 OA
BRANCH   3   4
HETATM    4  C   UNL     1     -34.357  -2.829 -16.527  1.00  0.00     0.258 C 
HETATM    5  O   UNL     1     -34.672  -3.392 -15.505  1.00  0.00    -0.265 OA
BRANCH   4   6
HETATM    6  C   UNL     1     -35.111  -1.665 -17.148  1.00  0.00     0.111 C 
BRANCH   6   7
HETATM    7  C   UNL     1     -36.202  -1.189 -16.203  1.00  0.00     0.010 C 
BRANCH   7   8
HETATM    8  C   UNL     1     -35.982   0.235 -15.712  1.00  0.00     0.000 C 
BRANCH   8   9
HETATM    9  C   UNL     1     -34.723   0.291 -14.852  1.00  0.00     0.000 C 
BRANCH   9  10
HETATM   10  C   UNL     1     -34.939   1.168 -13.628  1.00  0.00     0.000 C 
BRANCH  10  11
HETATM   11  C   UNL     1     -35.107   0.310 -12.381  1.00  0.00     0.000 C 
BRANCH  11  12
HETATM   12  C   UNL     1     -34.883  -1.156 -12.717  1.00  0.00     0.000 C 
BRANCH  12  13
HETATM   13  C   UNL     1     -35.128  -2.025 -11.495  1.00  0.00     0.000 C 
BRANCH  13  14
HETATM   14  C   UNL     1     -33.816  -2.304 -10.775  1.00  0.00     0.000 C 
BRANCH  14  15
HETATM   15  C   UNL     1     -33.057  -3.421 -11.476  1.00  0.00     0.000 C 
BRANCH  15  16
HETATM   16  C   UNL     1     -33.980  -4.599 -11.758  1.00  0.00    -0.000 C 
BRANCH  16  17
HETATM   17  C   UNL     1     -33.500  -5.846 -11.024  1.00  0.00    -0.005 C 
HETATM   18  C   UNL     1     -34.629  -6.463 -10.220  1.00  0.00     0.005 C 
ENDBRANCH  16  17
ENDBRANCH  15  16
ENDBRANCH  14  15
ENDBRANCH  13  14
ENDBRANCH  12  13
ENDBRANCH  11  12
ENDBRANCH  10  11
ENDBRANCH   9  10
ENDBRANCH   8   9
ENDBRANCH   7   8
ENDBRANCH   6   7
ENDBRANCH   4   6
ENDBRANCH   3   4
ENDBRANCH   2   3
ENDBRANCH   1   2
BRANCH   1  19
HETATM   19  C   UNL     1     -30.287  -3.196 -17.354  1.00  0.00     0.007 C 
BRANCH  19  20
HETATM   20  C   UNL     1     -28.807  -3.546 -17.331  1.00  0.00     0.000 C 
BRANCH  20  21
HETATM   21  C   UNL     1     -28.000  -2.505 -16.584  1.00  0.00     0.000 C 
BRANCH  21  22
HETATM   22  C   UNL     1     -27.010  -3.232 -15.692  1.00  0.00     0.000 C 
BRANCH  22  23
HETATM   23  C   UNL     1     -27.269  -4.722 -15.743  1.00  0.00     0.000 C 
BRANCH  23  24
HETATM   24  C   UNL     1     -25.950  -5.472 -15.798  1.00  0.00    -0.000 C 
BRANCH  24  25
HETATM   25  C   UNL     1     -26.204  -6.972 -15.785  1.00  0.00    -0.005 C 
HETATM   26  C   UNL     1     -27.643  -7.265 -15.413  1.00  0.00     0.005 C 
ENDBRANCH  24  25
ENDBRANCH  23  24
ENDBRANCH  22  23
ENDBRANCH  21  22
ENDBRANCH  20  21
ENDBRANCH  19  20
ENDBRANCH   1  19
BRANCH   1  27
HETATM   27  C   UNL     1     -30.473  -5.694 -17.043  1.00  0.00     0.007 C 
BRANCH  27  28
HETATM   28  C   UNL     1     -30.490  -6.832 -18.052  1.00  0.00     0.000 C 
BRANCH  28  29
HETATM   29  C   UNL     1     -29.084  -7.268 -18.419  1.00  0.00     0.000 C 
BRANCH  29  30
HETATM   30  C   UNL     1     -28.365  -6.127 -19.122  1.00  0.00     0.000 C 
BRANCH  30  31
HETATM   31  C   UNL     1     -26.896  -6.462 -19.297  1.00  0.00     0.000 C 
BRANCH  31  32
HETATM   32  C   UNL     1     -26.658  -7.099 -20.656  1.00  0.00     0.000 C 
BRANCH  32  33
HETATM   33  C   UNL     1     -25.242  -7.650 -20.734  1.00  0.00     0.000 C 
BRANCH  33  34
HETATM   34  C   UNL     1     -24.537  -7.127 -21.976  1.00  0.00    -0.000 C 
BRANCH  34  35
HETATM   35  C   UNL     1     -23.555  -8.162 -22.511  1.00  0.00    -0.005 C 
HETATM   36  C   UNL     1     -22.581  -8.586 -21.428  1.00  0.00     0.005 C 
ENDBRANCH  34  35
ENDBRANCH  33  34
ENDBRANCH  32  33
ENDBRANCH  31  32
ENDBRANCH  30  31
ENDBRANCH  29  30
ENDBRANCH  28  29
ENDBRANCH  27  28
ENDBRANCH   1  27
TORSDOF 31
BEGIN_RES ARG D 557
REMARK  4 active torsions:
REMARK  status: ('A' for Active; 'I' for Inactive)
REMARK    1  A    between atoms: CA   and  CB  
REMARK    2  A    between atoms: CB   and  CG  
REMARK    3  A    between atoms: CG   and  CD  
REMARK    4  A    between atoms: CD   and  NE  
REMARK       I    between atoms: NE   and  CZ  
REMARK       I    between atoms: CZ   and  NH1 
REMARK       I    between atoms: CZ   and  NH2 
ROOT
ATOM      1  CA  ARG D 557     -26.217   2.705 -17.014  1.00 35.49     0.159 C 
ENDROOT
BRANCH   1   2
ATOM      2  CB  ARG D 557     -26.789   1.319 -17.183  1.00 35.49     0.034 C 
BRANCH   2   3
ATOM      3  CG  ARG D 557     -25.837   0.202 -17.141  1.00 35.49     0.027 C 
BRANCH   3   4
ATOM      4  CD  ARG D 557     -24.743   0.429 -16.170  1.00 35.49     0.116 C 
BRANCH   4   5
ATOM      5  NE  ARG D 557     -24.859  -0.420 -15.014  1.00 35.49    -0.212 N 
ATOM      6  CZ  ARG D 557     -24.034  -1.388 -14.686  1.00 35.49     0.666 C 
ATOM      7  NH1 ARG D 557     -22.982  -1.702 -15.419  1.00 35.49    -0.235 N 
ATOM      8  NH2 ARG D 557     -24.282  -2.042 -13.588  1.00 35.49    -0.235 N 
ATOM      9  HH  ARG D 557     -22.798  -1.283 -16.144  1.00 35.49     0.174 HD
ATOM     10  HH  ARG D 557     -22.477  -2.342 -15.154  1.00 35.49     0.174 HD
ATOM     11  HH  ARG D 557     -24.964  -1.813 -13.131  1.00 35.49     0.174 HD
ATOM     12  HH  ARG D 557     -23.769  -2.671 -13.342  1.00 35.49     0.174 HD
ATOM     13  HE  ARG D 557     -25.549  -0.335 -14.524  1.00 35.49     0.178 HD
ENDBRANCH   4   5
ENDBRANCH   3   4
ENDBRANCH   2   3
ENDBRANCH   1   2
END_RES ARG D 557
BEGIN_RES GLU D 570
REMARK  3 active torsions:
REMARK  status: ('A' for Active; 'I' for Inactive)
REMARK    5  A    between atoms: CA   and  CB  
REMARK    6  A    between atoms: CB   and  CG  
REMARK    7  A    between atoms: CG   and  CD  
ROOT
ATOM     14  CA  GLU D 570     -18.033  -6.348 -13.375  1.00 32.92     0.160 C 
ENDROOT
BRANCH  14  15
ATOM     15  CB  GLU D 570     -19.500  -6.345 -13.794  1.00 32.92     0.043 C 
BRANCH  15  16
ATOM     16  CG  GLU D 570     -20.440  -5.524 -12.988  1.00 32.92     0.100 C 
BRANCH  16  17
ATOM     17  CD  GLU D 570     -21.719  -5.199 -13.725  1.00 32.92     0.185 C 
ATOM     18  OE1 GLU D 570     -22.162  -6.015 -14.556  1.00 32.92    -0.647 OA
ATOM     19  OE2 GLU D 570     -22.275  -4.110 -13.480  1.00 32.92    -0.647 OA
ENDBRANCH  16  17
ENDBRANCH  15  16
ENDBRANCH  14  15
END_RES GLU D 570
ENDMDL
MODEL 2
REMARK VINA RESULT:      -6.7      4.759      9.994
REMARK  31 active torsions:
REMARK  status: ('A' for Active; 'I' for Inactive)
REMARK    1  A    between atoms: C_2  and  C_3 
REMARK    2  A    between atoms: C_3  and  C_4 
REMARK    3  A    between atoms: C_4  and  C_5 
REMARK    4  A    between atoms: C_5  and  C_6 
REMARK    5  A    between atoms: C_6  and  C_7 
REMARK    6  A    between atoms: C_7  and  C_8 
REMARK    7  A    between atoms: C_8  and  C_9 
REMARK    8  A    between atoms: C_9  and  C_10 
REMARK    9  A    between atoms: C_10  and  C_11 
REMARK   10  A    between atoms: C_11  and  C_12 
REMARK   11  A    between atoms: C_12  and  C_13 
REMARK   12  A    between atoms: C_13  and  C_14 
REMARK   13  A    between atoms: C_14  and  O_16 
REMARK   14  A    between atoms: O_16  and  C_17 
REMARK   15  A    between atoms: C_17  and  C_18 
REMARK   16  A    between atoms: C_18  and  C_19 
REMARK   17  A    between atoms: C_18  and  C_27 
REMARK   18  A    between atoms: C_19  and  C_20 
REMARK   19  A    between atoms: C_20  and  C_21 
REMARK   20  A    between atoms: C_21  and  C_22 
REMARK   21  A    between atoms: C_22  and  C_23 
REMARK   22  A    between atoms: C_23  and  C_24 
REMARK   23  A    between atoms: C_24  and  C_25 
REMARK   24  A    between atoms: C_27  and  C_28 
REMARK   25  A    between atoms: C_28  and  C_29 
REMARK   26  A    between atoms: C_29  and  C_30 
REMARK   27  A    between atoms: C_30  and  C_31 
REMARK   28  A    between atoms: C_31  and  C_32 
REMARK   29  A    between atoms: C_32  and  C_33 
REMARK   30  A    between atoms: C_33  and  C_34 
REMARK   31  A    between atoms: C_34  and  C_35 
ROOT
HETATM    1  C   UNL     1     -24.143  -5.532 -15.103  1.00  0.00     0.010 C 
ENDROOT
BRANCH   1   2
HETATM    2  C   UNL     1     -23.548  -5.567 -13.688  1.00  0.00     0.183 C 
BRANCH   2   3
HETATM    3  O   UNL     1     -22.765  -4.401 -13.398  1.00  0.00    -0.321 OA
BRANCH   3   4
HETATM    4  C   UNL     1     -22.269  -4.378 -12.121  1.00  0.00     0.258 C 
HETATM    5  O   UNL     1     -21.098  -4.411 -11.822  1.00  0.00    -0.265 OA
BRANCH   4   6
HETATM    6  C   UNL     1     -23.416  -4.217 -11.137  1.00  0.00     0.111 C 
BRANCH   6   7
HETATM    7  C   UNL     1     -23.048  -4.849  -9.804  1.00  0.00     0.010 C 
BRANCH   7   8
HETATM    8  C   UNL     1     -22.529  -3.838  -8.791  1.00  0.00     0.000 C 
BRANCH   8   9
HETATM    9  C   UNL     1     -21.168  -4.289  -8.268  1.00  0.00     0.000 C 
BRANCH   9  10
HETATM   10  C   UNL     1     -20.967  -3.851  -6.827  1.00  0.00     0.000 C 
BRANCH  10  11
HETATM   11  C   UNL     1     -19.969  -4.763  -6.126  1.00  0.00     0.000 C 
BRANCH  11  12
HETATM   12  C   UNL     1     -20.528  -6.173  -6.021  1.00  0.00     0.000 C 
BRANCH  12  13
HETATM   13  C   UNL     1     -21.725  -6.202  -5.084  1.00  0.00     0.000 C 
BRANCH  13  14
HETATM   14  C   UNL     1     -21.541  -7.284  -4.030  1.00  0.00     0.000 C 
BRANCH  14  15
HETATM   15  C   UNL     1     -21.249  -6.657  -2.674  1.00  0.00     0.000 C 
BRANCH  15  16
HETATM   16  C   UNL     1     -21.456  -7.674  -1.560  1.00  0.00    -0.000 C 
BRANCH  16  17
HETATM   17  C   UNL     1     -22.404  -7.124  -0.499  1.00  0.00    -0.005 C 
HETATM   18  C   UNL     1     -23.069  -8.253   0.264  1.00  0.00     0.005 C 
ENDBRANCH  16  17
ENDBRANCH  15  16
ENDBRANCH  14  15
ENDBRANCH  13  14
ENDBRANCH  12  13
ENDBRANCH  11  12
ENDBRANCH  10  11
ENDBRANCH   9  10
ENDBRANCH   8   9
ENDBRANCH   7   8
ENDBRANCH   6   7
ENDBRANCH   4   6
ENDBRANCH   3   4
ENDBRANCH   2   3
ENDBRANCH   1   2
BRANCH   1  19
HETATM   19  C   UNL     1     -23.675  -6.725 -15.960  1.00  0.00     0.007 C 
BRANCH  19  20
HETATM   20  C   UNL     1     -24.764  -7.239 -16.888  1.00  0.00     0.000 C 
BRANCH  20  21
HETATM   21  C   UNL     1     -24.388  -7.054 -18.343  1.00  0.00     0.000 C 
BRANCH  21  22
HETATM   22  C   UNL     1     -25.645  -6.678 -19.106  1.00  0.00     0.000 C 
BRANCH  22  23
HETATM   23  C   UNL     1     -25.354  -6.638 -20.591  1.00  0.00     0.000 C 
BRANCH  23  24
HETATM   24  C   UNL     1     -24.759  -7.961 -21.037  1.00  0.00    -0.000 C 
BRANCH  24  25
HETATM   25  C   UNL     1     -24.038  -7.787 -22.365  1.00  0.00    -0.005 C 
HETATM   26  C   UNL     1     -22.717  -8.530 -22.355  1.00  0.00     0.005 C 
ENDBRANCH  24  25
ENDBRANCH  23  24
ENDBRANCH  22  23
ENDBRANCH  21  22
ENDBRANCH  20  21
ENDBRANCH  19  20
ENDBRANCH   1  19
BRANCH   1  27
HETATM   27  C   UNL     1     -25.680  -5.513 -15.019  1.00  0.00     0.007 C 
BRANCH  27  28
HETATM   28  C   UNL     1     -26.263  -4.129 -15.266  1.00  0.00     0.000 C 
BRANCH  28  29
HETATM   29  C   UNL     1     -27.449  -4.188 -16.208  1.00  0.00     0.000 C 
BRANCH  29  30
HETATM   30  C   UNL     1     -27.895  -2.774 -16.553  1.00  0.00     0.000 C 
BRANCH  30  31
HETATM   31  C   UNL     1     -29.219  -2.807 -17.292  1.00  0.00     0.000 C 
BRANCH  31  32
HETATM   32  C   UNL     1     -29.518  -4.216 -17.776  1.00  0.00     0.000 C 
BRANCH  32  33
HETATM   33  C   UNL     1     -30.852  -4.687 -17.218  1.00  0.00     0.000 C 
BRANCH  33  34
HETATM   34  C   UNL     1     -30.894  -6.207 -17.156  1.00  0.00    -0.000 C 
BRANCH  34  35
HETATM   35  C   UNL     1     -29.624  -6.803 -17.751  1.00  0.00    -0.005 C 
HETATM   36  C   UNL     1     -29.961  -7.925 -18.716  1.00  0.00     0.005 C 
ENDBRANCH  34  35
ENDBRANCH  33  34
ENDBRANCH  32  33
ENDBRANCH  31  32
ENDBRANCH  30  31
ENDBRANCH  29  30
ENDBRANCH  28  29
ENDBRANCH  27  28
ENDBRANCH   1  27
TORSDOF 31
BEGIN_RES ARG D 557
REMARK  4 active torsions:
REMARK  status: ('A' for Active; 'I' for Inactive)
REMARK    1  A    between atoms: CA   and  CB  
REMARK    2  A    between atoms: CB   and  CG  
REMARK    3  A    between atoms: CG   and  CD  
REMARK    4  A    between atoms: CD   and  NE  
REMARK       I    between atoms: NE   and  CZ  
REMARK       I    between atoms: CZ   and  NH1 
REMARK       I    between atoms: CZ   and  NH2 
ROOT
ATOM      1  CA  ARG D 557     -26.217   2.705 -17.014  1.00 35.49     0.159 C 
ENDROOT
BRANCH   1   2
ATOM      2  CB  ARG D 557     -26.789   1.319 -17.183  1.00 35.49     0.034 C 
BRANCH   2   3
ATOM      3  CG  ARG D 557     -25.838   0.201 -17.133  1.00 35.49     0.027 C 
BRANCH   3   4
ATOM      4  CD  ARG D 557     -24.710   0.461 -16.210  1.00 35.49     0.116 C 
BRANCH   4   5
ATOM      5  NE  ARG D 557     -24.808  -0.317 -15.003  1.00 35.49    -0.212 N 
ATOM      6  CZ  ARG D 557     -24.022  -1.315 -14.666  1.00 35.49     0.666 C 
ATOM      7  NH1 ARG D 557     -23.034  -1.731 -15.437  1.00 35.49    -0.235 N 
ATOM      8  NH2 ARG D 557     -24.243  -1.893 -13.522  1.00 35.49    -0.235 N 
ATOM      9  HH  ARG D 557     -22.869  -1.363 -16.194  1.00 35.49     0.174 HD
ATOM     10  HH  ARG D 557     -22.552  -2.385 -15.165  1.00 35.49     0.174 HD
ATOM     11  HH  ARG D 557     -24.883  -1.599 -13.041  1.00 35.49     0.174 HD
ATOM     12  HH  ARG D 557     -23.754  -2.538 -13.269  1.00 35.49     0.174 HD
ATOM     13  HE  ARG D 557     -25.462  -0.164 -14.481  1.00 35.49     0.178 HD
ENDBRANCH   4   5
ENDBRANCH   3   4
ENDBRANCH   2   3
ENDBRANCH   1   2
END_RES ARG D 557
BEGIN_RES GLU D 570
REMARK  3 active torsions:
REMARK  status: ('A' for Active; 'I' for Inactive)
REMARK    5  A    between atoms: CA   and  CB  
REMARK    6  A    between atoms: CB   and  CG  
REMARK    7  A    between atoms: CG   and  CD  
ROOT
ATOM     14  CA  GLU D 570     -18.033  -6.348 -13.375  1.00 32.92     0.160 C 
ENDROOT
BRANCH  14  15
ATOM     15  CB  GLU D 570     -19.500  -6.345 -13.794  1.00 32.92     0.043 C 
BRANCH  15  16
ATOM     16  CG  GLU D 570     -19.796  -6.306 -15.249  1.00 32.92     0.100 C 
BRANCH  16  17
ATOM     17  CD  GLU D 570     -20.440  -7.577 -15.754  1.00 32.92     0.185 C 
ATOM     18  OE1 GLU D 570     -20.530  -8.555 -14.988  1.00 32.92    -0.647 OA
ATOM     19  OE2 GLU D 570     -20.842  -7.599 -16.934  1.00 32.92    -0.647 OA
ENDBRANCH  16  17
ENDBRANCH  15  16
ENDBRANCH  14  15
END_RES GLU D 570
ENDMDL
MODEL 3
REMARK VINA RESULT:      -6.7      9.084     15.720
REMARK  31 active torsions:
REMARK  status: ('A' for Active; 'I' for Inactive)
REMARK    1  A    between atoms: C_2  and  C_3 
REMARK    2  A    between atoms: C_3  and  C_4 
REMARK    3  A    between atoms: C_4  and  C_5 
REMARK    4  A    between atoms: C_5  and  C_6 
REMARK    5  A    between atoms: C_6  and  C_7 
REMARK    6  A    between atoms: C_7  and  C_8 
REMARK    7  A    between atoms: C_8  and  C_9 
REMARK    8  A    between atoms: C_9  and  C_10 
REMARK    9  A    between atoms: C_10  and  C_11 
REMARK   10  A    between atoms: C_11  and  C_12 
REMARK   11  A    between atoms: C_12  and  C_13 
REMARK   12  A    between atoms: C_13  and  C_14 
REMARK   13  A    between atoms: C_14  and  O_16 
REMARK   14  A    between atoms: O_16  and  C_17 
REMARK   15  A    between atoms: C_17  and  C_18 
REMARK   16  A    between atoms: C_18  and  C_19 
REMARK   17  A    between atoms: C_18  and  C_27 
REMARK   18  A    between atoms: C_19  and  C_20 
REMARK   19  A    between atoms: C_20  and  C_21 
REMARK   20  A    between atoms: C_21  and  C_22 
REMARK   21  A    between atoms: C_22  and  C_23 
REMARK   22  A    between atoms: C_23  and  C_24 
REMARK   23  A    between atoms: C_24  and  C_25 
REMARK   24  A    between atoms: C_27  and  C_28 
REMARK   25  A    between atoms: C_28  and  C_29 
REMARK   26  A    between atoms: C_29  and  C_30 
REMARK   27  A    between atoms: C_30  and  C_31 
REMARK   28  A    between atoms: C_31  and  C_32 
REMARK   29  A    between atoms: C_32  and  C_33 
REMARK   30  A    between atoms: C_33  and  C_34 
REMARK   31  A    between atoms: C_34  and  C_35 
ROOT
HETATM    1  C   UNL     1     -21.075  -6.936  -5.544  1.00  0.00     0.010 C 
ENDROOT
BRANCH   1   2
HETATM    2  C   UNL     1     -20.525  -8.307  -5.121  1.00  0.00     0.183 C 
BRANCH   2   3
HETATM    3  O   UNL     1     -21.013  -9.368  -5.951  1.00  0.00    -0.321 OA
BRANCH   3   4
HETATM    4  C   UNL     1     -21.061 -10.582  -5.318  1.00  0.00     0.258 C 
HETATM    5  O   UNL     1     -20.534 -11.599  -5.707  1.00  0.00    -0.265 OA
BRANCH   4   6
HETATM    6  C   UNL     1     -21.808 -10.436  -4.003  1.00  0.00     0.111 C 
BRANCH   6   7
HETATM    7  C   UNL     1     -22.728 -11.628  -3.793  1.00  0.00     0.010 C 
BRANCH   7   8
HETATM    8  C   UNL     1     -22.943 -11.959  -2.322  1.00  0.00     0.000 C 
BRANCH   8   9
HETATM    9  C   UNL     1     -22.172 -13.227  -1.965  1.00  0.00     0.000 C 
BRANCH   9  10
HETATM   10  C   UNL     1     -20.853 -12.888  -1.289  1.00  0.00     0.000 C 
BRANCH  10  11
HETATM   11  C   UNL     1     -19.684 -13.444  -2.091  1.00  0.00     0.000 C 
BRANCH  11  12
HETATM   12  C   UNL     1     -18.851 -12.308  -2.663  1.00  0.00     0.000 C 
BRANCH  12  13
HETATM   13  C   UNL     1     -18.786 -11.150  -1.680  1.00  0.00     0.000 C 
BRANCH  13  14
HETATM   14  C   UNL     1     -18.536  -9.844  -2.422  1.00  0.00     0.000 C 
BRANCH  14  15
HETATM   15  C   UNL     1     -17.735 -10.102  -3.689  1.00  0.00     0.000 C 
BRANCH  15  16
HETATM   16  C   UNL     1     -16.263  -9.779  -3.465  1.00  0.00    -0.000 C 
BRANCH  16  17
HETATM   17  C   UNL     1     -15.530  -9.658  -4.797  1.00  0.00    -0.005 C 
HETATM   18  C   UNL     1     -16.469  -9.936  -5.954  1.00  0.00     0.005 C 
ENDBRANCH  16  17
ENDBRANCH  15  16
ENDBRANCH  14  15
ENDBRANCH  13  14
ENDBRANCH  12  13
ENDBRANCH  11  12
ENDBRANCH  10  11
ENDBRANCH   9  10
ENDBRANCH   8   9
ENDBRANCH   7   8
ENDBRANCH   6   7
ENDBRANCH   4   6
ENDBRANCH   3   4
ENDBRANCH   2   3
ENDBRANCH   1   2
BRANCH   1  19
HETATM   19  C   UNL     1     -21.340  -6.019  -4.334  1.00  0.00     0.007 C 
BRANCH  19  20
HETATM   20  C   UNL     1     -21.359  -6.780  -3.018  1.00  0.00     0.000 C 
BRANCH  20  21
HETATM   21  C   UNL     1     -22.136  -6.032  -1.954  1.00  0.00     0.000 C 
BRANCH  21  22
HETATM   22  C   UNL     1     -22.384  -6.986  -0.800  1.00  0.00     0.000 C 
BRANCH  22  23
HETATM   23  C   UNL     1     -21.725  -8.319  -1.082  1.00  0.00     0.000 C 
BRANCH  23  24
HETATM   24  C   UNL     1     -22.214  -9.356  -0.086  1.00  0.00    -0.000 C 
BRANCH  24  25
HETATM   25  C   UNL     1     -21.048  -9.866   0.747  1.00  0.00    -0.005 C 
HETATM   26  C   UNL     1     -20.689  -8.867   1.828  1.00  0.00     0.005 C 
ENDBRANCH  24  25
ENDBRANCH  23  24
ENDBRANCH  22  23
ENDBRANCH  21  22
ENDBRANCH  20  21
ENDBRANCH  19  20
ENDBRANCH   1  19
BRANCH   1  27
HETATM   27  C   UNL     1     -20.091  -6.260  -6.515  1.00  0.00     0.007 C 
BRANCH  27  28
HETATM   28  C   UNL     1     -19.922  -4.774  -6.235  1.00  0.00     0.000 C 
BRANCH  28  29
HETATM   29  C   UNL     1     -20.218  -3.940  -7.467  1.00  0.00     0.000 C 
BRANCH  29  30
HETATM   30  C   UNL     1     -21.724  -3.849  -7.667  1.00  0.00     0.000 C 
BRANCH  30  31
HETATM   31  C   UNL     1     -22.077  -4.117  -9.118  1.00  0.00     0.000 C 
BRANCH  31  32
HETATM   32  C   UNL     1     -20.819  -4.396  -9.924  1.00  0.00     0.000 C 
BRANCH  32  33
HETATM   33  C   UNL     1     -21.088  -4.172 -11.405  1.00  0.00     0.000 C 
BRANCH  33  34
HETATM   34  C   UNL     1     -21.759  -2.825 -11.623  1.00  0.00    -0.000 C 
BRANCH  34  35
HETATM   35  C   UNL     1     -22.830  -2.928 -12.703  1.00  0.00    -0.005 C 
HETATM   36  C   UNL     1     -24.203  -3.093 -12.079  1.00  0.00     0.005 C 
ENDBRANCH  34  35
ENDBRANCH  33  34
ENDBRANCH  32  33
ENDBRANCH  31  32
ENDBRANCH  30  31
ENDBRANCH  29  30
ENDBRANCH  28  29
ENDBRANCH  27  28
ENDBRANCH   1  27
TORSDOF 31
BEGIN_RES ARG D 557
REMARK  4 active torsions:
REMARK  status: ('A' for Active; 'I' for Inactive)
REMARK    1  A    between atoms: CA   and  CB  
REMARK    2  A    between atoms: CB   and  CG  
REMARK    3  A    between atoms: CG   and  CD  
REMARK    4  A    between atoms: CD   and  NE  
REMARK       I    between atoms: NE   and  CZ  
REMARK       I    between atoms: CZ   and  NH1 
REMARK       I    between atoms: CZ   and  NH2 
ROOT
ATOM      1  CA  ARG D 557     -26.217   2.705 -17.014  1.00 35.49     0.159 C 
ENDROOT
BRANCH   1   2
ATOM      2  CB  ARG D 557     -26.789   1.319 -17.183  1.00 35.49     0.034 C 
BRANCH   2   3
ATOM      3  CG  ARG D 557     -28.235   1.225 -17.419  1.00 35.49     0.027 C 
BRANCH   3   4
ATOM      4  CD  ARG D 557     -28.901   0.294 -16.480  1.00 35.49     0.116 C 
BRANCH   4   5
ATOM      5  NE  ARG D 557     -29.299  -0.931 -17.122  1.00 35.49    -0.212 N 
ATOM      6  CZ  ARG D 557     -28.674  -2.084 -17.033  1.00 35.49     0.666 C 
ATOM      7  NH1 ARG D 557     -27.567  -2.237 -16.331  1.00 35.49    -0.235 N 
ATOM      8  NH2 ARG D 557     -29.190  -3.097 -17.666  1.00 35.49    -0.235 N 
ATOM      9  HH  ARG D 557     -27.211  -1.585 -15.905  1.00 35.49     0.174 HD
ATOM     10  HH  ARG D 557     -27.204  -3.013 -16.307  1.00 35.49     0.174 HD
ATOM     11  HH  ARG D 557     -29.909  -2.970 -18.106  1.00 35.49     0.174 HD
ATOM     12  HH  ARG D 557     -28.817  -3.857 -17.629  1.00 35.49     0.174 HD
ATOM     13  HE  ARG D 557     -29.962  -0.906 -17.654  1.00 35.49     0.178 HD
ENDBRANCH   4   5
ENDBRANCH   3   4
ENDBRANCH   2   3
ENDBRANCH   1   2
END_RES ARG D 557
BEGIN_RES GLU D 570
REMARK  3 active torsions:
REMARK  status: ('A' for Active; 'I' for Inactive)
REMARK    5  A    between atoms: CA   and  CB  
REMARK    6  A    between atoms: CB   and  CG  
REMARK    7  A    between atoms: CG   and  CD  
ROOT
ATOM     14  CA  GLU D 570     -18.033  -6.348 -13.375  1.00 32.92     0.160 C 
ENDROOT
BRANCH  14  15
ATOM     15  CB  GLU D 570     -19.500  -6.345 -13.794  1.00 32.92     0.043 C 
BRANCH  15  16
ATOM     16  CG  GLU D 570     -19.814  -5.924 -15.184  1.00 32.92     0.100 C 
BRANCH  16  17
ATOM     17  CD  GLU D 570     -21.280  -5.622 -15.391  1.00 32.92     0.185 C 
ATOM     18  OE1 GLU D 570     -22.131  -6.359 -14.858  1.00 32.92    -0.647 OA
ATOM     19  OE2 GLU D 570     -21.580  -4.646 -16.108  1.00 32.92    -0.647 OA
ENDBRANCH  16  17
ENDBRANCH  15  16
ENDBRANCH  14  15
END_RES GLU D 570
ENDMDL
MODEL 4
REMARK VINA RESULT:      -6.7      4.265      9.584
REMARK  31 active torsions:
REMARK  status: ('A' for Active; 'I' for Inactive)
REMARK    1  A    between atoms: C_2  and  C_3 
REMARK    2  A    between atoms: C_3  and  C_4 
REMARK    3  A    between atoms: C_4  and  C_5 
REMARK    4  A    between atoms: C_5  and  C_6 
REMARK    5  A    between atoms: C_6  and  C_7 
REMARK    6  A    between atoms: C_7  and  C_8 
REMARK    7  A    between atoms: C_8  and  C_9 
REMARK    8  A    between atoms: C_9  and  C_10 
REMARK    9  A    between atoms: C_10  and  C_11 
REMARK   10  A    between atoms: C_11  and  C_12 
REMARK   11  A    between atoms: C_12  and  C_13 
REMARK   12  A    between atoms: C_13  and  C_14 
REMARK   13  A    between atoms: C_14  and  O_16 
REMARK   14  A    between atoms: O_16  and  C_17 
REMARK   15  A    between atoms: C_17  and  C_18 
REMARK   16  A    between atoms: C_18  and  C_19 
REMARK   17  A    between atoms: C_18  and  C_27 
REMARK   18  A    between atoms: C_19  and  C_20 
REMARK   19  A    between atoms: C_20  and  C_21 
REMARK   20  A    between atoms: C_21  and  C_22 
REMARK   21  A    between atoms: C_22  and  C_23 
REMARK   22  A    between atoms: C_23  and  C_24 
REMARK   23  A    between atoms: C_24  and  C_25 
REMARK   24  A    between atoms: C_27  and  C_28 
REMARK   25  A    between atoms: C_28  and  C_29 
REMARK   26  A    between atoms: C_29  and  C_30 
REMARK   27  A    between atoms: C_30  and  C_31 
REMARK   28  A    between atoms: C_31  and  C_32 
REMARK   29  A    between atoms: C_32  and  C_33 
REMARK   30  A    between atoms: C_33  and  C_34 
REMARK   31  A    between atoms: C_34  and  C_35 
ROOT
HETATM    1  C   UNL     1     -25.621  -6.301 -16.640  1.00  0.00     0.010 C 
ENDROOT
BRANCH   1   2
HETATM    2  C   UNL     1     -24.548  -6.936 -15.743  1.00  0.00     0.183 C 
BRANCH   2   3
HETATM    3  O   UNL     1     -24.543  -6.377 -14.423  1.00  0.00    -0.321 OA
BRANCH   3   4
HETATM    4  C   UNL     1     -23.605  -5.395 -14.247  1.00  0.00     0.258 C 
HETATM    5  O   UNL     1     -23.196  -4.652 -15.108  1.00  0.00    -0.265 OA
BRANCH   4   6
HETATM    6  C   UNL     1     -23.218  -5.324 -12.779  1.00  0.00     0.111 C 
BRANCH   6   7
HETATM    7  C   UNL     1     -22.152  -4.260 -12.574  1.00  0.00     0.010 C 
BRANCH   7   8
HETATM    8  C   UNL     1     -21.376  -4.439 -11.276  1.00  0.00     0.000 C 
BRANCH   8   9
HETATM    9  C   UNL     1     -22.211  -3.927 -10.105  1.00  0.00     0.000 C 
BRANCH   9  10
HETATM   10  C   UNL     1     -21.704  -4.492  -8.788  1.00  0.00     0.000 C 
BRANCH  10  11
HETATM   11  C   UNL     1     -20.198  -4.706  -8.845  1.00  0.00     0.000 C 
BRANCH  11  12
HETATM   12  C   UNL     1     -19.641  -4.900  -7.443  1.00  0.00     0.000 C 
BRANCH  12  13
HETATM   13  C   UNL     1     -20.638  -4.413  -6.403  1.00  0.00     0.000 C 
BRANCH  13  14
HETATM   14  C   UNL     1     -20.674  -5.370  -5.220  1.00  0.00     0.000 C 
BRANCH  14  15
HETATM   15  C   UNL     1     -21.869  -6.305  -5.334  1.00  0.00     0.000 C 
BRANCH  15  16
HETATM   16  C   UNL     1     -21.424  -7.757  -5.223  1.00  0.00    -0.000 C 
BRANCH  16  17
HETATM   17  C   UNL     1     -19.902  -7.858  -5.257  1.00  0.00    -0.005 C 
HETATM   18  C   UNL     1     -19.424  -9.034  -4.428  1.00  0.00     0.005 C 
ENDBRANCH  16  17
ENDBRANCH  15  16
ENDBRANCH  14  15
ENDBRANCH  13  14
ENDBRANCH  12  13
ENDBRANCH  11  12
ENDBRANCH  10  11
ENDBRANCH   9  10
ENDBRANCH   8   9
ENDBRANCH   7   8
ENDBRANCH   6   7
ENDBRANCH   4   6
ENDBRANCH   3   4
ENDBRANCH   2   3
ENDBRANCH   1   2
BRANCH   1  19
HETATM   19  C   UNL     1     -25.447  -6.693 -18.120  1.00  0.00     0.007 C 
BRANCH  19  20
HETATM   20  C   UNL     1     -26.676  -6.377 -18.957  1.00  0.00     0.000 C 
BRANCH  20  21
HETATM   21  C   UNL     1     -26.463  -6.728 -20.414  1.00  0.00     0.000 C 
BRANCH  21  22
HETATM   22  C   UNL     1     -24.974  -6.647 -20.701  1.00  0.00     0.000 C 
BRANCH  22  23
HETATM   23  C   UNL     1     -24.448  -8.012 -21.088  1.00  0.00     0.000 C 
BRANCH  23  24
HETATM   24  C   UNL     1     -24.234  -8.076 -22.589  1.00  0.00    -0.000 C 
BRANCH  24  25
HETATM   25  C   UNL     1     -22.750  -8.191 -22.899  1.00  0.00    -0.005 C 
HETATM   26  C   UNL     1     -22.040  -8.980 -21.818  1.00  0.00     0.005 C 
ENDBRANCH  24  25
ENDBRANCH  23  24
ENDBRANCH  22  23
ENDBRANCH  21  22
ENDBRANCH  20  21
ENDBRANCH  19  20
ENDBRANCH   1  19
BRANCH   1  27
HETATM   27  C   UNL     1     -27.020  -6.712 -16.146  1.00  0.00     0.007 C 
BRANCH  27  28
HETATM   28  C   UNL     1     -27.862  -5.520 -15.715  1.00  0.00     0.000 C 
BRANCH  28  29
HETATM   29  C   UNL     1     -27.221  -4.210 -16.129  1.00  0.00     0.000 C 
BRANCH  29  30
HETATM   30  C   UNL     1     -28.242  -3.356 -16.868  1.00  0.00     0.000 C 
BRANCH  30  31
HETATM   31  C   UNL     1     -29.223  -4.241 -17.614  1.00  0.00     0.000 C 
BRANCH  31  32
HETATM   32  C   UNL     1     -30.621  -3.648 -17.551  1.00  0.00     0.000 C 
BRANCH  32  33
HETATM   33  C   UNL     1     -31.634  -4.735 -17.225  1.00  0.00     0.000 C 
BRANCH  33  34
HETATM   34  C   UNL     1     -30.924  -6.024 -16.841  1.00  0.00    -0.000 C 
BRANCH  34  35
HETATM   35  C   UNL     1     -31.289  -7.146 -17.806  1.00  0.00    -0.005 C 
HETATM   36  C   UNL     1     -30.039  -7.778 -18.389  1.00  0.00     0.005 C 
ENDBRANCH  34  35
ENDBRANCH  33  34
ENDBRANCH  32  33
ENDBRANCH  31  32
ENDBRANCH  30  31
ENDBRANCH  29  30
ENDBRANCH  28  29
ENDBRANCH  27  28
ENDBRANCH   1  27
TORSDOF 31
BEGIN_RES ARG D 557
REMARK  4 active torsions:
REMARK  status: ('A' for Active; 'I' for Inactive)
REMARK    1  A    between atoms: CA   and  CB  
REMARK    2  A    between atoms: CB   and  CG  
REMARK    3  A    between atoms: CG   and  CD  
REMARK    4  A    between atoms: CD   and  NE  
REMARK       I    between atoms: NE   and  CZ  
REMARK       I    between atoms: CZ   and  NH1 
REMARK       I    between atoms: CZ   and  NH2 
ROOT
ATOM      1  CA  ARG D 557     -26.217   2.705 -17.014  1.00 35.49     0.159 C 
ENDROOT
BRANCH   1   2
ATOM      2  CB  ARG D 557     -26.789   1.319 -17.183  1.00 35.49     0.034 C 
BRANCH   2   3
ATOM      3  CG  ARG D 557     -25.852   0.197 -17.048  1.00 35.49     0.027 C 
BRANCH   3   4
ATOM      4  CD  ARG D 557     -26.133  -0.632 -15.854  1.00 35.49     0.116 C 
BRANCH   4   5
ATOM      5  NE  ARG D 557     -24.965  -0.814 -15.033  1.00 35.49    -0.212 N 
ATOM      6  CZ  ARG D 557     -24.780  -1.783 -14.164  1.00 35.49     0.666 C 
ATOM      7  NH1 ARG D 557     -25.687  -2.715 -13.938  1.00 35.49    -0.235 N 
ATOM      8  NH2 ARG D 557     -23.649  -1.805 -13.522  1.00 35.49    -0.235 N 
ATOM      9  HH  ARG D 557     -26.438  -2.721 -14.351  1.00 35.49     0.174 HD
ATOM     10  HH  ARG D 557     -25.510  -3.324 -13.361  1.00 35.49     0.174 HD
ATOM     11  HH  ARG D 557     -23.079  -1.195 -13.694  1.00 35.49     0.174 HD
ATOM     12  HH  ARG D 557     -23.492  -2.417 -12.956  1.00 35.49     0.174 HD
ATOM     13  HE  ARG D 557     -24.360  -0.218 -15.062  1.00 35.49     0.178 HD
ENDBRANCH   4   5
ENDBRANCH   3   4
ENDBRANCH   2   3
ENDBRANCH   1   2
END_RES ARG D 557
BEGIN_RES GLU D 570
REMARK  3 active torsions:
REMARK  status: ('A' for Active; 'I' for Inactive)
REMARK    5  A    between atoms: CA   and  CB  
REMARK    6  A    between atoms: CB   and  CG  
REMARK    7  A    between atoms: CG   and  CD  
ROOT
ATOM     14  CA  GLU D 570     -18.033  -6.348 -13.375  1.00 32.92     0.160 C 
ENDROOT
BRANCH  14  15
ATOM     15  CB  GLU D 570     -19.500  -6.345 -13.794  1.00 32.92     0.043 C 
BRANCH  15  16
ATOM     16  CG  GLU D 570     -20.078  -7.628 -14.271  1.00 32.92     0.100 C 
BRANCH  16  17
ATOM     17  CD  GLU D 570     -20.695  -7.521 -15.646  1.00 32.92     0.185 C 
ATOM     18  OE1 GLU D 570     -20.685  -6.420 -16.230  1.00 32.92    -0.647 OA
ATOM     19  OE2 GLU D 570     -21.207  -8.546 -16.138  1.00 32.92    -0.647 OA
ENDBRANCH  16  17
ENDBRANCH  15  16
ENDBRANCH  14  15
END_RES GLU D 570
ENDMDL
MODEL 5
REMARK VINA RESULT:      -6.7      9.335     16.846
REMARK  31 active torsions:
REMARK  status: ('A' for Active; 'I' for Inactive)
REMARK    1  A    between atoms: C_2  and  C_3 
REMARK    2  A    between atoms: C_3  and  C_4 
REMARK    3  A    between atoms: C_4  and  C_5 
REMARK    4  A    between atoms: C_5  and  C_6 
REMARK    5  A    between atoms: C_6  and  C_7 
REMARK    6  A    between atoms: C_7  and  C_8 
REMARK    7  A    between atoms: C_8  and  C_9 
REMARK    8  A    between atoms: C_9  and  C_10 
REMARK    9  A    between atoms: C_10  and  C_11 
REMARK   10  A    between atoms: C_11  and  C_12 
REMARK   11  A    between atoms: C_12  and  C_13 
REMARK   12  A    between atoms: C_13  and  C_14 
REMARK   13  A    between atoms: C_14  and  O_16 
REMARK   14  A    between atoms: O_16  and  C_17 
REMARK   15  A    between atoms: C_17  and  C_18 
REMARK   16  A    between atoms: C_18  and  C_19 
REMARK   17  A    between atoms: C_18  and  C_27 
REMARK   18  A    between atoms: C_19  and  C_20 
REMARK   19  A    between atoms: C_20  and  C_21 
REMARK   20  A    between atoms: C_21  and  C_22 
REMARK   21  A    between atoms: C_22  and  C_23 
REMARK   22  A    between atoms: C_23  and  C_24 
REMARK   23  A    between atoms: C_24  and  C_25 
REMARK   24  A    between atoms: C_27  and  C_28 
REMARK   25  A    between atoms: C_28  and  C_29 
REMARK   26  A    between atoms: C_29  and  C_30 
REMARK   27  A    between atoms: C_30  and  C_31 
REMARK   28  A    between atoms: C_31  and  C_32 
REMARK   29  A    between atoms: C_32  and  C_33 
REMARK   30  A    between atoms: C_33  and  C_34 
REMARK   31  A    between atoms: C_34  and  C_35 
ROOT
HETATM    1  C   UNL     1     -20.767  -7.000  -5.149  1.00  0.00     0.010 C 
ENDROOT
BRANCH   1   2
HETATM    2  C   UNL     1     -21.474  -8.357  -5.012  1.00  0.00     0.183 C 
BRANCH   2   3
HETATM    3  O   UNL     1     -20.934  -9.343  -5.902  1.00  0.00    -0.321 OA
BRANCH   3   4
HETATM    4  C   UNL     1     -21.143 -10.631  -5.484  1.00  0.00     0.258 C 
HETATM    5  O   UNL     1     -21.294 -11.588  -6.207  1.00  0.00    -0.265 OA
BRANCH   4   6
HETATM    6  C   UNL     1     -21.070 -10.687  -3.967  1.00  0.00     0.111 C 
BRANCH   6   7
HETATM    7  C   UNL     1     -19.806 -11.412  -3.535  1.00  0.00     0.010 C 
BRANCH   7   8
HETATM    8  C   UNL     1     -19.096 -10.726  -2.376  1.00  0.00     0.000 C 
BRANCH   8   9
HETATM    9  C   UNL     1     -18.582  -9.361  -2.827  1.00  0.00     0.000 C 
BRANCH   9  10
HETATM   10  C   UNL     1     -17.832  -9.471  -4.145  1.00  0.00     0.000 C 
BRANCH  10  11
HETATM   11  C   UNL     1     -16.364  -9.788  -3.898  1.00  0.00     0.000 C 
BRANCH  11  12
HETATM   12  C   UNL     1     -15.615  -9.873  -5.219  1.00  0.00     0.000 C 
BRANCH  12  13
HETATM   13  C   UNL     1     -16.129 -11.040  -6.047  1.00  0.00     0.000 C 
BRANCH  13  14
HETATM   14  C   UNL     1     -14.964 -11.867  -6.571  1.00  0.00     0.000 C 
BRANCH  14  15
HETATM   15  C   UNL     1     -14.984 -13.257  -5.952  1.00  0.00     0.000 C 
BRANCH  15  16
HETATM   16  C   UNL     1     -13.652 -13.561  -5.278  1.00  0.00    -0.000 C 
BRANCH  16  17
HETATM   17  C   UNL     1     -13.431 -12.638  -4.084  1.00  0.00    -0.005 C 
HETATM   18  C   UNL     1     -14.447 -12.919  -2.993  1.00  0.00     0.005 C 
ENDBRANCH  16  17
ENDBRANCH  15  16
ENDBRANCH  14  15
ENDBRANCH  13  14
ENDBRANCH  12  13
ENDBRANCH  11  12
ENDBRANCH  10  11
ENDBRANCH   9  10
ENDBRANCH   8   9
ENDBRANCH   7   8
ENDBRANCH   6   7
ENDBRANCH   4   6
ENDBRANCH   3   4
ENDBRANCH   2   3
ENDBRANCH   1   2
BRANCH   1  19
HETATM   19  C   UNL     1     -21.057  -6.329  -6.506  1.00  0.00     0.007 C 
BRANCH  19  20
HETATM   20  C   UNL     1     -20.407  -4.960  -6.631  1.00  0.00     0.000 C 
BRANCH  20  21
HETATM   21  C   UNL     1     -21.393  -3.917  -7.113  1.00  0.00     0.000 C 
BRANCH  21  22
HETATM   22  C   UNL     1     -21.552  -4.082  -8.614  1.00  0.00     0.000 C 
BRANCH  22  23
HETATM   23  C   UNL     1     -20.190  -4.150  -9.272  1.00  0.00     0.000 C 
BRANCH  23  24
HETATM   24  C   UNL     1     -20.349  -4.407 -10.759  1.00  0.00    -0.000 C 
BRANCH  24  25
HETATM   25  C   UNL     1     -21.517  -3.600 -11.305  1.00  0.00    -0.005 C 
HETATM   26  C   UNL     1     -22.343  -4.438 -12.260  1.00  0.00     0.005 C 
ENDBRANCH  24  25
ENDBRANCH  23  24
ENDBRANCH  22  23
ENDBRANCH  21  22
ENDBRANCH  20  21
ENDBRANCH  19  20
ENDBRANCH   1  19
BRANCH   1  27
HETATM   27  C   UNL     1     -21.197  -6.073  -3.998  1.00  0.00     0.007 C 
BRANCH  27  28
HETATM   28  C   UNL     1     -21.176  -6.770  -2.646  1.00  0.00     0.000 C 
BRANCH  28  29
HETATM   29  C   UNL     1     -22.304  -6.287  -1.755  1.00  0.00     0.000 C 
BRANCH  29  30
HETATM   30  C   UNL     1     -22.364  -7.146  -0.500  1.00  0.00     0.000 C 
BRANCH  30  31
HETATM   31  C   UNL     1     -21.275  -8.203  -0.536  1.00  0.00     0.000 C 
BRANCH  31  32
HETATM   32  C   UNL     1     -21.868  -9.579  -0.282  1.00  0.00     0.000 C 
BRANCH  32  33
HETATM   33  C   UNL     1     -23.332  -9.452   0.110  1.00  0.00     0.000 C 
BRANCH  33  34
HETATM   34  C   UNL     1     -24.064 -10.761  -0.141  1.00  0.00    -0.000 C 
BRANCH  34  35
HETATM   35  C   UNL     1     -23.633 -11.370  -1.471  1.00  0.00    -0.005 C 
HETATM   36  C   UNL     1     -23.474 -12.874  -1.344  1.00  0.00     0.005 C 
ENDBRANCH  34  35
ENDBRANCH  33  34
ENDBRANCH  32  33
ENDBRANCH  31  32
ENDBRANCH  30  31
ENDBRANCH  29  30
ENDBRANCH  28  29
ENDBRANCH  27  28
ENDBRANCH   1  27
TORSDOF 31
BEGIN_RES ARG D 557
REMARK  4 active torsions:
REMARK  status: ('A' for Active; 'I' for Inactive)
REMARK    1  A    between atoms: CA   and  CB  
REMARK    2  A    between atoms: CB   and  CG  
REMARK    3  A    between atoms: CG   and  CD  
REMARK    4  A    between atoms: CD   and  NE  
REMARK       I    between atoms: NE   and  CZ  
REMARK       I    between atoms: CZ   and  NH1 
REMARK       I    between atoms: CZ   and  NH2 
ROOT
ATOM      1  CA  ARG D 557     -26.217   2.705 -17.014  1.00 35.49     0.159 C 
ENDROOT
BRANCH   1   2
ATOM      2  CB  ARG D 557     -26.789   1.319 -17.183  1.00 35.49     0.034 C 
BRANCH   2   3
ATOM      3  CG  ARG D 557     -28.230   1.227 -17.448  1.00 35.49     0.027 C 
BRANCH   3   4
ATOM      4  CD  ARG D 557     -28.918   0.307 -16.512  1.00 35.49     0.116 C 
BRANCH   4   5
ATOM      5  NE  ARG D 557     -29.310  -0.922 -17.150  1.00 35.49    -0.212 N 
ATOM      6  CZ  ARG D 557     -28.690  -2.075 -17.042  1.00 35.49     0.666 C 
ATOM      7  NH1 ARG D 557     -27.594  -2.227 -16.321  1.00 35.49    -0.235 N 
ATOM      8  NH2 ARG D 557     -29.199  -3.092 -17.674  1.00 35.49    -0.235 N 
ATOM      9  HH  ARG D 557     -27.243  -1.571 -15.895  1.00 35.49     0.174 HD
ATOM     10  HH  ARG D 557     -27.235  -3.003 -16.285  1.00 35.49     0.174 HD
ATOM     11  HH  ARG D 557     -29.912  -2.967 -18.126  1.00 35.49     0.174 HD
ATOM     12  HH  ARG D 557     -28.829  -3.854 -17.625  1.00 35.49     0.174 HD
ATOM     13  HE  ARG D 557     -29.965  -0.899 -17.692  1.00 35.49     0.178 HD
ENDBRANCH   4   5
ENDBRANCH   3   4
ENDBRANCH   2   3
ENDBRANCH   1   2
END_RES ARG D 557
BEGIN_RES GLU D 570
REMARK  3 active torsions:
REMARK  status: ('A' for Active; 'I' for Inactive)
REMARK    5  A    between atoms: CA   and  CB  
REMARK    6  A    between atoms: CB   and  CG  
REMARK    7  A    between atoms: CG   and  CD  
ROOT
ATOM     14  CA  GLU D 570     -18.033  -6.348 -13.375  1.00 32.92     0.160 C 
ENDROOT
BRANCH  14  15
ATOM     15  CB  GLU D 570     -19.500  -6.345 -13.794  1.00 32.92     0.043 C 
BRANCH  15  16
ATOM     16  CG  GLU D 570     -19.798  -6.189 -15.241  1.00 32.92     0.100 C 
BRANCH  16  17
ATOM     17  CD  GLU D 570     -20.687  -7.284 -15.781  1.00 32.92     0.185 C 
ATOM     18  OE1 GLU D 570     -21.451  -7.031 -16.733  1.00 32.92    -0.647 OA
ATOM     19  OE2 GLU D 570     -20.632  -8.404 -15.236  1.00 32.92    -0.647 OA
ENDBRANCH  16  17
ENDBRANCH  15  16
ENDBRANCH  14  15
END_RES GLU D 570
ENDMDL
MODEL 6
REMARK VINA RESULT:      -6.6      8.814     15.816
REMARK  31 active torsions:
REMARK  status: ('A' for Active; 'I' for Inactive)
REMARK    1  A    between atoms: C_2  and  C_3 
REMARK    2  A    between atoms: C_3  and  C_4 
REMARK    3  A    between atoms: C_4  and  C_5 
REMARK    4  A    between atoms: C_5  and  C_6 
REMARK    5  A    between atoms: C_6  and  C_7 
REMARK    6  A    between atoms: C_7  and  C_8 
REMARK    7  A    between atoms: C_8  and  C_9 
REMARK    8  A    between atoms: C_9  and  C_10 
REMARK    9  A    between atoms: C_10  and  C_11 
REMARK   10  A    between atoms: C_11  and  C_12 
REMARK   11  A    between atoms: C_12  and  C_13 
REMARK   12  A    between atoms: C_13  and  C_14 
REMARK   13  A    between atoms: C_14  and  O_16 
REMARK   14  A    between atoms: O_16  and  C_17 
REMARK   15  A    between atoms: C_17  and  C_18 
REMARK   16  A    between atoms: C_18  and  C_19 
REMARK   17  A    between atoms: C_18  and  C_27 
REMARK   18  A    between atoms: C_19  and  C_20 
REMARK   19  A    between atoms: C_20  and  C_21 
REMARK   20  A    between atoms: C_21  and  C_22 
REMARK   21  A    between atoms: C_22  and  C_23 
REMARK   22  A    between atoms: C_23  and  C_24 
REMARK   23  A    between atoms: C_24  and  C_25 
REMARK   24  A    between atoms: C_27  and  C_28 
REMARK   25  A    between atoms: C_28  and  C_29 
REMARK   26  A    between atoms: C_29  and  C_30 
REMARK   27  A    between atoms: C_30  and  C_31 
REMARK   28  A    between atoms: C_31  and  C_32 
REMARK   29  A    between atoms: C_32  and  C_33 
REMARK   30  A    between atoms: C_33  and  C_34 
REMARK   31  A    between atoms: C_34  and  C_35 
ROOT
HETATM    1  C   UNL     1     -21.580  -6.923  -4.669  1.00  0.00     0.010 C 
ENDROOT
BRANCH   1   2
HETATM    2  C   UNL     1     -20.616  -8.112  -4.802  1.00  0.00     0.183 C 
BRANCH   2   3
HETATM    3  O   UNL     1     -21.037  -9.043  -5.808  1.00  0.00    -0.321 OA
BRANCH   3   4
HETATM    4  C   UNL     1     -21.304 -10.294  -5.319  1.00  0.00     0.258 C 
HETATM    5  O   UNL     1     -21.378 -11.305  -5.978  1.00  0.00    -0.265 OA
BRANCH   4   6
HETATM    6  C   UNL     1     -21.408 -10.232  -3.804  1.00  0.00     0.111 C 
BRANCH   6   7
HETATM    7  C   UNL     1     -20.874 -11.518  -3.194  1.00  0.00     0.010 C 
BRANCH   7   8
HETATM    8  C   UNL     1     -19.371 -11.481  -2.953  1.00  0.00     0.000 C 
BRANCH   8   9
HETATM    9  C   UNL     1     -19.009 -10.223  -2.168  1.00  0.00     0.000 C 
BRANCH   9  10
HETATM   10  C   UNL     1     -17.795  -9.536  -2.772  1.00  0.00     0.000 C 
BRANCH  10  11
HETATM   11  C   UNL     1     -16.518 -10.262  -2.372  1.00  0.00     0.000 C 
BRANCH  11  12
HETATM   12  C   UNL     1     -15.785 -10.758  -3.609  1.00  0.00     0.000 C 
BRANCH  12  13
HETATM   13  C   UNL     1     -15.754  -9.676  -4.677  1.00  0.00     0.000 C 
BRANCH  13  14
HETATM   14  C   UNL     1     -16.127 -10.263  -6.031  1.00  0.00     0.000 C 
BRANCH  14  15
HETATM   15  C   UNL     1     -17.638 -10.263  -6.208  1.00  0.00     0.000 C 
BRANCH  15  16
HETATM   16  C   UNL     1     -18.104 -11.575  -6.825  1.00  0.00    -0.000 C 
BRANCH  16  17
HETATM   17  C   UNL     1     -17.723 -12.754  -5.934  1.00  0.00    -0.005 C 
HETATM   18  C   UNL     1     -17.025 -13.832  -6.740  1.00  0.00     0.005 C 
ENDBRANCH  16  17
ENDBRANCH  15  16
ENDBRANCH  14  15
ENDBRANCH  13  14
ENDBRANCH  12  13
ENDBRANCH  11  12
ENDBRANCH  10  11
ENDBRANCH   9  10
ENDBRANCH   8   9
ENDBRANCH   7   8
ENDBRANCH   6   7
ENDBRANCH   4   6
ENDBRANCH   3   4
ENDBRANCH   2   3
ENDBRANCH   1   2
BRANCH   1  19
HETATM   19  C   UNL     1     -21.248  -6.040  -3.450  1.00  0.00     0.007 C 
BRANCH  19  20
HETATM   20  C   UNL     1     -22.086  -6.389  -2.230  1.00  0.00     0.000 C 
BRANCH  20  21
HETATM   21  C   UNL     1     -21.381  -7.389  -1.338  1.00  0.00     0.000 C 
BRANCH  21  22
HETATM   22  C   UNL     1     -22.356  -7.822  -0.258  1.00  0.00     0.000 C 
BRANCH  22  23
HETATM   23  C   UNL     1     -21.694  -8.822   0.664  1.00  0.00     0.000 C 
BRANCH  23  24
HETATM   24  C   UNL     1     -21.971 -10.234   0.178  1.00  0.00    -0.000 C 
BRANCH  24  25
HETATM   25  C   UNL     1     -23.391 -10.330  -0.357  1.00  0.00    -0.005 C 
HETATM   26  C   UNL     1     -23.875 -11.766  -0.327  1.00  0.00     0.005 C 
ENDBRANCH  24  25
ENDBRANCH  23  24
ENDBRANCH  22  23
ENDBRANCH  21  22
ENDBRANCH  20  21
ENDBRANCH  19  20
ENDBRANCH   1  19
BRANCH   1  27
HETATM   27  C   UNL     1     -21.546  -6.081  -5.956  1.00  0.00     0.007 C 
BRANCH  27  28
HETATM   28  C   UNL     1     -20.156  -5.545  -6.268  1.00  0.00     0.000 C 
BRANCH  28  29
HETATM   29  C   UNL     1     -20.183  -4.584  -7.441  1.00  0.00     0.000 C 
BRANCH  29  30
HETATM   30  C   UNL     1     -21.545  -3.908  -7.513  1.00  0.00     0.000 C 
BRANCH  30  31
HETATM   31  C   UNL     1     -22.063  -3.924  -8.939  1.00  0.00     0.000 C 
BRANCH  31  32
HETATM   32  C   UNL     1     -20.973  -4.385  -9.892  1.00  0.00     0.000 C 
BRANCH  32  33
HETATM   33  C   UNL     1     -20.868  -3.425 -11.068  1.00  0.00     0.000 C 
BRANCH  33  34
HETATM   34  C   UNL     1     -21.933  -3.743 -12.107  1.00  0.00    -0.000 C 
BRANCH  34  35
HETATM   35  C   UNL     1     -22.956  -2.616 -12.189  1.00  0.00    -0.005 C 
HETATM   36  C   UNL     1     -23.650  -2.622 -13.538  1.00  0.00     0.005 C 
ENDBRANCH  34  35
ENDBRANCH  33  34
ENDBRANCH  32  33
ENDBRANCH  31  32
ENDBRANCH  30  31
ENDBRANCH  29  30
ENDBRANCH  28  29
ENDBRANCH  27  28
ENDBRANCH   1  27
TORSDOF 31
BEGIN_RES ARG D 557
REMARK  4 active torsions:
REMARK  status: ('A' for Active; 'I' for Inactive)
REMARK    1  A    between atoms: CA   and  CB  
REMARK    2  A    between atoms: CB   and  CG  
REMARK    3  A    between atoms: CG   and  CD  
REMARK    4  A    between atoms: CD   and  NE  
REMARK       I    between atoms: NE   and  CZ  
REMARK       I    between atoms: CZ   and  NH1 
REMARK       I    between atoms: CZ   and  NH2 
ROOT
ATOM      1  CA  ARG D 557     -26.217   2.705 -17.014  1.00 35.49     0.159 C 
ENDROOT
BRANCH   1   2
ATOM      2  CB  ARG D 557     -26.789   1.319 -17.183  1.00 35.49     0.034 C 
BRANCH   2   3
ATOM      3  CG  ARG D 557     -28.234   1.226 -17.427  1.00 35.49     0.027 C 
BRANCH   3   4
ATOM      4  CD  ARG D 557     -28.906   0.302 -16.485  1.00 35.49     0.116 C 
BRANCH   4   5
ATOM      5  NE  ARG D 557     -29.302  -0.927 -17.121  1.00 35.49    -0.212 N 
ATOM      6  CZ  ARG D 557     -28.673  -2.078 -17.026  1.00 35.49     0.666 C 
ATOM      7  NH1 ARG D 557     -27.565  -2.225 -16.324  1.00 35.49    -0.235 N 
ATOM      8  NH2 ARG D 557     -29.187  -3.096 -17.654  1.00 35.49    -0.235 N 
ATOM      9  HH  ARG D 557     -27.211  -1.569 -15.901  1.00 35.49     0.174 HD
ATOM     10  HH  ARG D 557     -27.201  -2.999 -16.296  1.00 35.49     0.174 HD
ATOM     11  HH  ARG D 557     -29.907  -2.973 -18.093  1.00 35.49     0.174 HD
ATOM     12  HH  ARG D 557     -28.812  -3.855 -17.613  1.00 35.49     0.174 HD
ATOM     13  HE  ARG D 557     -29.966  -0.907 -17.652  1.00 35.49     0.178 HD
ENDBRANCH   4   5
ENDBRANCH   3   4
ENDBRANCH   2   3
ENDBRANCH   1   2
END_RES ARG D 557
BEGIN_RES GLU D 570
REMARK  3 active torsions:
REMARK  status: ('A' for Active; 'I' for Inactive)
REMARK    5  A    between atoms: CA   and  CB  
REMARK    6  A    between atoms: CB   and  CG  
REMARK    7  A    between atoms: CG   and  CD  
ROOT
ATOM     14  CA  GLU D 570     -18.033  -6.348 -13.375  1.00 32.92     0.160 C 
ENDROOT
BRANCH  14  15
ATOM     15  CB  GLU D 570     -19.500  -6.345 -13.794  1.00 32.92     0.043 C 
BRANCH  15  16
ATOM     16  CG  GLU D 570     -19.797  -6.237 -15.246  1.00 32.92     0.100 C 
BRANCH  16  17
ATOM     17  CD  GLU D 570     -21.234  -5.864 -15.527  1.00 32.92     0.185 C 
ATOM     18  OE1 GLU D 570     -21.489  -4.730 -15.975  1.00 32.92    -0.647 OA
ATOM     19  OE2 GLU D 570     -22.116  -6.710 -15.281  1.00 32.92    -0.647 OA
ENDBRANCH  16  17
ENDBRANCH  15  16
ENDBRANCH  14  15
END_RES GLU D 570
ENDMDL
MODEL 7
REMARK VINA RESULT:      -6.5     10.006     17.128
REMARK  31 active torsions:
REMARK  status: ('A' for Active; 'I' for Inactive)
REMARK    1  A    between atoms: C_2  and  C_3 
REMARK    2  A    between atoms: C_3  and  C_4 
REMARK    3  A    between atoms: C_4  and  C_5 
REMARK    4  A    between atoms: C_5  and  C_6 
REMARK    5  A    between atoms: C_6  and  C_7 
REMARK    6  A    between atoms: C_7  and  C_8 
REMARK    7  A    between atoms: C_8  and  C_9 
REMARK    8  A    between atoms: C_9  and  C_10 
REMARK    9  A    between atoms: C_10  and  C_11 
REMARK   10  A    between atoms: C_11  and  C_12 
REMARK   11  A    between atoms: C_12  and  C_13 
REMARK   12  A    between atoms: C_13  and  C_14 
REMARK   13  A    between atoms: C_14  and  O_16 
REMARK   14  A    between atoms: O_16  and  C_17 
REMARK   15  A    between atoms: C_17  and  C_18 
REMARK   16  A    between atoms: C_18  and  C_19 
REMARK   17  A    between atoms: C_18  and  C_27 
REMARK   18  A    between atoms: C_19  and  C_20 
REMARK   19  A    between atoms: C_20  and  C_21 
REMARK   20  A    between atoms: C_21  and  C_22 
REMARK   21  A    between atoms: C_22  and  C_23 
REMARK   22  A    between atoms: C_23  and  C_24 
REMARK   23  A    between atoms: C_24  and  C_25 
REMARK   24  A    between atoms: C_27  and  C_28 
REMARK   25  A    between atoms: C_28  and  C_29 
REMARK   26  A    between atoms: C_29  and  C_30 
REMARK   27  A    between atoms: C_30  and  C_31 
REMARK   28  A    between atoms: C_31  and  C_32 
REMARK   29  A    between atoms: C_32  and  C_33 
REMARK   30  A    between atoms: C_33  and  C_34 
REMARK   31  A    between atoms: C_34  and  C_35 
ROOT
HETATM    1  C   UNL     1     -20.712  -7.491  -4.714  1.00  0.00     0.010 C 
ENDROOT
BRANCH   1   2
HETATM    2  C   UNL     1     -21.107  -8.909  -5.154  1.00  0.00     0.183 C 
BRANCH   2   3
HETATM    3  O   UNL     1     -21.870  -9.596  -4.153  1.00  0.00    -0.321 OA
BRANCH   3   4
HETATM    4  C   UNL     1     -21.467 -10.889  -3.949  1.00  0.00     0.258 C 
HETATM    5  O   UNL     1     -22.154 -11.872  -4.104  1.00  0.00    -0.265 OA
BRANCH   4   6
HETATM    6  C   UNL     1     -19.993 -10.906  -3.578  1.00  0.00     0.111 C 
BRANCH   6   7
HETATM    7  C   UNL     1     -19.832 -10.692  -2.082  1.00  0.00     0.010 C 
BRANCH   7   8
HETATM    8  C   UNL     1     -19.763 -11.997  -1.300  1.00  0.00     0.000 C 
BRANCH   8   9
HETATM    9  C   UNL     1     -19.139 -11.741   0.069  1.00  0.00     0.000 C 
BRANCH   9  10
HETATM   10  C   UNL     1     -17.900 -12.598   0.271  1.00  0.00     0.000 C 
BRANCH  10  11
HETATM   11  C   UNL     1     -16.656 -11.854  -0.198  1.00  0.00     0.000 C 
BRANCH  11  12
HETATM   12  C   UNL     1     -15.916 -12.674  -1.243  1.00  0.00     0.000 C 
BRANCH  12  13
HETATM   13  C   UNL     1     -15.646 -11.838  -2.483  1.00  0.00     0.000 C 
BRANCH  13  14
HETATM   14  C   UNL     1     -16.180 -10.425  -2.291  1.00  0.00     0.000 C 
BRANCH  14  15
HETATM   15  C   UNL     1     -16.168  -9.672  -3.613  1.00  0.00     0.000 C 
BRANCH  15  16
HETATM   16  C   UNL     1     -15.668 -10.571  -4.735  1.00  0.00    -0.000 C 
BRANCH  16  17
HETATM   17  C   UNL     1     -16.775 -10.829  -5.752  1.00  0.00    -0.005 C 
HETATM   18  C   UNL     1     -17.533  -9.551  -6.056  1.00  0.00     0.005 C 
ENDBRANCH  16  17
ENDBRANCH  15  16
ENDBRANCH  14  15
ENDBRANCH  13  14
ENDBRANCH  12  13
ENDBRANCH  11  12
ENDBRANCH  10  11
ENDBRANCH   9  10
ENDBRANCH   8   9
ENDBRANCH   7   8
ENDBRANCH   6   7
ENDBRANCH   4   6
ENDBRANCH   3   4
ENDBRANCH   2   3
ENDBRANCH   1   2
BRANCH   1  19
HETATM   19  C   UNL     1     -20.202  -6.639  -5.893  1.00  0.00     0.007 C 
BRANCH  19  20
HETATM   20  C   UNL     1     -21.309  -5.827  -6.548  1.00  0.00     0.000 C 
BRANCH  20  21
HETATM   21  C   UNL     1     -20.884  -4.393  -6.780  1.00  0.00     0.000 C 
BRANCH  21  22
HETATM   22  C   UNL     1     -21.141  -4.060  -8.239  1.00  0.00     0.000 C 
BRANCH  22  23
HETATM   23  C   UNL     1     -19.976  -4.522  -9.086  1.00  0.00     0.000 C 
BRANCH  23  24
HETATM   24  C   UNL     1     -20.354  -4.471 -10.556  1.00  0.00    -0.000 C 
BRANCH  24  25
HETATM   25  C   UNL     1     -21.625  -3.655 -10.738  1.00  0.00    -0.005 C 
HETATM   26  C   UNL     1     -22.523  -4.295 -11.777  1.00  0.00     0.005 C 
ENDBRANCH  24  25
ENDBRANCH  23  24
ENDBRANCH  22  23
ENDBRANCH  21  22
ENDBRANCH  20  21
ENDBRANCH  19  20
ENDBRANCH   1  19
BRANCH   1  27
HETATM   27  C   UNL     1     -21.914  -6.802  -4.045  1.00  0.00     0.007 C 
BRANCH  27  28
HETATM   28  C   UNL     1     -21.590  -6.281  -2.653  1.00  0.00     0.000 C 
BRANCH  28  29
HETATM   29  C   UNL     1     -21.590  -7.399  -1.628  1.00  0.00     0.000 C 
BRANCH  29  30
HETATM   30  C   UNL     1     -22.447  -6.996  -0.437  1.00  0.00     0.000 C 
BRANCH  30  31
HETATM   31  C   UNL     1     -22.856  -8.224   0.355  1.00  0.00     0.000 C 
BRANCH  31  32
HETATM   32  C   UNL     1     -22.752  -9.469  -0.512  1.00  0.00     0.000 C 
BRANCH  32  33
HETATM   33  C   UNL     1     -23.777 -10.501  -0.066  1.00  0.00     0.000 C 
BRANCH  33  34
HETATM   34  C   UNL     1     -23.949 -11.570  -1.134  1.00  0.00    -0.000 C 
BRANCH  34  35
HETATM   35  C   UNL     1     -23.482 -12.926  -0.617  1.00  0.00    -0.005 C 
HETATM   36  C   UNL     1     -23.188 -12.858   0.870  1.00  0.00     0.005 C 
ENDBRANCH  34  35
ENDBRANCH  33  34
ENDBRANCH  32  33
ENDBRANCH  31  32
ENDBRANCH  30  31
ENDBRANCH  29  30
ENDBRANCH  28  29
ENDBRANCH  27  28
ENDBRANCH   1  27
TORSDOF 31
BEGIN_RES ARG D 557
REMARK  4 active torsions:
REMARK  status: ('A' for Active; 'I' for Inactive)
REMARK    1  A    between atoms: CA   and  CB  
REMARK    2  A    between atoms: CB   and  CG  
REMARK    3  A    between atoms: CG   and  CD  
REMARK    4  A    between atoms: CD   and  NE  
REMARK       I    between atoms: NE   and  CZ  
REMARK       I    between atoms: CZ   and  NH1 
REMARK       I    between atoms: CZ   and  NH2 
ROOT
ATOM      1  CA  ARG D 557     -26.217   2.705 -17.014  1.00 35.49     0.159 C 
ENDROOT
BRANCH   1   2
ATOM      2  CB  ARG D 557     -26.789   1.319 -17.183  1.00 35.49     0.034 C 
BRANCH   2   3
ATOM      3  CG  ARG D 557     -28.149   1.099 -16.675  1.00 35.49     0.027 C 
BRANCH   3   4
ATOM      4  CD  ARG D 557     -28.789  -0.093 -17.276  1.00 35.49     0.116 C 
BRANCH   4   5
ATOM      5  NE  ARG D 557     -28.166  -1.318 -16.848  1.00 35.49    -0.212 N 
ATOM      6  CZ  ARG D 557     -28.644  -2.528 -17.032  1.00 35.49     0.666 C 
ATOM      7  NH1 ARG D 557     -29.795  -2.751 -17.640  1.00 35.49    -0.235 N 
ATOM      8  NH2 ARG D 557     -27.933  -3.527 -16.596  1.00 35.49    -0.235 N 
ATOM      9  HH  ARG D 557     -30.278  -2.109 -17.937  1.00 35.49     0.174 HD
ATOM     10  HH  ARG D 557     -30.055  -3.562 -17.734  1.00 35.49     0.174 HD
ATOM     11  HH  ARG D 557     -27.191  -3.353 -16.214  1.00 35.49     0.174 HD
ATOM     12  HH  ARG D 557     -28.207  -4.323 -16.700  1.00 35.49     0.174 HD
ATOM     13  HE  ARG D 557     -27.456  -1.263 -16.384  1.00 35.49     0.178 HD
ENDBRANCH   4   5
ENDBRANCH   3   4
ENDBRANCH   2   3
ENDBRANCH   1   2
END_RES ARG D 557
BEGIN_RES GLU D 570
REMARK  3 active torsions:
REMARK  status: ('A' for Active; 'I' for Inactive)
REMARK    5  A    between atoms: CA   and  CB  
REMARK    6  A    between atoms: CB   and  CG  
REMARK    7  A    between atoms: CG   and  CD  
ROOT
ATOM     14  CA  GLU D 570     -18.033  -6.348 -13.375  1.00 32.92     0.160 C 
ENDROOT
BRANCH  14  15
ATOM     15  CB  GLU D 570     -19.500  -6.345 -13.794  1.00 32.92     0.043 C 
BRANCH  15  16
ATOM     16  CG  GLU D 570     -20.088  -7.635 -14.238  1.00 32.92     0.100 C 
BRANCH  16  17
ATOM     17  CD  GLU D 570     -20.685  -7.565 -15.625  1.00 32.92     0.185 C 
ATOM     18  OE1 GLU D 570     -20.603  -6.499 -16.265  1.00 32.92    -0.647 OA
ATOM     19  OE2 GLU D 570     -21.254  -8.581 -16.068  1.00 32.92    -0.647 OA
ENDBRANCH  16  17
ENDBRANCH  15  16
ENDBRANCH  14  15
END_RES GLU D 570
ENDMDL
MODEL 8
REMARK VINA RESULT:      -6.5      9.081     16.519
REMARK  31 active torsions:
REMARK  status: ('A' for Active; 'I' for Inactive)
REMARK    1  A    between atoms: C_2  and  C_3 
REMARK    2  A    between atoms: C_3  and  C_4 
REMARK    3  A    between atoms: C_4  and  C_5 
REMARK    4  A    between atoms: C_5  and  C_6 
REMARK    5  A    between atoms: C_6  and  C_7 
REMARK    6  A    between atoms: C_7  and  C_8 
REMARK    7  A    between atoms: C_8  and  C_9 
REMARK    8  A    between atoms: C_9  and  C_10 
REMARK    9  A    between atoms: C_10  and  C_11 
REMARK   10  A    between atoms: C_11  and  C_12 
REMARK   11  A    between atoms: C_12  and  C_13 
REMARK   12  A    between atoms: C_13  and  C_14 
REMARK   13  A    between atoms: C_14  and  O_16 
REMARK   14  A    between atoms: O_16  and  C_17 
REMARK   15  A    between atoms: C_17  and  C_18 
REMARK   16  A    between atoms: C_18  and  C_19 
REMARK   17  A    between atoms: C_18  and  C_27 
REMARK   18  A    between atoms: C_19  and  C_20 
REMARK   19  A    between atoms: C_20  and  C_21 
REMARK   20  A    between atoms: C_21  and  C_22 
REMARK   21  A    between atoms: C_22  and  C_23 
REMARK   22  A    between atoms: C_23  and  C_24 
REMARK   23  A    between atoms: C_24  and  C_25 
REMARK   24  A    between atoms: C_27  and  C_28 
REMARK   25  A    between atoms: C_28  and  C_29 
REMARK   26  A    between atoms: C_29  and  C_30 
REMARK   27  A    between atoms: C_30  and  C_31 
REMARK   28  A    between atoms: C_31  and  C_32 
REMARK   29  A    between atoms: C_32  and  C_33 
REMARK   30  A    between atoms: C_33  and  C_34 
REMARK   31  A    between atoms: C_34  and  C_35 
ROOT
HETATM    1  C   UNL     1     -20.701  -7.017  -5.270  1.00  0.00     0.010 C 
ENDROOT
BRANCH   1   2
HETATM    2  C   UNL     1     -21.443  -8.362  -5.241  1.00  0.00     0.183 C 
BRANCH   2   3
HETATM    3  O   UNL     1     -20.676  -9.418  -5.834  1.00  0.00    -0.321 OA
BRANCH   3   4
HETATM    4  C   UNL     1     -21.144 -10.671  -5.534  1.00  0.00     0.258 C 
HETATM    5  O   UNL     1     -21.427 -11.526  -6.340  1.00  0.00    -0.265 OA
BRANCH   4   6
HETATM    6  C   UNL     1     -21.170 -10.851  -4.025  1.00  0.00     0.111 C 
BRANCH   6   7
HETATM    7  C   UNL     1     -19.842 -11.413  -3.546  1.00  0.00     0.010 C 
BRANCH   7   8
HETATM    8  C   UNL     1     -19.287 -10.675  -2.335  1.00  0.00     0.000 C 
BRANCH   8   9
HETATM    9  C   UNL     1     -18.746  -9.315  -2.768  1.00  0.00     0.000 C 
BRANCH   9  10
HETATM   10  C   UNL     1     -17.686  -9.471  -3.847  1.00  0.00     0.000 C 
BRANCH  10  11
HETATM   11  C   UNL     1     -16.325  -9.743  -3.221  1.00  0.00     0.000 C 
BRANCH  11  12
HETATM   12  C   UNL     1     -15.548 -10.743  -4.064  1.00  0.00     0.000 C 
BRANCH  12  13
HETATM   13  C   UNL     1     -15.659 -10.393  -5.539  1.00  0.00     0.000 C 
BRANCH  13  14
HETATM   14  C   UNL     1     -15.725 -11.662  -6.378  1.00  0.00     0.000 C 
BRANCH  14  15
HETATM   15  C   UNL     1     -16.813 -12.586  -5.851  1.00  0.00     0.000 C 
BRANCH  15  16
HETATM   16  C   UNL     1     -18.082 -12.443  -6.680  1.00  0.00    -0.000 C 
BRANCH  16  17
HETATM   17  C   UNL     1     -17.831 -12.861  -8.125  1.00  0.00    -0.005 C 
HETATM   18  C   UNL     1     -19.134 -13.213  -8.817  1.00  0.00     0.005 C 
ENDBRANCH  16  17
ENDBRANCH  15  16
ENDBRANCH  14  15
ENDBRANCH  13  14
ENDBRANCH  12  13
ENDBRANCH  11  12
ENDBRANCH  10  11
ENDBRANCH   9  10
ENDBRANCH   8   9
ENDBRANCH   7   8
ENDBRANCH   6   7
ENDBRANCH   4   6
ENDBRANCH   3   4
ENDBRANCH   2   3
ENDBRANCH   1   2
BRANCH   1  19
HETATM   19  C   UNL     1     -20.958  -6.241  -6.576  1.00  0.00     0.007 C 
BRANCH  19  20
HETATM   20  C   UNL     1     -19.686  -6.012  -7.378  1.00  0.00     0.000 C 
BRANCH  20  21
HETATM   21  C   UNL     1     -19.246  -4.564  -7.322  1.00  0.00     0.000 C 
BRANCH  21  22
HETATM   22  C   UNL     1     -20.259  -3.737  -8.093  1.00  0.00     0.000 C 
BRANCH  22  23
HETATM   23  C   UNL     1     -20.320  -4.206  -9.531  1.00  0.00     0.000 C 
BRANCH  23  24
HETATM   24  C   UNL     1     -21.746  -4.113 -10.043  1.00  0.00    -0.000 C 
BRANCH  24  25
HETATM   25  C   UNL     1     -22.675  -3.678  -8.921  1.00  0.00    -0.005 C 
HETATM   26  C   UNL     1     -24.114  -3.660  -9.397  1.00  0.00     0.005 C 
ENDBRANCH  24  25
ENDBRANCH  23  24
ENDBRANCH  22  23
ENDBRANCH  21  22
ENDBRANCH  20  21
ENDBRANCH  19  20
ENDBRANCH   1  19
BRANCH   1  27
HETATM   27  C   UNL     1     -21.123  -6.166  -4.059  1.00  0.00     0.007 C 
BRANCH  27  28
HETATM   28  C   UNL     1     -21.513  -7.013  -2.856  1.00  0.00     0.000 C 
BRANCH  28  29
HETATM   29  C   UNL     1     -22.278  -6.200  -1.829  1.00  0.00     0.000 C 
BRANCH  29  30
HETATM   30  C   UNL     1     -22.351  -6.973  -0.521  1.00  0.00     0.000 C 
BRANCH  30  31
HETATM   31  C   UNL     1     -21.305  -8.072  -0.502  1.00  0.00     0.000 C 
BRANCH  31  32
HETATM   32  C   UNL     1     -21.315  -8.787   0.839  1.00  0.00     0.000 C 
BRANCH  32  33
HETATM   33  C   UNL     1     -21.447 -10.288   0.628  1.00  0.00     0.000 C 
BRANCH  33  34
HETATM   34  C   UNL     1     -22.516 -10.585  -0.413  1.00  0.00    -0.000 C 
BRANCH  34  35
HETATM   35  C   UNL     1     -23.446 -11.691   0.074  1.00  0.00    -0.005 C 
HETATM   36  C   UNL     1     -23.953 -12.515  -1.094  1.00  0.00     0.005 C 
ENDBRANCH  34  35
ENDBRANCH  33  34
ENDBRANCH  32  33
ENDBRANCH  31  32
ENDBRANCH  30  31
ENDBRANCH  29  30
ENDBRANCH  28  29
ENDBRANCH  27  28
ENDBRANCH   1  27
TORSDOF 31
BEGIN_RES ARG D 557
REMARK  4 active torsions:
REMARK  status: ('A' for Active; 'I' for Inactive)
REMARK    1  A    between atoms: CA   and  CB  
REMARK    2  A    between atoms: CB   and  CG  
REMARK    3  A    between atoms: CG   and  CD  
REMARK    4  A    between atoms: CD   and  NE  
REMARK       I    between atoms: NE   and  CZ  
REMARK       I    between atoms: CZ   and  NH1 
REMARK       I    between atoms: CZ   and  NH2 
ROOT
ATOM      1  CA  ARG D 557     -26.217   2.705 -17.014  1.00 35.49     0.159 C 
ENDROOT
BRANCH   1   2
ATOM      2  CB  ARG D 557     -26.789   1.319 -17.183  1.00 35.49     0.034 C 
BRANCH   2   3
ATOM      3  CG  ARG D 557     -28.251   1.196 -17.126  1.00 35.49     0.027 C 
BRANCH   3   4
ATOM      4  CD  ARG D 557     -28.686  -0.089 -16.533  1.00 35.49     0.116 C 
BRANCH   4   5
ATOM      5  NE  ARG D 557     -27.592  -0.809 -15.936  1.00 35.49    -0.212 N 
ATOM      6  CZ  ARG D 557     -27.344  -2.091 -16.087  1.00 35.49     0.666 C 
ATOM      7  NH1 ARG D 557     -28.109  -2.881 -16.817  1.00 35.49    -0.235 N 
ATOM      8  NH2 ARG D 557     -26.294  -2.573 -15.488  1.00 35.49    -0.235 N 
ATOM      9  HH  ARG D 557     -28.804  -2.585 -17.222  1.00 35.49     0.174 HD
ATOM     10  HH  ARG D 557     -27.896  -3.709 -16.881  1.00 35.49     0.174 HD
ATOM     11  HH  ARG D 557     -25.814  -2.038 -15.029  1.00 35.49     0.174 HD
ATOM     12  HH  ARG D 557     -26.098  -3.395 -15.564  1.00 35.49     0.174 HD
ATOM     13  HE  ARG D 557     -27.090  -0.393 -15.391  1.00 35.49     0.178 HD
ENDBRANCH   4   5
ENDBRANCH   3   4
ENDBRANCH   2   3
ENDBRANCH   1   2
END_RES ARG D 557
BEGIN_RES GLU D 570
REMARK  3 active torsions:
REMARK  status: ('A' for Active; 'I' for Inactive)
REMARK    5  A    between atoms: CA   and  CB  
REMARK    6  A    between atoms: CB   and  CG  
REMARK    7  A    between atoms: CG   and  CD  
ROOT
ATOM     14  CA  GLU D 570     -18.033  -6.348 -13.375  1.00 32.92     0.160 C 
ENDROOT
BRANCH  14  15
ATOM     15  CB  GLU D 570     -19.500  -6.345 -13.794  1.00 32.92     0.043 C 
BRANCH  15  16
ATOM     16  CG  GLU D 570     -20.120  -7.654 -14.125  1.00 32.92     0.100 C 
BRANCH  16  17
ATOM     17  CD  GLU D 570     -20.794  -7.662 -15.477  1.00 32.92     0.185 C 
ATOM     18  OE1 GLU D 570     -20.694  -8.674 -16.197  1.00 32.92    -0.647 OA
ATOM     19  OE2 GLU D 570     -21.415  -6.639 -15.826  1.00 32.92    -0.647 OA
ENDBRANCH  16  17
ENDBRANCH  15  16
ENDBRANCH  14  15
END_RES GLU D 570
ENDMDL
MODEL 9
REMARK VINA RESULT:      -6.5     10.025     16.029
REMARK  31 active torsions:
REMARK  status: ('A' for Active; 'I' for Inactive)
REMARK    1  A    between atoms: C_2  and  C_3 
REMARK    2  A    between atoms: C_3  and  C_4 
REMARK    3  A    between atoms: C_4  and  C_5 
REMARK    4  A    between atoms: C_5  and  C_6 
REMARK    5  A    between atoms: C_6  and  C_7 
REMARK    6  A    between atoms: C_7  and  C_8 
REMARK    7  A    between atoms: C_8  and  C_9 
REMARK    8  A    between atoms: C_9  and  C_10 
REMARK    9  A    between atoms: C_10  and  C_11 
REMARK   10  A    between atoms: C_11  and  C_12 
REMARK   11  A    between atoms: C_12  and  C_13 
REMARK   12  A    between atoms: C_13  and  C_14 
REMARK   13  A    between atoms: C_14  and  O_16 
REMARK   14  A    between atoms: O_16  and  C_17 
REMARK   15  A    between atoms: C_17  and  C_18 
REMARK   16  A    between atoms: C_18  and  C_19 
REMARK   17  A    between atoms: C_18  and  C_27 
REMARK   18  A    between atoms: C_19  and  C_20 
REMARK   19  A    between atoms: C_20  and  C_21 
REMARK   20  A    between atoms: C_21  and  C_22 
REMARK   21  A    between atoms: C_22  and  C_23 
REMARK   22  A    between atoms: C_23  and  C_24 
REMARK   23  A    between atoms: C_24  and  C_25 
REMARK   24  A    between atoms: C_27  and  C_28 
REMARK   25  A    between atoms: C_28  and  C_29 
REMARK   26  A    between atoms: C_29  and  C_30 
REMARK   27  A    between atoms: C_30  and  C_31 
REMARK   28  A    between atoms: C_31  and  C_32 
REMARK   29  A    between atoms: C_32  and  C_33 
REMARK   30  A    between atoms: C_33  and  C_34 
REMARK   31  A    between atoms: C_34  and  C_35 
ROOT
HETATM    1  C   UNL     1     -19.325  -9.098  -5.048  1.00  0.00     0.010 C 
ENDROOT
BRANCH   1   2
HETATM    2  C   UNL     1     -20.116 -10.411  -5.159  1.00  0.00     0.183 C 
BRANCH   2   3
HETATM    3  O   UNL     1     -21.517 -10.222  -4.919  1.00  0.00    -0.321 OA
BRANCH   3   4
HETATM    4  C   UNL     1     -22.119 -11.296  -4.319  1.00  0.00     0.258 C 
HETATM    5  O   UNL     1     -22.223 -12.402  -4.797  1.00  0.00    -0.265 OA
BRANCH   4   6
HETATM    6  C   UNL     1     -22.564 -10.907  -2.919  1.00  0.00     0.111 C 
BRANCH   6   7
HETATM    7  C   UNL     1     -23.227 -12.093  -2.236  1.00  0.00     0.010 C 
BRANCH   7   8
HETATM    8  C   UNL     1     -24.309 -11.679  -1.248  1.00  0.00     0.000 C 
BRANCH   8   9
HETATM    9  C   UNL     1     -23.680 -11.412   0.117  1.00  0.00     0.000 C 
BRANCH   9  10
HETATM   10  C   UNL     1     -23.257 -12.711   0.784  1.00  0.00     0.000 C 
BRANCH  10  11
HETATM   11  C   UNL     1     -21.786 -12.657   1.172  1.00  0.00     0.000 C 
BRANCH  11  12
HETATM   12  C   UNL     1     -21.053 -11.641   0.311  1.00  0.00     0.000 C 
BRANCH  12  13
HETATM   13  C   UNL     1     -20.561 -10.480   1.161  1.00  0.00     0.000 C 
BRANCH  13  14
HETATM   14  C   UNL     1     -20.760  -9.165   0.421  1.00  0.00     0.000 C 
BRANCH  14  15
HETATM   15  C   UNL     1     -21.863  -8.350   1.080  1.00  0.00     0.000 C 
BRANCH  15  16
HETATM   16  C   UNL     1     -22.694  -7.627   0.028  1.00  0.00    -0.000 C 
BRANCH  16  17
HETATM   17  C   UNL     1     -21.941  -7.553  -1.296  1.00  0.00    -0.005 C 
HETATM   18  C   UNL     1     -22.154  -6.207  -1.960  1.00  0.00     0.005 C 
ENDBRANCH  16  17
ENDBRANCH  15  16
ENDBRANCH  14  15
ENDBRANCH  13  14
ENDBRANCH  12  13
ENDBRANCH  11  12
ENDBRANCH  10  11
ENDBRANCH   9  10
ENDBRANCH   8   9
ENDBRANCH   7   8
ENDBRANCH   6   7
ENDBRANCH   4   6
ENDBRANCH   3   4
ENDBRANCH   2   3
ENDBRANCH   1   2
BRANCH   1  19
HETATM   19  C   UNL     1     -20.231  -7.902  -4.700  1.00  0.00     0.007 C 
BRANCH  19  20
HETATM   20  C   UNL     1     -20.196  -6.814  -5.762  1.00  0.00     0.000 C 
BRANCH  20  21
HETATM   21  C   UNL     1     -20.895  -5.556  -5.293  1.00  0.00     0.000 C 
BRANCH  21  22
HETATM   22  C   UNL     1     -22.021  -5.256  -6.267  1.00  0.00     0.000 C 
BRANCH  22  23
HETATM   23  C   UNL     1     -21.577  -4.203  -7.259  1.00  0.00     0.000 C 
BRANCH  23  24
HETATM   24  C   UNL     1     -22.577  -4.113  -8.397  1.00  0.00    -0.000 C 
BRANCH  24  25
HETATM   25  C   UNL     1     -21.853  -4.175  -9.733  1.00  0.00    -0.005 C 
HETATM   26  C   UNL     1     -20.352  -4.163  -9.526  1.00  0.00     0.005 C 
ENDBRANCH  24  25
ENDBRANCH  23  24
ENDBRANCH  22  23
ENDBRANCH  21  22
ENDBRANCH  20  21
ENDBRANCH  19  20
ENDBRANCH   1  19
BRANCH   1  27
HETATM   27  C   UNL     1     -18.218  -9.248  -3.988  1.00  0.00     0.007 C 
BRANCH  27  28
HETATM   28  C   UNL     1     -18.737  -9.820  -2.677  1.00  0.00     0.000 C 
BRANCH  28  29
HETATM   29  C   UNL     1     -17.776 -10.840  -2.098  1.00  0.00     0.000 C 
BRANCH  29  30
HETATM   30  C   UNL     1     -16.344 -10.392  -2.355  1.00  0.00     0.000 C 
BRANCH  30  31
HETATM   31  C   UNL     1     -15.441 -11.599  -2.531  1.00  0.00     0.000 C 
BRANCH  31  32
HETATM   32  C   UNL     1     -15.555 -12.141  -3.946  1.00  0.00     0.000 C 
BRANCH  32  33
HETATM   33  C   UNL     1     -15.000 -11.129  -4.938  1.00  0.00     0.000 C 
BRANCH  33  34
HETATM   34  C   UNL     1     -15.902 -11.035  -6.159  1.00  0.00    -0.000 C 
BRANCH  34  35
HETATM   35  C   UNL     1     -16.247 -12.426  -6.679  1.00  0.00    -0.005 C 
HETATM   36  C   UNL     1     -17.718 -12.511  -7.043  1.00  0.00     0.005 C 
ENDBRANCH  34  35
ENDBRANCH  33  34
ENDBRANCH  32  33
ENDBRANCH  31  32
ENDBRANCH  30  31
ENDBRANCH  29  30
ENDBRANCH  28  29
ENDBRANCH  27  28
ENDBRANCH   1  27
TORSDOF 31
BEGIN_RES ARG D 557
REMARK  4 active torsions:
REMARK  status: ('A' for Active; 'I' for Inactive)
REMARK    1  A    between atoms: CA   and  CB  
REMARK    2  A    between atoms: CB   and  CG  
REMARK    3  A    between atoms: CG   and  CD  
REMARK    4  A    between atoms: CD   and  NE  
REMARK       I    between atoms: NE   and  CZ  
REMARK       I    between atoms: CZ   and  NH1 
REMARK       I    between atoms: CZ   and  NH2 
ROOT
ATOM      1  CA  ARG D 557     -26.217   2.705 -17.014  1.00 35.49     0.159 C 
ENDROOT
BRANCH   1   2
ATOM      2  CB  ARG D 557     -26.789   1.319 -17.183  1.00 35.49     0.034 C 
BRANCH   2   3
ATOM      3  CG  ARG D 557     -25.837   0.202 -17.144  1.00 35.49     0.027 C 
BRANCH   3   4
ATOM      4  CD  ARG D 557     -24.760   0.413 -16.150  1.00 35.49     0.116 C 
BRANCH   4   5
ATOM      5  NE  ARG D 557     -24.907  -0.441 -15.001  1.00 35.49    -0.212 N 
ATOM      6  CZ  ARG D 557     -24.097  -1.420 -14.663  1.00 35.49     0.666 C 
ATOM      7  NH1 ARG D 557     -23.035  -1.740 -15.378  1.00 35.49    -0.235 N 
ATOM      8  NH2 ARG D 557     -24.373  -2.078 -13.575  1.00 35.49    -0.235 N 
ATOM      9  HH  ARG D 557     -22.833  -1.319 -16.097  1.00 35.49     0.174 HD
ATOM     10  HH  ARG D 557     -22.541  -2.386 -15.107  1.00 35.49     0.174 HD
ATOM     11  HH  ARG D 557     -25.062  -1.844 -13.129  1.00 35.49     0.174 HD
ATOM     12  HH  ARG D 557     -23.872  -2.713 -13.323  1.00 35.49     0.174 HD
ATOM     13  HE  ARG D 557     -25.605  -0.352 -14.524  1.00 35.49     0.178 HD
ENDBRANCH   4   5
ENDBRANCH   3   4
ENDBRANCH   2   3
ENDBRANCH   1   2
END_RES ARG D 557
BEGIN_RES GLU D 570
REMARK  3 active torsions:
REMARK  status: ('A' for Active; 'I' for Inactive)
REMARK    5  A    between atoms: CA   and  CB  
REMARK    6  A    between atoms: CB   and  CG  
REMARK    7  A    between atoms: CG   and  CD  
ROOT
ATOM     14  CA  GLU D 570     -18.033  -6.348 -13.375  1.00 32.92     0.160 C 
ENDROOT
BRANCH  14  15
ATOM     15  CB  GLU D 570     -19.500  -6.345 -13.794  1.00 32.92     0.043 C 
BRANCH  15  16
ATOM     16  CG  GLU D 570     -20.456  -5.600 -12.935  1.00 32.92     0.100 C 
BRANCH  16  17
ATOM     17  CD  GLU D 570     -21.733  -5.234 -13.654  1.00 32.92     0.185 C 
ATOM     18  OE1 GLU D 570     -22.292  -6.089 -14.367  1.00 32.92    -0.647 OA
ATOM     19  OE2 GLU D 570     -22.171  -4.075 -13.515  1.00 32.92    -0.647 OA
ENDBRANCH  16  17
ENDBRANCH  15  16
ENDBRANCH  14  15
END_RES GLU D 570
ENDMDL
