MODEL 1
REMARK VINA RESULT:      -7.1      0.000      0.000
REMARK  16 active torsions:
REMARK  status: ('A' for Active; 'I' for Inactive)
REMARK    1  A    between atoms: C_2  and  C_3 
REMARK    2  A    between atoms: C_3  and  C_4 
REMARK    3  A    between atoms: C_4  and  C_5 
REMARK    4  A    between atoms: C_5  and  C_6 
REMARK    5  A    between atoms: C_6  and  C_7 
REMARK    6  A    between atoms: C_7  and  C_8 
REMARK    7  A    between atoms: C_8  and  C_9 
REMARK    8  A    between atoms: C_9  and  C_10 
REMARK    9  A    between atoms: C_10  and  C_11 
REMARK   10  A    between atoms: C_11  and  C_12 
REMARK   11  A    between atoms: C_12  and  C_13 
REMARK   12  A    between atoms: C_13  and  C_14 
REMARK   13  A    between atoms: C_14  and  C_15 
REMARK   14  A    between atoms: C_15  and  C_16 
REMARK   15  A    between atoms: C_16  and  O_18 
REMARK   16  A    between atoms: O_18  and  C_19 
ROOT
HETATM    1  C   UNL     1     -19.671  -4.052  -8.328  1.00  0.00     0.000 C 
ENDROOT
BRANCH   1   2
HETATM    2  C   UNL     1     -19.888  -4.748  -6.989  1.00  0.00     0.000 C 
BRANCH   2   3
HETATM    3  C   UNL     1     -20.991  -5.792  -7.105  1.00  0.00     0.000 C 
BRANCH   3   4
HETATM    4  C   UNL     1     -21.517  -6.176  -5.728  1.00  0.00     0.000 C 
BRANCH   4   5
HETATM    5  C   UNL     1     -21.405  -7.680  -5.516  1.00  0.00     0.000 C 
BRANCH   5   6
HETATM    6  C   UNL     1     -21.465  -8.020  -4.033  1.00  0.00     0.000 C 
BRANCH   6   7
HETATM    7  C   UNL     1     -21.601  -6.753  -3.196  1.00  0.00     0.000 C 
BRANCH   7   8
HETATM    8  C   UNL     1     -21.220  -7.023  -1.745  1.00  0.00     0.000 C 
BRANCH   8   9
HETATM    9  C   UNL     1     -22.456  -7.001  -0.851  1.00  0.00    -0.000 C 
BRANCH   9  10
HETATM   10  C   UNL     1     -22.570  -8.291  -0.042  1.00  0.00    -0.005 C 
HETATM   11  C   UNL     1     -21.591  -8.293   1.118  1.00  0.00     0.005 C 
ENDBRANCH   9  10
ENDBRANCH   8   9
ENDBRANCH   7   8
ENDBRANCH   6   7
ENDBRANCH   5   6
ENDBRANCH   4   5
ENDBRANCH   3   4
ENDBRANCH   2   3
ENDBRANCH   1   2
BRANCH   1  12
HETATM   12  C   UNL     1     -20.899  -4.202  -9.215  1.00  0.00     0.000 C 
BRANCH  12  13
HETATM   13  C   UNL     1     -20.507  -4.347 -10.683  1.00  0.00     0.000 C 
BRANCH  13  14
HETATM   14  C   UNL     1     -21.743  -4.213 -11.562  1.00  0.00     0.010 C 
BRANCH  14  15
HETATM   15  C   UNL     1     -22.599  -3.007 -11.190  1.00  0.00     0.111 C 
BRANCH  15  16
HETATM   16  C   UNL     1     -24.032  -3.246 -11.607  1.00  0.00     0.259 C 
HETATM   17  O   UNL     1     -24.992  -3.214 -10.852  1.00  0.00    -0.265 OA
BRANCH  16  18
HETATM   18  O   UNL     1     -24.095  -3.511 -12.942  1.00  0.00    -0.317 OA
BRANCH  18  19
HETATM   19  C   UNL     1     -24.120  -2.347 -13.788  1.00  0.00     0.123 C 
HETATM   20  C   UNL     1     -23.009  -2.438 -14.831  1.00  0.00     0.040 C 
HETATM   21  C   UNL     1     -25.481  -2.294 -14.470  1.00  0.00     0.040 C 
ENDBRANCH  18  19
ENDBRANCH  16  18
ENDBRANCH  15  16
ENDBRANCH  14  15
ENDBRANCH  13  14
ENDBRANCH  12  13
ENDBRANCH   1  12
TORSDOF 16
BEGIN_RES ARG D 557
REMARK  4 active torsions:
REMARK  status: ('A' for Active; 'I' for Inactive)
REMARK    1  A    between atoms: CA   and  CB  
REMARK    2  A    between atoms: CB   and  CG  
REMARK    3  A    between atoms: CG   and  CD  
REMARK    4  A    between atoms: CD   and  NE  
REMARK       I    between atoms: NE   and  CZ  
REMARK       I    between atoms: CZ   and  NH1 
REMARK       I    between atoms: CZ   and  NH2 
ROOT
ATOM      1  CA  ARG D 557     -26.217   2.705 -17.014  1.00 35.49     0.159 C 
ENDROOT
BRANCH   1   2
ATOM      2  CB  ARG D 557     -26.789   1.319 -17.183  1.00 35.49     0.034 C 
BRANCH   2   3
ATOM      3  CG  ARG D 557     -28.146   1.097 -16.669  1.00 35.49     0.027 C 
BRANCH   3   4
ATOM      4  CD  ARG D 557     -28.801  -0.075 -17.293  1.00 35.49     0.116 C 
BRANCH   4   5
ATOM      5  NE  ARG D 557     -28.202  -1.316 -16.880  1.00 35.49    -0.212 N 
ATOM      6  CZ  ARG D 557     -28.714  -2.513 -17.057  1.00 35.49     0.666 C 
ATOM      7  NH1 ARG D 557     -29.882  -2.705 -17.642  1.00 35.49    -0.235 N 
ATOM      8  NH2 ARG D 557     -28.021  -3.531 -16.637  1.00 35.49    -0.235 N 
ATOM      9  HH  ARG D 557     -30.355  -2.050 -17.928  1.00 35.49     0.174 HD
ATOM     10  HH  ARG D 557     -30.165  -3.509 -17.732  1.00 35.49     0.174 HD
ATOM     11  HH  ARG D 557     -27.267  -3.377 -16.270  1.00 35.49     0.174 HD
ATOM     12  HH  ARG D 557     -28.317  -4.319 -16.737  1.00 35.49     0.174 HD
ATOM     13  HE  ARG D 557     -27.481  -1.281 -16.430  1.00 35.49     0.178 HD
ENDBRANCH   4   5
ENDBRANCH   3   4
ENDBRANCH   2   3
ENDBRANCH   1   2
END_RES ARG D 557
BEGIN_RES GLU D 570
REMARK  3 active torsions:
REMARK  status: ('A' for Active; 'I' for Inactive)
REMARK    5  A    between atoms: CA   and  CB  
REMARK    6  A    between atoms: CB   and  CG  
REMARK    7  A    between atoms: CG   and  CD  
ROOT
ATOM     14  CA  GLU D 570     -18.033  -6.348 -13.375  1.00 32.92     0.160 C 
ENDROOT
BRANCH  14  15
ATOM     15  CB  GLU D 570     -19.500  -6.345 -13.794  1.00 32.92     0.043 C 
BRANCH  15  16
ATOM     16  CG  GLU D 570     -19.809  -5.990 -15.203  1.00 32.92     0.100 C 
BRANCH  16  17
ATOM     17  CD  GLU D 570     -21.280  -5.738 -15.439  1.00 32.92     0.185 C 
ATOM     18  OE1 GLU D 570     -21.640  -5.210 -16.509  1.00 32.92    -0.647 OA
ATOM     19  OE2 GLU D 570     -22.079  -6.057 -14.537  1.00 32.92    -0.647 OA
ENDBRANCH  16  17
ENDBRANCH  15  16
ENDBRANCH  14  15
END_RES GLU D 570
ENDMDL
MODEL 2
REMARK VINA RESULT:      -6.9      3.050      5.333
REMARK  16 active torsions:
REMARK  status: ('A' for Active; 'I' for Inactive)
REMARK    1  A    between atoms: C_2  and  C_3 
REMARK    2  A    between atoms: C_3  and  C_4 
REMARK    3  A    between atoms: C_4  and  C_5 
REMARK    4  A    between atoms: C_5  and  C_6 
REMARK    5  A    between atoms: C_6  and  C_7 
REMARK    6  A    between atoms: C_7  and  C_8 
REMARK    7  A    between atoms: C_8  and  C_9 
REMARK    8  A    between atoms: C_9  and  C_10 
REMARK    9  A    between atoms: C_10  and  C_11 
REMARK   10  A    between atoms: C_11  and  C_12 
REMARK   11  A    between atoms: C_12  and  C_13 
REMARK   12  A    between atoms: C_13  and  C_14 
REMARK   13  A    between atoms: C_14  and  C_15 
REMARK   14  A    between atoms: C_15  and  C_16 
REMARK   15  A    between atoms: C_16  and  O_18 
REMARK   16  A    between atoms: O_18  and  C_19 
ROOT
HETATM    1  C   UNL     1     -21.511  -6.112  -2.730  1.00  0.00     0.000 C 
ENDROOT
BRANCH   1   2
HETATM    2  C   UNL     1     -22.270  -6.600  -1.502  1.00  0.00     0.000 C 
BRANCH   2   3
HETATM    3  C   UNL     1     -21.483  -7.692  -0.788  1.00  0.00     0.000 C 
BRANCH   3   4
HETATM    4  C   UNL     1     -22.054  -7.947   0.600  1.00  0.00     0.000 C 
BRANCH   4   5
HETATM    5  C   UNL     1     -23.324  -8.783   0.507  1.00  0.00     0.000 C 
BRANCH   5   6
HETATM    6  C   UNL     1     -23.092 -10.021  -0.350  1.00  0.00     0.000 C 
BRANCH   6   7
HETATM    7  C   UNL     1     -24.217 -11.030  -0.152  1.00  0.00     0.000 C 
BRANCH   7   8
HETATM    8  C   UNL     1     -23.692 -12.454  -0.290  1.00  0.00     0.000 C 
BRANCH   8   9
HETATM    9  C   UNL     1     -22.741 -12.791   0.855  1.00  0.00    -0.000 C 
BRANCH   9  10
HETATM   10  C   UNL     1     -23.434 -13.651   1.909  1.00  0.00    -0.005 C 
HETATM   11  C   UNL     1     -22.418 -14.407   2.747  1.00  0.00     0.005 C 
ENDBRANCH   9  10
ENDBRANCH   8   9
ENDBRANCH   7   8
ENDBRANCH   6   7
ENDBRANCH   5   6
ENDBRANCH   4   5
ENDBRANCH   3   4
ENDBRANCH   2   3
ENDBRANCH   1   2
BRANCH   1  12
HETATM   12  C   UNL     1     -21.633  -7.115  -3.868  1.00  0.00     0.000 C 
BRANCH  12  13
HETATM   13  C   UNL     1     -20.712  -6.748  -5.030  1.00  0.00     0.000 C 
BRANCH  13  14
HETATM   14  C   UNL     1     -20.599  -5.233  -5.138  1.00  0.00     0.010 C 
BRANCH  14  15
HETATM   15  C   UNL     1     -20.594  -4.747  -6.584  1.00  0.00     0.111 C 
BRANCH  15  16
HETATM   16  C   UNL     1     -21.986  -4.848  -7.163  1.00  0.00     0.259 C 
HETATM   17  O   UNL     1     -23.019  -4.701  -6.526  1.00  0.00    -0.265 OA
BRANCH  16  18
HETATM   18  O   UNL     1     -21.922  -5.134  -8.493  1.00  0.00    -0.317 OA
BRANCH  18  19
HETATM   19  C   UNL     1     -22.145  -4.009  -9.364  1.00  0.00     0.123 C 
HETATM   20  C   UNL     1     -20.885  -3.723 -10.176  1.00  0.00     0.040 C 
HETATM   21  C   UNL     1     -23.302  -4.359 -10.291  1.00  0.00     0.040 C 
ENDBRANCH  18  19
ENDBRANCH  16  18
ENDBRANCH  15  16
ENDBRANCH  14  15
ENDBRANCH  13  14
ENDBRANCH  12  13
ENDBRANCH   1  12
TORSDOF 16
BEGIN_RES ARG D 557
REMARK  4 active torsions:
REMARK  status: ('A' for Active; 'I' for Inactive)
REMARK    1  A    between atoms: CA   and  CB  
REMARK    2  A    between atoms: CB   and  CG  
REMARK    3  A    between atoms: CG   and  CD  
REMARK    4  A    between atoms: CD   and  NE  
REMARK       I    between atoms: NE   and  CZ  
REMARK       I    between atoms: CZ   and  NH1 
REMARK       I    between atoms: CZ   and  NH2 
ROOT
ATOM      1  CA  ARG D 557     -26.217   2.705 -17.014  1.00 35.49     0.159 C 
ENDROOT
BRANCH   1   2
ATOM      2  CB  ARG D 557     -26.789   1.319 -17.183  1.00 35.49     0.034 C 
BRANCH   2   3
ATOM      3  CG  ARG D 557     -25.838   0.202 -17.139  1.00 35.49     0.027 C 
BRANCH   3   4
ATOM      4  CD  ARG D 557     -24.757   0.419 -16.151  1.00 35.49     0.116 C 
BRANCH   4   5
ATOM      5  NE  ARG D 557     -24.897  -0.431 -14.998  1.00 35.49    -0.212 N 
ATOM      6  CZ  ARG D 557     -24.078  -1.400 -14.654  1.00 35.49     0.666 C 
ATOM      7  NH1 ARG D 557     -23.011  -1.713 -15.366  1.00 35.49    -0.235 N 
ATOM      8  NH2 ARG D 557     -24.349  -2.056 -13.564  1.00 35.49    -0.235 N 
ATOM      9  HH  ARG D 557     -22.812  -1.293 -16.086  1.00 35.49     0.174 HD
ATOM     10  HH  ARG D 557     -22.512  -2.352 -15.092  1.00 35.49     0.174 HD
ATOM     11  HH  ARG D 557     -25.041  -1.827 -13.120  1.00 35.49     0.174 HD
ATOM     12  HH  ARG D 557     -23.842  -2.685 -13.307  1.00 35.49     0.174 HD
ATOM     13  HE  ARG D 557     -25.597  -0.347 -14.523  1.00 35.49     0.178 HD
ENDBRANCH   4   5
ENDBRANCH   3   4
ENDBRANCH   2   3
ENDBRANCH   1   2
END_RES ARG D 557
BEGIN_RES GLU D 570
REMARK  3 active torsions:
REMARK  status: ('A' for Active; 'I' for Inactive)
REMARK    5  A    between atoms: CA   and  CB  
REMARK    6  A    between atoms: CB   and  CG  
REMARK    7  A    between atoms: CG   and  CD  
ROOT
ATOM     14  CA  GLU D 570     -18.033  -6.348 -13.375  1.00 32.92     0.160 C 
ENDROOT
BRANCH  14  15
ATOM     15  CB  GLU D 570     -19.500  -6.345 -13.794  1.00 32.92     0.043 C 
BRANCH  15  16
ATOM     16  CG  GLU D 570     -20.440  -5.524 -12.988  1.00 32.92     0.100 C 
BRANCH  16  17
ATOM     17  CD  GLU D 570     -21.728  -5.218 -13.717  1.00 32.92     0.185 C 
ATOM     18  OE1 GLU D 570     -22.265  -4.105 -13.555  1.00 32.92    -0.647 OA
ATOM     19  OE2 GLU D 570     -22.214  -6.107 -14.443  1.00 32.92    -0.647 OA
ENDBRANCH  16  17
ENDBRANCH  15  16
ENDBRANCH  14  15
END_RES GLU D 570
ENDMDL
MODEL 3
REMARK VINA RESULT:      -6.9      4.299      9.360
REMARK  16 active torsions:
REMARK  status: ('A' for Active; 'I' for Inactive)
REMARK    1  A    between atoms: C_2  and  C_3 
REMARK    2  A    between atoms: C_3  and  C_4 
REMARK    3  A    between atoms: C_4  and  C_5 
REMARK    4  A    between atoms: C_5  and  C_6 
REMARK    5  A    between atoms: C_6  and  C_7 
REMARK    6  A    between atoms: C_7  and  C_8 
REMARK    7  A    between atoms: C_8  and  C_9 
REMARK    8  A    between atoms: C_9  and  C_10 
REMARK    9  A    between atoms: C_10  and  C_11 
REMARK   10  A    between atoms: C_11  and  C_12 
REMARK   11  A    between atoms: C_12  and  C_13 
REMARK   12  A    between atoms: C_13  and  C_14 
REMARK   13  A    between atoms: C_14  and  C_15 
REMARK   14  A    between atoms: C_15  and  C_16 
REMARK   15  A    between atoms: C_16  and  O_18 
REMARK   16  A    between atoms: O_18  and  C_19 
ROOT
HETATM    1  C   UNL     1     -21.833  -7.372  -1.352  1.00  0.00     0.000 C 
ENDROOT
BRANCH   1   2
HETATM    2  C   UNL     1     -22.201  -6.166  -2.209  1.00  0.00     0.000 C 
BRANCH   2   3
HETATM    3  C   UNL     1     -21.302  -6.092  -3.437  1.00  0.00     0.000 C 
BRANCH   3   4
HETATM    4  C   UNL     1     -21.895  -6.894  -4.587  1.00  0.00     0.000 C 
BRANCH   4   5
HETATM    5  C   UNL     1     -21.469  -6.300  -5.924  1.00  0.00     0.000 C 
BRANCH   5   6
HETATM    6  C   UNL     1     -20.567  -5.091  -5.713  1.00  0.00     0.000 C 
BRANCH   6   7
HETATM    7  C   UNL     1     -20.748  -4.082  -6.840  1.00  0.00     0.000 C 
BRANCH   7   8
HETATM    8  C   UNL     1     -19.760  -4.353  -7.969  1.00  0.00     0.000 C 
BRANCH   8   9
HETATM    9  C   UNL     1     -20.489  -4.480  -9.304  1.00  0.00    -0.000 C 
BRANCH   9  10
HETATM   10  C   UNL     1     -21.894  -3.891  -9.220  1.00  0.00    -0.005 C 
HETATM   11  C   UNL     1     -22.890  -4.751  -9.976  1.00  0.00     0.005 C 
ENDBRANCH   9  10
ENDBRANCH   8   9
ENDBRANCH   7   8
ENDBRANCH   6   7
ENDBRANCH   5   6
ENDBRANCH   4   5
ENDBRANCH   3   4
ENDBRANCH   2   3
ENDBRANCH   1   2
BRANCH   1  12
HETATM   12  C   UNL     1     -22.726  -7.446  -0.121  1.00  0.00     0.000 C 
BRANCH  12  13
HETATM   13  C   UNL     1     -21.998  -8.098   1.052  1.00  0.00     0.000 C 
BRANCH  13  14
HETATM   14  C   UNL     1     -20.842  -8.943   0.534  1.00  0.00     0.010 C 
BRANCH  14  15
HETATM   15  C   UNL     1     -20.720 -10.279   1.260  1.00  0.00     0.111 C 
BRANCH  15  16
HETATM   16  C   UNL     1     -21.021 -11.411   0.305  1.00  0.00     0.259 C 
HETATM   17  O   UNL     1     -20.849 -12.595   0.552  1.00  0.00    -0.265 OA
BRANCH  16  18
HETATM   18  O   UNL     1     -21.503 -10.919  -0.871  1.00  0.00    -0.317 OA
BRANCH  18  19
HETATM   19  C   UNL     1     -22.740 -11.509  -1.310  1.00  0.00     0.123 C 
HETATM   20  C   UNL     1     -23.893 -11.001  -0.448  1.00  0.00     0.040 C 
HETATM   21  C   UNL     1     -22.955 -11.112  -2.765  1.00  0.00     0.040 C 
ENDBRANCH  18  19
ENDBRANCH  16  18
ENDBRANCH  15  16
ENDBRANCH  14  15
ENDBRANCH  13  14
ENDBRANCH  12  13
ENDBRANCH   1  12
TORSDOF 16
BEGIN_RES ARG D 557
REMARK  4 active torsions:
REMARK  status: ('A' for Active; 'I' for Inactive)
REMARK    1  A    between atoms: CA   and  CB  
REMARK    2  A    between atoms: CB   and  CG  
REMARK    3  A    between atoms: CG   and  CD  
REMARK    4  A    between atoms: CD   and  NE  
REMARK       I    between atoms: NE   and  CZ  
REMARK       I    between atoms: CZ   and  NH1 
REMARK       I    between atoms: CZ   and  NH2 
ROOT
ATOM      1  CA  ARG D 557     -26.217   2.705 -17.014  1.00 35.49     0.159 C 
ENDROOT
BRANCH   1   2
ATOM      2  CB  ARG D 557     -26.789   1.319 -17.183  1.00 35.49     0.034 C 
BRANCH   2   3
ATOM      3  CG  ARG D 557     -25.836   0.203 -17.150  1.00 35.49     0.027 C 
BRANCH   3   4
ATOM      4  CD  ARG D 557     -24.760   0.409 -16.154  1.00 35.49     0.116 C 
BRANCH   4   5
ATOM      5  NE  ARG D 557     -24.912  -0.446 -15.006  1.00 35.49    -0.212 N 
ATOM      6  CZ  ARG D 557     -24.101  -1.422 -14.663  1.00 35.49     0.666 C 
ATOM      7  NH1 ARG D 557     -23.033  -1.739 -15.371  1.00 35.49    -0.235 N 
ATOM      8  NH2 ARG D 557     -24.382  -2.081 -13.576  1.00 35.49    -0.235 N 
ATOM      9  HH  ARG D 557     -22.828  -1.317 -16.088  1.00 35.49     0.174 HD
ATOM     10  HH  ARG D 557     -22.539  -2.383 -15.096  1.00 35.49     0.174 HD
ATOM     11  HH  ARG D 557     -25.075  -1.850 -13.135  1.00 35.49     0.174 HD
ATOM     12  HH  ARG D 557     -23.881  -2.715 -13.321  1.00 35.49     0.174 HD
ATOM     13  HE  ARG D 557     -25.614  -0.359 -14.534  1.00 35.49     0.178 HD
ENDBRANCH   4   5
ENDBRANCH   3   4
ENDBRANCH   2   3
ENDBRANCH   1   2
END_RES ARG D 557
BEGIN_RES GLU D 570
REMARK  3 active torsions:
REMARK  status: ('A' for Active; 'I' for Inactive)
REMARK    5  A    between atoms: CA   and  CB  
REMARK    6  A    between atoms: CB   and  CG  
REMARK    7  A    between atoms: CG   and  CD  
ROOT
ATOM     14  CA  GLU D 570     -18.033  -6.348 -13.375  1.00 32.92     0.160 C 
ENDROOT
BRANCH  14  15
ATOM     15  CB  GLU D 570     -19.500  -6.345 -13.794  1.00 32.92     0.043 C 
BRANCH  15  16
ATOM     16  CG  GLU D 570     -20.445  -5.546 -12.972  1.00 32.92     0.100 C 
BRANCH  16  17
ATOM     17  CD  GLU D 570     -21.733  -5.229 -13.696  1.00 32.92     0.185 C 
ATOM     18  OE1 GLU D 570     -22.188  -6.054 -14.511  1.00 32.92    -0.647 OA
ATOM     19  OE2 GLU D 570     -22.284  -4.136 -13.457  1.00 32.92    -0.647 OA
ENDBRANCH  16  17
ENDBRANCH  15  16
ENDBRANCH  14  15
END_RES GLU D 570
ENDMDL
MODEL 4
REMARK VINA RESULT:      -6.9      1.843      2.911
REMARK  16 active torsions:
REMARK  status: ('A' for Active; 'I' for Inactive)
REMARK    1  A    between atoms: C_2  and  C_3 
REMARK    2  A    between atoms: C_3  and  C_4 
REMARK    3  A    between atoms: C_4  and  C_5 
REMARK    4  A    between atoms: C_5  and  C_6 
REMARK    5  A    between atoms: C_6  and  C_7 
REMARK    6  A    between atoms: C_7  and  C_8 
REMARK    7  A    between atoms: C_8  and  C_9 
REMARK    8  A    between atoms: C_9  and  C_10 
REMARK    9  A    between atoms: C_10  and  C_11 
REMARK   10  A    between atoms: C_11  and  C_12 
REMARK   11  A    between atoms: C_12  and  C_13 
REMARK   12  A    between atoms: C_13  and  C_14 
REMARK   13  A    between atoms: C_14  and  C_15 
REMARK   14  A    between atoms: C_15  and  C_16 
REMARK   15  A    between atoms: C_16  and  O_18 
REMARK   16  A    between atoms: O_18  and  C_19 
ROOT
HETATM    1  C   UNL     1     -20.334  -5.074  -5.733  1.00  0.00     0.000 C 
ENDROOT
BRANCH   1   2
HETATM    2  C   UNL     1     -20.552  -6.545  -6.067  1.00  0.00     0.000 C 
BRANCH   2   3
HETATM    3  C   UNL     1     -21.235  -7.258  -4.908  1.00  0.00     0.000 C 
BRANCH   3   4
HETATM    4  C   UNL     1     -21.491  -6.295  -3.758  1.00  0.00     0.000 C 
BRANCH   4   5
HETATM    5  C   UNL     1     -21.267  -6.990  -2.421  1.00  0.00     0.000 C 
BRANCH   5   6
HETATM    6  C   UNL     1     -22.171  -6.396  -1.348  1.00  0.00     0.000 C 
BRANCH   6   7
HETATM    7  C   UNL     1     -22.562  -7.458  -0.327  1.00  0.00     0.000 C 
BRANCH   7   8
HETATM    8  C   UNL     1     -22.286  -8.854  -0.870  1.00  0.00     0.000 C 
BRANCH   8   9
HETATM    9  C   UNL     1     -21.790  -9.776   0.240  1.00  0.00    -0.000 C 
BRANCH   9  10
HETATM   10  C   UNL     1     -22.399 -11.170   0.109  1.00  0.00    -0.005 C 
HETATM   11  C   UNL     1     -23.888 -11.088  -0.172  1.00  0.00     0.005 C 
ENDBRANCH   9  10
ENDBRANCH   8   9
ENDBRANCH   7   8
ENDBRANCH   6   7
ENDBRANCH   5   6
ENDBRANCH   4   5
ENDBRANCH   3   4
ENDBRANCH   2   3
ENDBRANCH   1   2
BRANCH   1  12
HETATM   12  C   UNL     1     -20.863  -4.186  -6.851  1.00  0.00     0.000 C 
BRANCH  12  13
HETATM   13  C   UNL     1     -22.311  -4.529  -7.190  1.00  0.00     0.000 C 
BRANCH  13  14
HETATM   14  C   UNL     1     -22.786  -3.666  -8.352  1.00  0.00     0.010 C 
BRANCH  14  15
HETATM   15  C   UNL     1     -23.530  -4.469  -9.414  1.00  0.00     0.111 C 
BRANCH  15  16
HETATM   16  C   UNL     1     -24.122  -3.534 -10.443  1.00  0.00     0.259 C 
HETATM   17  O   UNL     1     -25.283  -3.151 -10.452  1.00  0.00    -0.265 OA
BRANCH  16  18
HETATM   18  O   UNL     1     -23.178  -3.187 -11.362  1.00  0.00    -0.317 OA
BRANCH  18  19
HETATM   19  C   UNL     1     -22.297  -4.256 -11.755  1.00  0.00     0.123 C 
HETATM   20  C   UNL     1     -22.535  -4.615 -13.219  1.00  0.00     0.040 C 
HETATM   21  C   UNL     1     -20.865  -3.777 -11.554  1.00  0.00     0.040 C 
ENDBRANCH  18  19
ENDBRANCH  16  18
ENDBRANCH  15  16
ENDBRANCH  14  15
ENDBRANCH  13  14
ENDBRANCH  12  13
ENDBRANCH   1  12
TORSDOF 16
BEGIN_RES ARG D 557
REMARK  4 active torsions:
REMARK  status: ('A' for Active; 'I' for Inactive)
REMARK    1  A    between atoms: CA   and  CB  
REMARK    2  A    between atoms: CB   and  CG  
REMARK    3  A    between atoms: CG   and  CD  
REMARK    4  A    between atoms: CD   and  NE  
REMARK       I    between atoms: NE   and  CZ  
REMARK       I    between atoms: CZ   and  NH1 
REMARK       I    between atoms: CZ   and  NH2 
ROOT
ATOM      1  CA  ARG D 557     -26.217   2.705 -17.014  1.00 35.49     0.159 C 
ENDROOT
BRANCH   1   2
ATOM      2  CB  ARG D 557     -26.789   1.319 -17.183  1.00 35.49     0.034 C 
BRANCH   2   3
ATOM      3  CG  ARG D 557     -25.956   0.200 -16.725  1.00 35.49     0.027 C 
BRANCH   3   4
ATOM      4  CD  ARG D 557     -26.762  -0.926 -16.202  1.00 35.49     0.116 C 
BRANCH   4   5
ATOM      5  NE  ARG D 557     -26.202  -1.482 -14.999  1.00 35.49    -0.212 N 
ATOM      6  CZ  ARG D 557     -26.167  -2.757 -14.685  1.00 35.49     0.666 C 
ATOM      7  NH1 ARG D 557     -26.675  -3.694 -15.465  1.00 35.49    -0.235 N 
ATOM      8  NH2 ARG D 557     -25.600  -3.084 -13.560  1.00 35.49    -0.235 N 
ATOM      9  HH  ARG D 557     -27.052  -3.502 -16.211  1.00 35.49     0.174 HD
ATOM     10  HH  ARG D 557     -26.621  -4.510 -15.210  1.00 35.49     0.174 HD
ATOM     11  HH  ARG D 557     -25.274  -2.459 -13.080  1.00 35.49     0.174 HD
ATOM     12  HH  ARG D 557     -25.555  -3.897 -13.325  1.00 35.49     0.174 HD
ATOM     13  HE  ARG D 557     -25.917  -0.943 -14.405  1.00 35.49     0.178 HD
ENDBRANCH   4   5
ENDBRANCH   3   4
ENDBRANCH   2   3
ENDBRANCH   1   2
END_RES ARG D 557
BEGIN_RES GLU D 570
REMARK  3 active torsions:
REMARK  status: ('A' for Active; 'I' for Inactive)
REMARK    5  A    between atoms: CA   and  CB  
REMARK    6  A    between atoms: CB   and  CG  
REMARK    7  A    between atoms: CG   and  CD  
ROOT
ATOM     14  CA  GLU D 570     -18.033  -6.348 -13.375  1.00 32.92     0.160 C 
ENDROOT
BRANCH  14  15
ATOM     15  CB  GLU D 570     -19.500  -6.345 -13.794  1.00 32.92     0.043 C 
BRANCH  15  16
ATOM     16  CG  GLU D 570     -19.799  -6.160 -15.237  1.00 32.92     0.100 C 
BRANCH  16  17
ATOM     17  CD  GLU D 570     -20.685  -7.247 -15.800  1.00 32.92     0.185 C 
ATOM     18  OE1 GLU D 570     -21.309  -7.033 -16.857  1.00 32.92    -0.647 OA
ATOM     19  OE2 GLU D 570     -20.768  -8.319 -15.168  1.00 32.92    -0.647 OA
ENDBRANCH  16  17
ENDBRANCH  15  16
ENDBRANCH  14  15
END_RES GLU D 570
ENDMDL
MODEL 5
REMARK VINA RESULT:      -6.7      3.607      8.965
REMARK  16 active torsions:
REMARK  status: ('A' for Active; 'I' for Inactive)
REMARK    1  A    between atoms: C_2  and  C_3 
REMARK    2  A    between atoms: C_3  and  C_4 
REMARK    3  A    between atoms: C_4  and  C_5 
REMARK    4  A    between atoms: C_5  and  C_6 
REMARK    5  A    between atoms: C_6  and  C_7 
REMARK    6  A    between atoms: C_7  and  C_8 
REMARK    7  A    between atoms: C_8  and  C_9 
REMARK    8  A    between atoms: C_9  and  C_10 
REMARK    9  A    between atoms: C_10  and  C_11 
REMARK   10  A    between atoms: C_11  and  C_12 
REMARK   11  A    between atoms: C_12  and  C_13 
REMARK   12  A    between atoms: C_13  and  C_14 
REMARK   13  A    between atoms: C_14  and  C_15 
REMARK   14  A    between atoms: C_15  and  C_16 
REMARK   15  A    between atoms: C_16  and  O_18 
REMARK   16  A    between atoms: O_18  and  C_19 
ROOT
HETATM    1  C   UNL     1     -22.032  -6.461  -4.888  1.00  0.00     0.000 C 
ENDROOT
BRANCH   1   2
HETATM    2  C   UNL     1     -21.151  -6.369  -6.129  1.00  0.00     0.000 C 
BRANCH   2   3
HETATM    3  C   UNL     1     -20.072  -5.310  -5.938  1.00  0.00     0.000 C 
BRANCH   3   4
HETATM    4  C   UNL     1     -19.921  -4.463  -7.193  1.00  0.00     0.000 C 
BRANCH   4   5
HETATM    5  C   UNL     1     -21.235  -3.769  -7.528  1.00  0.00     0.000 C 
BRANCH   5   6
HETATM    6  C   UNL     1     -21.683  -4.118  -8.941  1.00  0.00     0.000 C 
BRANCH   6   7
HETATM    7  C   UNL     1     -20.481  -4.441  -9.822  1.00  0.00     0.000 C 
BRANCH   7   8
HETATM    8  C   UNL     1     -20.568  -3.692 -11.146  1.00  0.00     0.000 C 
BRANCH   8   9
HETATM    9  C   UNL     1     -21.991  -3.201 -11.395  1.00  0.00    -0.000 C 
BRANCH   9  10
HETATM   10  C   UNL     1     -22.431  -3.496 -12.827  1.00  0.00    -0.005 C 
HETATM   11  C   UNL     1     -22.972  -4.910 -12.947  1.00  0.00     0.005 C 
ENDBRANCH   9  10
ENDBRANCH   8   9
ENDBRANCH   7   8
ENDBRANCH   6   7
ENDBRANCH   5   6
ENDBRANCH   4   5
ENDBRANCH   3   4
ENDBRANCH   2   3
ENDBRANCH   1   2
BRANCH   1  12
HETATM   12  C   UNL     1     -21.273  -5.988  -3.656  1.00  0.00     0.000 C 
BRANCH  12  13
HETATM   13  C   UNL     1     -22.017  -6.354  -2.374  1.00  0.00     0.000 C 
BRANCH  13  14
HETATM   14  C   UNL     1     -21.568  -7.728  -1.893  1.00  0.00     0.010 C 
BRANCH  14  15
HETATM   15  C   UNL     1     -21.488  -7.819  -0.372  1.00  0.00     0.111 C 
BRANCH  15  16
HETATM   16  C   UNL     1     -22.608  -8.689   0.149  1.00  0.00     0.259 C 
HETATM   17  O   UNL     1     -23.593  -8.275   0.743  1.00  0.00    -0.265 OA
BRANCH  16  18
HETATM   18  O   UNL     1     -22.357  -9.998  -0.130  1.00  0.00    -0.317 OA
BRANCH  18  19
HETATM   19  C   UNL     1     -23.485 -10.735  -0.636  1.00  0.00     0.123 C 
HETATM   20  C   UNL     1     -23.231 -11.146  -2.084  1.00  0.00     0.040 C 
HETATM   21  C   UNL     1     -23.667 -11.969   0.238  1.00  0.00     0.040 C 
ENDBRANCH  18  19
ENDBRANCH  16  18
ENDBRANCH  15  16
ENDBRANCH  14  15
ENDBRANCH  13  14
ENDBRANCH  12  13
ENDBRANCH   1  12
TORSDOF 16
BEGIN_RES ARG D 557
REMARK  4 active torsions:
REMARK  status: ('A' for Active; 'I' for Inactive)
REMARK    1  A    between atoms: CA   and  CB  
REMARK    2  A    between atoms: CB   and  CG  
REMARK    3  A    between atoms: CG   and  CD  
REMARK    4  A    between atoms: CD   and  NE  
REMARK       I    between atoms: NE   and  CZ  
REMARK       I    between atoms: CZ   and  NH1 
REMARK       I    between atoms: CZ   and  NH2 
ROOT
ATOM      1  CA  ARG D 557     -26.217   2.705 -17.014  1.00 35.49     0.159 C 
ENDROOT
BRANCH   1   2
ATOM      2  CB  ARG D 557     -26.789   1.319 -17.183  1.00 35.49     0.034 C 
BRANCH   2   3
ATOM      3  CG  ARG D 557     -28.235   1.225 -17.415  1.00 35.49     0.027 C 
BRANCH   3   4
ATOM      4  CD  ARG D 557     -28.895   0.277 -16.488  1.00 35.49     0.116 C 
BRANCH   4   5
ATOM      5  NE  ARG D 557     -29.321  -0.925 -17.154  1.00 35.49    -0.212 N 
ATOM      6  CZ  ARG D 557     -28.736  -2.099 -17.069  1.00 35.49     0.666 C 
ATOM      7  NH1 ARG D 557     -27.649  -2.299 -16.346  1.00 35.49    -0.235 N 
ATOM      8  NH2 ARG D 557     -29.273  -3.087 -17.725  1.00 35.49    -0.235 N 
ATOM      9  HH  ARG D 557     -27.280  -1.664 -15.904  1.00 35.49     0.174 HD
ATOM     10  HH  ARG D 557     -27.313  -3.087 -16.326  1.00 35.49     0.174 HD
ATOM     11  HH  ARG D 557     -29.979  -2.930 -18.177  1.00 35.49     0.174 HD
ATOM     12  HH  ARG D 557     -28.926  -3.860 -17.691  1.00 35.49     0.174 HD
ATOM     13  HE  ARG D 557     -29.972  -0.871 -17.699  1.00 35.49     0.178 HD
ENDBRANCH   4   5
ENDBRANCH   3   4
ENDBRANCH   2   3
ENDBRANCH   1   2
END_RES ARG D 557
BEGIN_RES GLU D 570
REMARK  3 active torsions:
REMARK  status: ('A' for Active; 'I' for Inactive)
REMARK    5  A    between atoms: CA   and  CB  
REMARK    6  A    between atoms: CB   and  CG  
REMARK    7  A    between atoms: CG   and  CD  
ROOT
ATOM     14  CA  GLU D 570     -18.033  -6.348 -13.375  1.00 32.92     0.160 C 
ENDROOT
BRANCH  14  15
ATOM     15  CB  GLU D 570     -19.500  -6.345 -13.794  1.00 32.92     0.043 C 
BRANCH  15  16
ATOM     16  CG  GLU D 570     -19.797  -6.234 -15.246  1.00 32.92     0.100 C 
BRANCH  16  17
ATOM     17  CD  GLU D 570     -20.794  -7.264 -15.723  1.00 32.92     0.185 C 
ATOM     18  OE1 GLU D 570     -21.791  -6.888 -16.369  1.00 32.92    -0.647 OA
ATOM     19  OE2 GLU D 570     -20.584  -8.459 -15.435  1.00 32.92    -0.647 OA
ENDBRANCH  16  17
ENDBRANCH  15  16
ENDBRANCH  14  15
END_RES GLU D 570
ENDMDL
MODEL 6
REMARK VINA RESULT:      -6.6      2.071      3.864
REMARK  16 active torsions:
REMARK  status: ('A' for Active; 'I' for Inactive)
REMARK    1  A    between atoms: C_2  and  C_3 
REMARK    2  A    between atoms: C_3  and  C_4 
REMARK    3  A    between atoms: C_4  and  C_5 
REMARK    4  A    between atoms: C_5  and  C_6 
REMARK    5  A    between atoms: C_6  and  C_7 
REMARK    6  A    between atoms: C_7  and  C_8 
REMARK    7  A    between atoms: C_8  and  C_9 
REMARK    8  A    between atoms: C_9  and  C_10 
REMARK    9  A    between atoms: C_10  and  C_11 
REMARK   10  A    between atoms: C_11  and  C_12 
REMARK   11  A    between atoms: C_12  and  C_13 
REMARK   12  A    between atoms: C_13  and  C_14 
REMARK   13  A    between atoms: C_14  and  C_15 
REMARK   14  A    between atoms: C_15  and  C_16 
REMARK   15  A    between atoms: C_16  and  O_18 
REMARK   16  A    between atoms: O_18  and  C_19 
ROOT
HETATM    1  C   UNL     1     -21.692  -6.099  -4.779  1.00  0.00     0.000 C 
ENDROOT
BRANCH   1   2
HETATM    2  C   UNL     1     -21.285  -7.132  -3.735  1.00  0.00     0.000 C 
BRANCH   2   3
HETATM    3  C   UNL     1     -21.701  -6.676  -2.343  1.00  0.00     0.000 C 
BRANCH   3   4
HETATM    4  C   UNL     1     -21.508  -7.795  -1.329  1.00  0.00     0.000 C 
BRANCH   4   5
HETATM    5  C   UNL     1     -22.190  -7.445  -0.013  1.00  0.00     0.000 C 
BRANCH   5   6
HETATM    6  C   UNL     1     -23.293  -8.446   0.304  1.00  0.00     0.000 C 
BRANCH   6   7
HETATM    7  C   UNL     1     -22.966  -9.812  -0.289  1.00  0.00     0.000 C 
BRANCH   7   8
HETATM    8  C   UNL     1     -24.072 -10.813   0.024  1.00  0.00     0.000 C 
BRANCH   8   9
HETATM    9  C   UNL     1     -24.005 -12.004  -0.927  1.00  0.00    -0.000 C 
BRANCH   9  10
HETATM   10  C   UNL     1     -23.156 -13.129  -0.339  1.00  0.00    -0.005 C 
HETATM   11  C   UNL     1     -23.313 -13.195   1.169  1.00  0.00     0.005 C 
ENDBRANCH   9  10
ENDBRANCH   8   9
ENDBRANCH   7   8
ENDBRANCH   6   7
ENDBRANCH   5   6
ENDBRANCH   4   5
ENDBRANCH   3   4
ENDBRANCH   2   3
ENDBRANCH   1   2
BRANCH   1  12
HETATM   12  C   UNL     1     -20.486  -5.286  -5.228  1.00  0.00     0.000 C 
BRANCH  12  13
HETATM   13  C   UNL     1     -20.035  -5.694  -6.628  1.00  0.00     0.000 C 
BRANCH  13  14
HETATM   14  C   UNL     1     -19.922  -4.459  -7.512  1.00  0.00     0.010 C 
BRANCH  14  15
HETATM   15  C   UNL     1     -21.152  -3.560  -7.424  1.00  0.00     0.111 C 
BRANCH  15  16
HETATM   16  C   UNL     1     -22.347  -4.268  -8.019  1.00  0.00     0.259 C 
HETATM   17  O   UNL     1     -23.426  -4.403  -7.461  1.00  0.00    -0.265 OA
BRANCH  16  18
HETATM   18  O   UNL     1     -22.045  -4.740  -9.261  1.00  0.00    -0.317 OA
BRANCH  18  19
HETATM   19  C   UNL     1     -22.419  -3.869 -10.345  1.00  0.00     0.123 C 
HETATM   20  C   UNL     1     -21.193  -3.533 -11.189  1.00  0.00     0.040 C 
HETATM   21  C   UNL     1     -23.458  -4.596 -11.189  1.00  0.00     0.040 C 
ENDBRANCH  18  19
ENDBRANCH  16  18
ENDBRANCH  15  16
ENDBRANCH  14  15
ENDBRANCH  13  14
ENDBRANCH  12  13
ENDBRANCH   1  12
TORSDOF 16
BEGIN_RES ARG D 557
REMARK  4 active torsions:
REMARK  status: ('A' for Active; 'I' for Inactive)
REMARK    1  A    between atoms: CA   and  CB  
REMARK    2  A    between atoms: CB   and  CG  
REMARK    3  A    between atoms: CG   and  CD  
REMARK    4  A    between atoms: CD   and  NE  
REMARK       I    between atoms: NE   and  CZ  
REMARK       I    between atoms: CZ   and  NH1 
REMARK       I    between atoms: CZ   and  NH2 
ROOT
ATOM      1  CA  ARG D 557     -26.217   2.705 -17.014  1.00 35.49     0.159 C 
ENDROOT
BRANCH   1   2
ATOM      2  CB  ARG D 557     -26.789   1.319 -17.183  1.00 35.49     0.034 C 
BRANCH   2   3
ATOM      3  CG  ARG D 557     -28.235   1.225 -17.421  1.00 35.49     0.027 C 
BRANCH   3   4
ATOM      4  CD  ARG D 557     -28.902   0.295 -16.481  1.00 35.49     0.116 C 
BRANCH   4   5
ATOM      5  NE  ARG D 557     -29.300  -0.930 -17.123  1.00 35.49    -0.212 N 
ATOM      6  CZ  ARG D 557     -28.674  -2.082 -17.034  1.00 35.49     0.666 C 
ATOM      7  NH1 ARG D 557     -27.566  -2.235 -16.332  1.00 35.49    -0.235 N 
ATOM      8  NH2 ARG D 557     -29.190  -3.096 -17.666  1.00 35.49    -0.235 N 
ATOM      9  HH  ARG D 557     -27.210  -1.582 -15.907  1.00 35.49     0.174 HD
ATOM     10  HH  ARG D 557     -27.203  -3.011 -16.309  1.00 35.49     0.174 HD
ATOM     11  HH  ARG D 557     -29.910  -2.970 -18.105  1.00 35.49     0.174 HD
ATOM     12  HH  ARG D 557     -28.816  -3.857 -17.629  1.00 35.49     0.174 HD
ATOM     13  HE  ARG D 557     -29.964  -0.906 -17.654  1.00 35.49     0.178 HD
ENDBRANCH   4   5
ENDBRANCH   3   4
ENDBRANCH   2   3
ENDBRANCH   1   2
END_RES ARG D 557
BEGIN_RES GLU D 570
REMARK  3 active torsions:
REMARK  status: ('A' for Active; 'I' for Inactive)
REMARK    5  A    between atoms: CA   and  CB  
REMARK    6  A    between atoms: CB   and  CG  
REMARK    7  A    between atoms: CG   and  CD  
ROOT
ATOM     14  CA  GLU D 570     -18.033  -6.348 -13.375  1.00 32.92     0.160 C 
ENDROOT
BRANCH  14  15
ATOM     15  CB  GLU D 570     -19.500  -6.345 -13.794  1.00 32.92     0.043 C 
BRANCH  15  16
ATOM     16  CG  GLU D 570     -19.805  -6.040 -15.216  1.00 32.92     0.100 C 
BRANCH  16  17
ATOM     17  CD  GLU D 570     -21.145  -5.366 -15.399  1.00 32.92     0.185 C 
ATOM     18  OE1 GLU D 570     -21.735  -4.911 -14.401  1.00 32.92    -0.647 OA
ATOM     19  OE2 GLU D 570     -21.617  -5.308 -16.552  1.00 32.92    -0.647 OA
ENDBRANCH  16  17
ENDBRANCH  15  16
ENDBRANCH  14  15
END_RES GLU D 570
ENDMDL
MODEL 7
REMARK VINA RESULT:      -6.6      1.567      2.275
REMARK  16 active torsions:
REMARK  status: ('A' for Active; 'I' for Inactive)
REMARK    1  A    between atoms: C_2  and  C_3 
REMARK    2  A    between atoms: C_3  and  C_4 
REMARK    3  A    between atoms: C_4  and  C_5 
REMARK    4  A    between atoms: C_5  and  C_6 
REMARK    5  A    between atoms: C_6  and  C_7 
REMARK    6  A    between atoms: C_7  and  C_8 
REMARK    7  A    between atoms: C_8  and  C_9 
REMARK    8  A    between atoms: C_9  and  C_10 
REMARK    9  A    between atoms: C_10  and  C_11 
REMARK   10  A    between atoms: C_11  and  C_12 
REMARK   11  A    between atoms: C_12  and  C_13 
REMARK   12  A    between atoms: C_13  and  C_14 
REMARK   13  A    between atoms: C_14  and  C_15 
REMARK   14  A    between atoms: C_15  and  C_16 
REMARK   15  A    between atoms: C_16  and  O_18 
REMARK   16  A    between atoms: O_18  and  C_19 
ROOT
HETATM    1  C   UNL     1     -20.689  -5.003  -5.945  1.00  0.00     0.000 C 
ENDROOT
BRANCH   1   2
HETATM    2  C   UNL     1     -20.753  -6.493  -6.262  1.00  0.00     0.000 C 
BRANCH   2   3
HETATM    3  C   UNL     1     -21.127  -7.286  -5.017  1.00  0.00     0.000 C 
BRANCH   3   4
HETATM    4  C   UNL     1     -22.195  -6.556  -4.213  1.00  0.00     0.000 C 
BRANCH   4   5
HETATM    5  C   UNL     1     -21.735  -6.359  -2.775  1.00  0.00     0.000 C 
BRANCH   5   6
HETATM    6  C   UNL     1     -20.752  -7.450  -2.370  1.00  0.00     0.000 C 
BRANCH   6   7
HETATM    7  C   UNL     1     -21.110  -8.015  -1.001  1.00  0.00     0.000 C 
BRANCH   7   8
HETATM    8  C   UNL     1     -22.363  -7.343  -0.452  1.00  0.00     0.000 C 
BRANCH   8   9
HETATM    9  C   UNL     1     -23.208  -8.340   0.335  1.00  0.00    -0.000 C 
BRANCH   9  10
HETATM   10  C   UNL     1     -22.734  -9.771   0.097  1.00  0.00    -0.005 C 
HETATM   11  C   UNL     1     -23.900 -10.680  -0.245  1.00  0.00     0.005 C 
ENDBRANCH   9  10
ENDBRANCH   8   9
ENDBRANCH   7   8
ENDBRANCH   6   7
ENDBRANCH   5   6
ENDBRANCH   4   5
ENDBRANCH   3   4
ENDBRANCH   2   3
ENDBRANCH   1   2
BRANCH   1  12
HETATM   12  C   UNL     1     -20.195  -4.219  -7.152  1.00  0.00     0.000 C 
BRANCH  12  13
HETATM   13  C   UNL     1     -20.704  -4.832  -8.455  1.00  0.00     0.000 C 
BRANCH  13  14
HETATM   14  C   UNL     1     -21.897  -4.035  -8.967  1.00  0.00     0.010 C 
BRANCH  14  15
HETATM   15  C   UNL     1     -22.203  -4.314 -10.435  1.00  0.00     0.111 C 
BRANCH  15  16
HETATM   16  C   UNL     1     -21.562  -3.255 -11.302  1.00  0.00     0.259 C 
HETATM   17  O   UNL     1     -20.369  -2.990 -11.313  1.00  0.00    -0.265 OA
BRANCH  16  18
HETATM   18  O   UNL     1     -22.508  -2.634 -12.061  1.00  0.00    -0.317 OA
BRANCH  18  19
HETATM   19  C   UNL     1     -23.302  -3.515 -12.876  1.00  0.00     0.123 C 
HETATM   20  C   UNL     1     -24.726  -2.977 -12.989  1.00  0.00     0.040 C 
HETATM   21  C   UNL     1     -22.654  -3.587 -14.253  1.00  0.00     0.040 C 
ENDBRANCH  18  19
ENDBRANCH  16  18
ENDBRANCH  15  16
ENDBRANCH  14  15
ENDBRANCH  13  14
ENDBRANCH  12  13
ENDBRANCH   1  12
TORSDOF 16
BEGIN_RES ARG D 557
REMARK  4 active torsions:
REMARK  status: ('A' for Active; 'I' for Inactive)
REMARK    1  A    between atoms: CA   and  CB  
REMARK    2  A    between atoms: CB   and  CG  
REMARK    3  A    between atoms: CG   and  CD  
REMARK    4  A    between atoms: CD   and  NE  
REMARK       I    between atoms: NE   and  CZ  
REMARK       I    between atoms: CZ   and  NH1 
REMARK       I    between atoms: CZ   and  NH2 
ROOT
ATOM      1  CA  ARG D 557     -26.217   2.705 -17.014  1.00 35.49     0.159 C 
ENDROOT
BRANCH   1   2
ATOM      2  CB  ARG D 557     -26.789   1.319 -17.183  1.00 35.49     0.034 C 
BRANCH   2   3
ATOM      3  CG  ARG D 557     -28.227   1.227 -17.465  1.00 35.49     0.027 C 
BRANCH   3   4
ATOM      4  CD  ARG D 557     -28.911   0.245 -16.594  1.00 35.49     0.116 C 
BRANCH   4   5
ATOM      5  NE  ARG D 557     -28.031  -0.811 -16.171  1.00 35.49    -0.212 N 
ATOM      6  CZ  ARG D 557     -28.097  -2.066 -16.555  1.00 35.49     0.666 C 
ATOM      7  NH1 ARG D 557     -29.023  -2.505 -17.388  1.00 35.49    -0.235 N 
ATOM      8  NH2 ARG D 557     -27.201  -2.886 -16.086  1.00 35.49    -0.235 N 
ATOM      9  HH  ARG D 557     -29.621  -1.983 -17.711  1.00 35.49     0.174 HD
ATOM     10  HH  ARG D 557     -29.015  -3.334 -17.605  1.00 35.49     0.174 HD
ATOM     11  HH  ARG D 557     -26.611  -2.573 -15.556  1.00 35.49     0.174 HD
ATOM     12  HH  ARG D 557     -27.210  -3.703 -16.314  1.00 35.49     0.174 HD
ATOM     13  HE  ARG D 557     -27.449  -0.633 -15.577  1.00 35.49     0.178 HD
ENDBRANCH   4   5
ENDBRANCH   3   4
ENDBRANCH   2   3
ENDBRANCH   1   2
END_RES ARG D 557
BEGIN_RES GLU D 570
REMARK  3 active torsions:
REMARK  status: ('A' for Active; 'I' for Inactive)
REMARK    5  A    between atoms: CA   and  CB  
REMARK    6  A    between atoms: CB   and  CG  
REMARK    7  A    between atoms: CG   and  CD  
ROOT
ATOM     14  CA  GLU D 570     -18.033  -6.348 -13.375  1.00 32.92     0.160 C 
ENDROOT
BRANCH  14  15
ATOM     15  CB  GLU D 570     -19.500  -6.345 -13.794  1.00 32.92     0.043 C 
BRANCH  15  16
ATOM     16  CG  GLU D 570     -20.119  -7.654 -14.128  1.00 32.92     0.100 C 
BRANCH  16  17
ATOM     17  CD  GLU D 570     -20.801  -7.656 -15.476  1.00 32.92     0.185 C 
ATOM     18  OE1 GLU D 570     -21.461  -6.658 -15.822  1.00 32.92    -0.647 OA
ATOM     19  OE2 GLU D 570     -20.688  -8.675 -16.186  1.00 32.92    -0.647 OA
ENDBRANCH  16  17
ENDBRANCH  15  16
ENDBRANCH  14  15
END_RES GLU D 570
ENDMDL
MODEL 8
REMARK VINA RESULT:      -6.5      2.466      4.816
REMARK  16 active torsions:
REMARK  status: ('A' for Active; 'I' for Inactive)
REMARK    1  A    between atoms: C_2  and  C_3 
REMARK    2  A    between atoms: C_3  and  C_4 
REMARK    3  A    between atoms: C_4  and  C_5 
REMARK    4  A    between atoms: C_5  and  C_6 
REMARK    5  A    between atoms: C_6  and  C_7 
REMARK    6  A    between atoms: C_7  and  C_8 
REMARK    7  A    between atoms: C_8  and  C_9 
REMARK    8  A    between atoms: C_9  and  C_10 
REMARK    9  A    between atoms: C_10  and  C_11 
REMARK   10  A    between atoms: C_11  and  C_12 
REMARK   11  A    between atoms: C_12  and  C_13 
REMARK   12  A    between atoms: C_13  and  C_14 
REMARK   13  A    between atoms: C_14  and  C_15 
REMARK   14  A    between atoms: C_15  and  C_16 
REMARK   15  A    between atoms: C_16  and  O_18 
REMARK   16  A    between atoms: O_18  and  C_19 
ROOT
HETATM    1  C   UNL     1     -21.271  -6.928  -3.058  1.00  0.00     0.000 C 
ENDROOT
BRANCH   1   2
HETATM    2  C   UNL     1     -22.114  -6.142  -2.061  1.00  0.00     0.000 C 
BRANCH   2   3
HETATM    3  C   UNL     1     -22.333  -6.956  -0.792  1.00  0.00     0.000 C 
BRANCH   3   4
HETATM    4  C   UNL     1     -21.241  -8.003  -0.628  1.00  0.00     0.000 C 
BRANCH   4   5
HETATM    5  C   UNL     1     -21.760  -9.194   0.168  1.00  0.00     0.000 C 
BRANCH   5   6
HETATM    6  C   UNL     1     -23.283  -9.206   0.185  1.00  0.00     0.000 C 
BRANCH   6   7
HETATM    7  C   UNL     1     -23.814 -10.564  -0.257  1.00  0.00     0.000 C 
BRANCH   7   8
HETATM    8  C   UNL     1     -22.694 -11.416  -0.842  1.00  0.00     0.000 C 
BRANCH   8   9
HETATM    9  C   UNL     1     -22.961 -11.723  -2.312  1.00  0.00    -0.000 C 
BRANCH   9  10
HETATM   10  C   UNL     1     -22.441 -10.604  -3.210  1.00  0.00    -0.005 C 
HETATM   11  C   UNL     1     -20.925 -10.632  -3.290  1.00  0.00     0.005 C 
ENDBRANCH   9  10
ENDBRANCH   8   9
ENDBRANCH   7   8
ENDBRANCH   6   7
ENDBRANCH   5   6
ENDBRANCH   4   5
ENDBRANCH   3   4
ENDBRANCH   2   3
ENDBRANCH   1   2
BRANCH   1  12
HETATM   12  C   UNL     1     -21.890  -6.866  -4.448  1.00  0.00     0.000 C 
BRANCH  12  13
HETATM   13  C   UNL     1     -20.816  -6.796  -5.530  1.00  0.00     0.000 C 
BRANCH  13  14
HETATM   14  C   UNL     1     -20.271  -5.377  -5.623  1.00  0.00     0.010 C 
BRANCH  14  15
HETATM   15  C   UNL     1     -19.897  -4.985  -7.049  1.00  0.00     0.111 C 
BRANCH  15  16
HETATM   16  C   UNL     1     -21.039  -4.233  -7.691  1.00  0.00     0.259 C 
HETATM   17  O   UNL     1     -21.530  -3.203  -7.252  1.00  0.00    -0.265 OA
BRANCH  16  18
HETATM   18  O   UNL     1     -21.447  -4.873  -8.822  1.00  0.00    -0.317 OA
BRANCH  18  19
HETATM   19  C   UNL     1     -21.715  -4.008  -9.942  1.00  0.00     0.123 C 
HETATM   20  C   UNL     1     -20.500  -3.959 -10.864  1.00  0.00     0.040 C 
HETATM   21  C   UNL     1     -22.920  -4.569 -10.686  1.00  0.00     0.040 C 
ENDBRANCH  18  19
ENDBRANCH  16  18
ENDBRANCH  15  16
ENDBRANCH  14  15
ENDBRANCH  13  14
ENDBRANCH  12  13
ENDBRANCH   1  12
TORSDOF 16
BEGIN_RES ARG D 557
REMARK  4 active torsions:
REMARK  status: ('A' for Active; 'I' for Inactive)
REMARK    1  A    between atoms: CA   and  CB  
REMARK    2  A    between atoms: CB   and  CG  
REMARK    3  A    between atoms: CG   and  CD  
REMARK    4  A    between atoms: CD   and  NE  
REMARK       I    between atoms: NE   and  CZ  
REMARK       I    between atoms: CZ   and  NH1 
REMARK       I    between atoms: CZ   and  NH2 
ROOT
ATOM      1  CA  ARG D 557     -26.217   2.705 -17.014  1.00 35.49     0.159 C 
ENDROOT
BRANCH   1   2
ATOM      2  CB  ARG D 557     -26.789   1.319 -17.183  1.00 35.49     0.034 C 
BRANCH   2   3
ATOM      3  CG  ARG D 557     -25.862   0.195 -17.003  1.00 35.49     0.027 C 
BRANCH   3   4
ATOM      4  CD  ARG D 557     -26.296  -0.728 -15.929  1.00 35.49     0.116 C 
BRANCH   4   5
ATOM      5  NE  ARG D 557     -25.265  -0.942 -14.949  1.00 35.49    -0.212 N 
ATOM      6  CZ  ARG D 557     -25.024  -2.071 -14.321  1.00 35.49     0.666 C 
ATOM      7  NH1 ARG D 557     -25.739  -3.162 -14.524  1.00 35.49    -0.235 N 
ATOM      8  NH2 ARG D 557     -24.033  -2.090 -13.478  1.00 35.49    -0.235 N 
ATOM      9  HH  ARG D 557     -26.395  -3.173 -15.076  1.00 35.49     0.174 HD
ATOM     10  HH  ARG D 557     -25.534  -3.870 -14.088  1.00 35.49     0.174 HD
ATOM     11  HH  ARG D 557     -23.583  -1.373 -13.373  1.00 35.49     0.174 HD
ATOM     12  HH  ARG D 557     -23.844  -2.802 -13.057  1.00 35.49     0.174 HD
ATOM     13  HE  ARG D 557     -24.802  -0.272 -14.703  1.00 35.49     0.178 HD
ENDBRANCH   4   5
ENDBRANCH   3   4
ENDBRANCH   2   3
ENDBRANCH   1   2
END_RES ARG D 557
BEGIN_RES GLU D 570
REMARK  3 active torsions:
REMARK  status: ('A' for Active; 'I' for Inactive)
REMARK    5  A    between atoms: CA   and  CB  
REMARK    6  A    between atoms: CB   and  CG  
REMARK    7  A    between atoms: CG   and  CD  
ROOT
ATOM     14  CA  GLU D 570     -18.033  -6.348 -13.375  1.00 32.92     0.160 C 
ENDROOT
BRANCH  14  15
ATOM     15  CB  GLU D 570     -19.500  -6.345 -13.794  1.00 32.92     0.043 C 
BRANCH  15  16
ATOM     16  CG  GLU D 570     -20.024  -7.565 -14.460  1.00 32.92     0.100 C 
BRANCH  16  17
ATOM     17  CD  GLU D 570     -20.813  -7.260 -15.712  1.00 32.92     0.185 C 
ATOM     18  OE1 GLU D 570     -21.752  -8.014 -16.035  1.00 32.92    -0.647 OA
ATOM     19  OE2 GLU D 570     -20.478  -6.267 -16.387  1.00 32.92    -0.647 OA
ENDBRANCH  16  17
ENDBRANCH  15  16
ENDBRANCH  14  15
END_RES GLU D 570
ENDMDL
MODEL 9
REMARK VINA RESULT:      -6.5      7.256     11.814
REMARK  16 active torsions:
REMARK  status: ('A' for Active; 'I' for Inactive)
REMARK    1  A    between atoms: C_2  and  C_3 
REMARK    2  A    between atoms: C_3  and  C_4 
REMARK    3  A    between atoms: C_4  and  C_5 
REMARK    4  A    between atoms: C_5  and  C_6 
REMARK    5  A    between atoms: C_6  and  C_7 
REMARK    6  A    between atoms: C_7  and  C_8 
REMARK    7  A    between atoms: C_8  and  C_9 
REMARK    8  A    between atoms: C_9  and  C_10 
REMARK    9  A    between atoms: C_10  and  C_11 
REMARK   10  A    between atoms: C_11  and  C_12 
REMARK   11  A    between atoms: C_12  and  C_13 
REMARK   12  A    between atoms: C_13  and  C_14 
REMARK   13  A    between atoms: C_14  and  C_15 
REMARK   14  A    between atoms: C_15  and  C_16 
REMARK   15  A    between atoms: C_16  and  O_18 
REMARK   16  A    between atoms: O_18  and  C_19 
ROOT
HETATM    1  C   UNL     1     -35.837  -0.681 -15.694  1.00  0.00     0.000 C 
ENDROOT
BRANCH   1   2
HETATM    2  C   UNL     1     -34.791   0.354 -15.296  1.00  0.00     0.000 C 
BRANCH   2   3
HETATM    3  C   UNL     1     -35.064   0.875 -13.891  1.00  0.00     0.000 C 
BRANCH   3   4
HETATM    4  C   UNL     1     -35.846  -0.148 -13.080  1.00  0.00     0.000 C 
BRANCH   4   5
HETATM    5  C   UNL     1     -34.958  -0.771 -12.011  1.00  0.00     0.000 C 
BRANCH   5   6
HETATM    6  C   UNL     1     -35.221  -2.267 -11.897  1.00  0.00     0.000 C 
BRANCH   6   7
HETATM    7  C   UNL     1     -34.117  -3.061 -12.585  1.00  0.00     0.000 C 
BRANCH   7   8
HETATM    8  C   UNL     1     -33.146  -3.632 -11.559  1.00  0.00     0.000 C 
BRANCH   8   9
HETATM    9  C   UNL     1     -33.883  -4.505 -10.546  1.00  0.00    -0.000 C 
BRANCH   9  10
HETATM   10  C   UNL     1     -33.864  -5.971 -10.970  1.00  0.00    -0.005 C 
HETATM   11  C   UNL     1     -34.709  -6.817 -10.035  1.00  0.00     0.005 C 
ENDBRANCH   9  10
ENDBRANCH   8   9
ENDBRANCH   7   8
ENDBRANCH   6   7
ENDBRANCH   5   6
ENDBRANCH   4   5
ENDBRANCH   3   4
ENDBRANCH   2   3
ENDBRANCH   1   2
BRANCH   1  12
HETATM   12  C   UNL     1     -35.320  -1.557 -16.826  1.00  0.00     0.000 C 
BRANCH  12  13
HETATM   13  C   UNL     1     -34.533  -2.749 -16.288  1.00  0.00     0.000 C 
BRANCH  13  14
HETATM   14  C   UNL     1     -33.507  -3.196 -17.322  1.00  0.00     0.010 C 
BRANCH  14  15
HETATM   15  C   UNL     1     -32.613  -4.322 -16.811  1.00  0.00     0.111 C 
BRANCH  15  16
HETATM   16  C   UNL     1     -31.167  -4.006 -17.116  1.00  0.00     0.259 C 
HETATM   17  O   UNL     1     -30.761  -2.931 -17.533  1.00  0.00    -0.265 OA
BRANCH  16  18
HETATM   18  O   UNL     1     -30.385  -5.093 -16.868  1.00  0.00    -0.317 OA
BRANCH  18  19
HETATM   19  C   UNL     1     -30.130  -5.927 -18.013  1.00  0.00     0.123 C 
HETATM   20  C   UNL     1     -28.649  -5.873 -18.377  1.00  0.00     0.040 C 
HETATM   21  C   UNL     1     -30.533  -7.351 -17.652  1.00  0.00     0.040 C 
ENDBRANCH  18  19
ENDBRANCH  16  18
ENDBRANCH  15  16
ENDBRANCH  14  15
ENDBRANCH  13  14
ENDBRANCH  12  13
ENDBRANCH   1  12
TORSDOF 16
BEGIN_RES ARG D 557
REMARK  4 active torsions:
REMARK  status: ('A' for Active; 'I' for Inactive)
REMARK    1  A    between atoms: CA   and  CB  
REMARK    2  A    between atoms: CB   and  CG  
REMARK    3  A    between atoms: CG   and  CD  
REMARK    4  A    between atoms: CD   and  NE  
REMARK       I    between atoms: NE   and  CZ  
REMARK       I    between atoms: CZ   and  NH1 
REMARK       I    between atoms: CZ   and  NH2 
ROOT
ATOM      1  CA  ARG D 557     -26.217   2.705 -17.014  1.00 35.49     0.159 C 
ENDROOT
BRANCH   1   2
ATOM      2  CB  ARG D 557     -26.789   1.319 -17.183  1.00 35.49     0.034 C 
BRANCH   2   3
ATOM      3  CG  ARG D 557     -28.199   1.137 -16.818  1.00 35.49     0.027 C 
BRANCH   3   4
ATOM      4  CD  ARG D 557     -28.525  -0.274 -16.511  1.00 35.49     0.116 C 
BRANCH   4   5
ATOM      5  NE  ARG D 557     -27.467  -0.930 -15.788  1.00 35.49    -0.212 N 
ATOM      6  CZ  ARG D 557     -27.173  -2.210 -15.850  1.00 35.49     0.666 C 
ATOM      7  NH1 ARG D 557     -27.853  -3.058 -16.599  1.00 35.49    -0.235 N 
ATOM      8  NH2 ARG D 557     -26.166  -2.629 -15.141  1.00 35.49    -0.235 N 
ATOM      9  HH  ARG D 557     -28.519  -2.804 -17.075  1.00 35.49     0.174 HD
ATOM     10  HH  ARG D 557     -27.614  -3.881 -16.601  1.00 35.49     0.174 HD
ATOM     11  HH  ARG D 557     -25.740  -2.057 -14.673  1.00 35.49     0.174 HD
ATOM     12  HH  ARG D 557     -25.943  -3.447 -15.158  1.00 35.49     0.174 HD
ATOM     13  HE  ARG D 557     -27.024  -0.472 -15.225  1.00 35.49     0.178 HD
ENDBRANCH   4   5
ENDBRANCH   3   4
ENDBRANCH   2   3
ENDBRANCH   1   2
END_RES ARG D 557
BEGIN_RES GLU D 570
REMARK  3 active torsions:
REMARK  status: ('A' for Active; 'I' for Inactive)
REMARK    5  A    between atoms: CA   and  CB  
REMARK    6  A    between atoms: CB   and  CG  
REMARK    7  A    between atoms: CG   and  CD  
ROOT
ATOM     14  CA  GLU D 570     -18.033  -6.348 -13.375  1.00 32.92     0.160 C 
ENDROOT
BRANCH  14  15
ATOM     15  CB  GLU D 570     -19.500  -6.345 -13.794  1.00 32.92     0.043 C 
BRANCH  15  16
ATOM     16  CG  GLU D 570     -20.078  -7.628 -14.272  1.00 32.92     0.100 C 
BRANCH  16  17
ATOM     17  CD  GLU D 570     -20.943  -7.463 -15.499  1.00 32.92     0.185 C 
ATOM     18  OE1 GLU D 570     -21.403  -8.478 -16.057  1.00 32.92    -0.647 OA
ATOM     19  OE2 GLU D 570     -21.150  -6.307 -15.918  1.00 32.92    -0.647 OA
ENDBRANCH  16  17
ENDBRANCH  15  16
ENDBRANCH  14  15
END_RES GLU D 570
ENDMDL
