MODEL 1
REMARK VINA RESULT:      -6.6      0.000      0.000
REMARK  21 active torsions:
REMARK  status: ('A' for Active; 'I' for Inactive)
REMARK    1  A    between atoms: C_2  and  C_3 
REMARK    2  A    between atoms: C_3  and  C_4 
REMARK    3  A    between atoms: C_4  and  C_5 
REMARK    4  A    between atoms: C_5  and  C_6 
REMARK    5  A    between atoms: C_6  and  C_7 
REMARK    6  A    between atoms: C_7  and  C_8 
REMARK    7  A    between atoms: C_8  and  C_9 
REMARK    8  A    between atoms: C_9  and  C_10 
REMARK    9  A    between atoms: C_10  and  C_11 
REMARK   10  A    between atoms: C_11  and  C_12 
REMARK   11  A    between atoms: C_12  and  C_13 
REMARK   12  A    between atoms: C_13  and  O_14 
REMARK   13  A    between atoms: O_14  and  C_15 
REMARK   14  A    between atoms: C_15  and  C_16 
REMARK   15  A    between atoms: C_16  and  O_17 
REMARK   16  A    between atoms: O_17  and  C_18 
REMARK   17  A    between atoms: C_18  and  C_19 
REMARK   18  A    between atoms: C_19  and  O_20 
REMARK   19  A    between atoms: O_20  and  C_21 
REMARK   20  A    between atoms: C_21  and  C_22 
REMARK   21  A    between atoms: C_22  and  O_23 
ROOT
HETATM    1  C   UNL     1     -22.768  -3.693  -9.054  1.00  0.00     0.026 C 
ENDROOT
BRANCH   1   2
HETATM    2  C   UNL     1     -21.597  -4.451  -8.451  1.00  0.00     0.002 C 
BRANCH   2   3
HETATM    3  C   UNL     1     -20.960  -3.665  -7.315  1.00  0.00     0.000 C 
BRANCH   3   4
HETATM    4  C   UNL     1     -20.585  -4.602  -6.176  1.00  0.00     0.000 C 
BRANCH   4   5
HETATM    5  C   UNL     1     -21.071  -6.016  -6.462  1.00  0.00     0.000 C 
BRANCH   5   6
HETATM    6  C   UNL     1     -20.909  -6.894  -5.228  1.00  0.00     0.000 C 
BRANCH   6   7
HETATM    7  C   UNL     1     -21.996  -6.582  -4.208  1.00  0.00     0.000 C 
BRANCH   7   8
HETATM    8  C   UNL     1     -21.383  -6.103  -2.898  1.00  0.00     0.000 C 
BRANCH   8   9
HETATM    9  C   UNL     1     -22.232  -6.542  -1.713  1.00  0.00     0.000 C 
BRANCH   9  10
HETATM   10  C   UNL     1     -22.021  -8.025  -1.420  1.00  0.00    -0.000 C 
BRANCH  10  11
HETATM   11  C   UNL     1     -21.148  -8.222  -0.184  1.00  0.00    -0.005 C 
HETATM   12  C   UNL     1     -21.963  -8.073   1.087  1.00  0.00     0.005 C 
ENDBRANCH  10  11
ENDBRANCH   9  10
ENDBRANCH   8   9
ENDBRANCH   7   8
ENDBRANCH   6   7
ENDBRANCH   5   6
ENDBRANCH   4   5
ENDBRANCH   3   4
ENDBRANCH   2   3
ENDBRANCH   1   2
BRANCH   1  13
HETATM   13  C   UNL     1     -23.693  -4.652  -9.781  1.00  0.00     0.167 C 
BRANCH  13  14
HETATM   14  O   UNL     1     -23.509  -4.471 -11.180  1.00  0.00    -0.389 OA
BRANCH  14  15
HETATM   15  C   UNL     1     -23.558  -3.090 -11.518  1.00  0.00     0.193 C 
BRANCH  15  16
HETATM   16  C   UNL     1     -22.846  -2.880 -12.842  1.00  0.00     0.193 C 
BRANCH  16  17
HETATM   17  O   UNL     1     -23.629  -3.472 -13.872  1.00  0.00    -0.387 OA
BRANCH  17  18
HETATM   18  C   UNL     1     -22.915  -4.513 -14.530  1.00  0.00     0.193 C 
BRANCH  18  19
HETATM   19  C   UNL     1     -23.792  -5.752 -14.585  1.00  0.00     0.193 C 
BRANCH  19  20
HETATM   20  O   UNL     1     -24.994  -5.459 -15.307  1.00  0.00    -0.387 OA
BRANCH  20  21
HETATM   21  C   UNL     1     -25.442  -6.607 -16.039  1.00  0.00     0.193 C 
BRANCH  21  22
HETATM   22  C   UNL     1     -24.246  -7.236 -16.746  1.00  0.00     0.190 C 
BRANCH  22  23
HETATM   23  O   UNL     1     -24.165  -8.628 -16.451  1.00  0.00    -0.399 OA
HETATM   24  H   UNL     1     -23.818  -9.049 -17.260  1.00  0.00     0.209 HD
ENDBRANCH  22  23
ENDBRANCH  21  22
ENDBRANCH  20  21
ENDBRANCH  19  20
ENDBRANCH  18  19
ENDBRANCH  17  18
ENDBRANCH  16  17
ENDBRANCH  15  16
ENDBRANCH  14  15
ENDBRANCH  13  14
ENDBRANCH   1  13
TORSDOF 21
BEGIN_RES ARG D 557
REMARK  4 active torsions:
REMARK  status: ('A' for Active; 'I' for Inactive)
REMARK    1  A    between atoms: CA   and  CB  
REMARK    2  A    between atoms: CB   and  CG  
REMARK    3  A    between atoms: CG   and  CD  
REMARK    4  A    between atoms: CD   and  NE  
REMARK       I    between atoms: NE   and  CZ  
REMARK       I    between atoms: CZ   and  NH1 
REMARK       I    between atoms: CZ   and  NH2 
ROOT
ATOM      1  CA  ARG D 557     -26.217   2.705 -17.014  1.00 35.49     0.159 C 
ENDROOT
BRANCH   1   2
ATOM      2  CB  ARG D 557     -26.789   1.319 -17.183  1.00 35.49     0.034 C 
BRANCH   2   3
ATOM      3  CG  ARG D 557     -28.216   1.152 -16.880  1.00 35.49     0.027 C 
BRANCH   3   4
ATOM      4  CD  ARG D 557     -28.701  -0.213 -17.187  1.00 35.49     0.116 C 
BRANCH   4   5
ATOM      5  NE  ARG D 557     -27.919  -1.228 -16.530  1.00 35.49    -0.212 N 
ATOM      6  CZ  ARG D 557     -28.070  -2.525 -16.672  1.00 35.49     0.666 C 
ATOM      7  NH1 ARG D 557     -28.999  -3.051 -17.450  1.00 35.49    -0.235 N 
ATOM      8  NH2 ARG D 557     -27.257  -3.300 -16.014  1.00 35.49    -0.235 N 
ATOM      9  HH  ARG D 557     -29.544  -2.560 -17.893  1.00 35.49     0.174 HD
ATOM     10  HH  ARG D 557     -29.048  -3.904 -17.505  1.00 35.49     0.174 HD
ATOM     11  HH  ARG D 557     -26.662  -2.932 -15.526  1.00 35.49     0.174 HD
ATOM     12  HH  ARG D 557     -27.321  -4.142 -16.083  1.00 35.49     0.174 HD
ATOM     13  HE  ARG D 557     -27.345  -0.979 -15.954  1.00 35.49     0.178 HD
ENDBRANCH   4   5
ENDBRANCH   3   4
ENDBRANCH   2   3
ENDBRANCH   1   2
END_RES ARG D 557
BEGIN_RES GLU D 570
REMARK  3 active torsions:
REMARK  status: ('A' for Active; 'I' for Inactive)
REMARK    5  A    between atoms: CA   and  CB  
REMARK    6  A    between atoms: CB   and  CG  
REMARK    7  A    between atoms: CG   and  CD  
ROOT
ATOM     14  CA  GLU D 570     -18.033  -6.348 -13.375  1.00 32.92     0.160 C 
ENDROOT
BRANCH  14  15
ATOM     15  CB  GLU D 570     -19.500  -6.345 -13.794  1.00 32.92     0.043 C 
BRANCH  15  16
ATOM     16  CG  GLU D 570     -20.109  -7.649 -14.162  1.00 32.92     0.100 C 
BRANCH  16  17
ATOM     17  CD  GLU D 570     -20.658  -7.666 -15.570  1.00 32.92     0.185 C 
ATOM     18  OE1 GLU D 570     -21.152  -8.721 -16.014  1.00 32.92    -0.647 OA
ATOM     19  OE2 GLU D 570     -20.577  -6.619 -16.242  1.00 32.92    -0.647 OA
ENDBRANCH  16  17
ENDBRANCH  15  16
ENDBRANCH  14  15
END_RES GLU D 570
ENDMDL
MODEL 2
REMARK VINA RESULT:      -6.2      3.078      5.676
REMARK  21 active torsions:
REMARK  status: ('A' for Active; 'I' for Inactive)
REMARK    1  A    between atoms: C_2  and  C_3 
REMARK    2  A    between atoms: C_3  and  C_4 
REMARK    3  A    between atoms: C_4  and  C_5 
REMARK    4  A    between atoms: C_5  and  C_6 
REMARK    5  A    between atoms: C_6  and  C_7 
REMARK    6  A    between atoms: C_7  and  C_8 
REMARK    7  A    between atoms: C_8  and  C_9 
REMARK    8  A    between atoms: C_9  and  C_10 
REMARK    9  A    between atoms: C_10  and  C_11 
REMARK   10  A    between atoms: C_11  and  C_12 
REMARK   11  A    between atoms: C_12  and  C_13 
REMARK   12  A    between atoms: C_13  and  O_14 
REMARK   13  A    between atoms: O_14  and  C_15 
REMARK   14  A    between atoms: C_15  and  C_16 
REMARK   15  A    between atoms: C_16  and  O_17 
REMARK   16  A    between atoms: O_17  and  C_18 
REMARK   17  A    between atoms: C_18  and  C_19 
REMARK   18  A    between atoms: C_19  and  O_20 
REMARK   19  A    between atoms: O_20  and  C_21 
REMARK   20  A    between atoms: C_21  and  C_22 
REMARK   21  A    between atoms: C_22  and  O_23 
ROOT
HETATM    1  C   UNL     1     -21.814  -7.475  -3.861  1.00  0.00     0.026 C 
ENDROOT
BRANCH   1   2
HETATM    2  C   UNL     1     -21.442  -6.334  -2.930  1.00  0.00     0.002 C 
BRANCH   2   3
HETATM    3  C   UNL     1     -22.292  -6.355  -1.668  1.00  0.00     0.000 C 
BRANCH   3   4
HETATM    4  C   UNL     1     -21.772  -7.412  -0.705  1.00  0.00     0.000 C 
BRANCH   4   5
HETATM    5  C   UNL     1     -22.927  -8.158  -0.052  1.00  0.00     0.000 C 
BRANCH   5   6
HETATM    6  C   UNL     1     -22.687  -9.661  -0.103  1.00  0.00     0.000 C 
BRANCH   6   7
HETATM    7  C   UNL     1     -22.145 -10.066  -1.468  1.00  0.00     0.000 C 
BRANCH   7   8
HETATM    8  C   UNL     1     -22.666 -11.440  -1.867  1.00  0.00     0.000 C 
BRANCH   8   9
HETATM    9  C   UNL     1     -23.989 -11.737  -1.175  1.00  0.00     0.000 C 
BRANCH   9  10
HETATM   10  C   UNL     1     -24.061 -13.202  -0.754  1.00  0.00    -0.000 C 
BRANCH  10  11
HETATM   11  C   UNL     1     -22.892 -13.571   0.154  1.00  0.00    -0.005 C 
HETATM   12  C   UNL     1     -23.289 -13.481   1.616  1.00  0.00     0.005 C 
ENDBRANCH  10  11
ENDBRANCH   9  10
ENDBRANCH   8   9
ENDBRANCH   7   8
ENDBRANCH   6   7
ENDBRANCH   5   6
ENDBRANCH   4   5
ENDBRANCH   3   4
ENDBRANCH   2   3
ENDBRANCH   1   2
BRANCH   1  13
HETATM   13  C   UNL     1     -21.201  -7.252  -5.232  1.00  0.00     0.167 C 
BRANCH  13  14
HETATM   14  O   UNL     1     -20.424  -6.062  -5.182  1.00  0.00    -0.389 OA
BRANCH  14  15
HETATM   15  C   UNL     1     -20.717  -5.225  -6.295  1.00  0.00     0.193 C 
BRANCH  15  16
HETATM   16  C   UNL     1     -22.223  -5.136  -6.463  1.00  0.00     0.193 C 
BRANCH  16  17
HETATM   17  O   UNL     1     -22.511  -4.099  -7.394  1.00  0.00    -0.387 OA
BRANCH  17  18
HETATM   18  C   UNL     1     -21.479  -3.976  -8.366  1.00  0.00     0.193 C 
BRANCH  18  19
HETATM   19  C   UNL     1     -22.112  -3.701  -9.721  1.00  0.00     0.193 C 
BRANCH  19  20
HETATM   20  O   UNL     1     -22.657  -4.913 -10.252  1.00  0.00    -0.387 OA
BRANCH  20  21
HETATM   21  C   UNL     1     -24.087  -4.847 -10.309  1.00  0.00     0.193 C 
BRANCH  21  22
HETATM   22  C   UNL     1     -24.511  -3.382 -10.311  1.00  0.00     0.190 C 
BRANCH  22  23
HETATM   23  O   UNL     1     -25.797  -3.231  -9.715  1.00  0.00    -0.399 OA
HETATM   24  H   UNL     1     -25.635  -2.838  -8.837  1.00  0.00     0.209 HD
ENDBRANCH  22  23
ENDBRANCH  21  22
ENDBRANCH  20  21
ENDBRANCH  19  20
ENDBRANCH  18  19
ENDBRANCH  17  18
ENDBRANCH  16  17
ENDBRANCH  15  16
ENDBRANCH  14  15
ENDBRANCH  13  14
ENDBRANCH   1  13
TORSDOF 21
BEGIN_RES ARG D 557
REMARK  4 active torsions:
REMARK  status: ('A' for Active; 'I' for Inactive)
REMARK    1  A    between atoms: CA   and  CB  
REMARK    2  A    between atoms: CB   and  CG  
REMARK    3  A    between atoms: CG   and  CD  
REMARK    4  A    between atoms: CD   and  NE  
REMARK       I    between atoms: NE   and  CZ  
REMARK       I    between atoms: CZ   and  NH1 
REMARK       I    between atoms: CZ   and  NH2 
ROOT
ATOM      1  CA  ARG D 557     -26.217   2.705 -17.014  1.00 35.49     0.159 C 
ENDROOT
BRANCH   1   2
ATOM      2  CB  ARG D 557     -26.789   1.319 -17.183  1.00 35.49     0.034 C 
BRANCH   2   3
ATOM      3  CG  ARG D 557     -25.836   0.203 -17.150  1.00 35.49     0.027 C 
BRANCH   3   4
ATOM      4  CD  ARG D 557     -24.739   0.426 -16.182  1.00 35.49     0.116 C 
BRANCH   4   5
ATOM      5  NE  ARG D 557     -24.859  -0.417 -15.022  1.00 35.49    -0.212 N 
ATOM      6  CZ  ARG D 557     -24.030  -1.378 -14.680  1.00 35.49     0.666 C 
ATOM      7  NH1 ARG D 557     -22.969  -1.688 -15.402  1.00 35.49    -0.235 N 
ATOM      8  NH2 ARG D 557     -24.283  -2.028 -13.582  1.00 35.49    -0.235 N 
ATOM      9  HH  ARG D 557     -22.781  -1.272 -16.127  1.00 35.49     0.174 HD
ATOM     10  HH  ARG D 557     -22.461  -2.322 -15.129  1.00 35.49     0.174 HD
ATOM     11  HH  ARG D 557     -24.971  -1.801 -13.132  1.00 35.49     0.174 HD
ATOM     12  HH  ARG D 557     -23.768  -2.651 -13.327  1.00 35.49     0.174 HD
ATOM     13  HE  ARG D 557     -25.554  -0.335 -14.538  1.00 35.49     0.178 HD
ENDBRANCH   4   5
ENDBRANCH   3   4
ENDBRANCH   2   3
ENDBRANCH   1   2
END_RES ARG D 557
BEGIN_RES GLU D 570
REMARK  3 active torsions:
REMARK  status: ('A' for Active; 'I' for Inactive)
REMARK    5  A    between atoms: CA   and  CB  
REMARK    6  A    between atoms: CB   and  CG  
REMARK    7  A    between atoms: CG   and  CD  
ROOT
ATOM     14  CA  GLU D 570     -18.033  -6.348 -13.375  1.00 32.92     0.160 C 
ENDROOT
BRANCH  14  15
ATOM     15  CB  GLU D 570     -19.500  -6.345 -13.794  1.00 32.92     0.043 C 
BRANCH  15  16
ATOM     16  CG  GLU D 570     -20.448  -5.559 -12.962  1.00 32.92     0.100 C 
BRANCH  16  17
ATOM     17  CD  GLU D 570     -21.744  -5.254 -13.676  1.00 32.92     0.185 C 
ATOM     18  OE1 GLU D 570     -22.252  -6.124 -14.408  1.00 32.92    -0.647 OA
ATOM     19  OE2 GLU D 570     -22.249  -4.125 -13.513  1.00 32.92    -0.647 OA
ENDBRANCH  16  17
ENDBRANCH  15  16
ENDBRANCH  14  15
END_RES GLU D 570
ENDMDL
MODEL 3
REMARK VINA RESULT:      -6.2      2.135      2.990
REMARK  21 active torsions:
REMARK  status: ('A' for Active; 'I' for Inactive)
REMARK    1  A    between atoms: C_2  and  C_3 
REMARK    2  A    between atoms: C_3  and  C_4 
REMARK    3  A    between atoms: C_4  and  C_5 
REMARK    4  A    between atoms: C_5  and  C_6 
REMARK    5  A    between atoms: C_6  and  C_7 
REMARK    6  A    between atoms: C_7  and  C_8 
REMARK    7  A    between atoms: C_8  and  C_9 
REMARK    8  A    between atoms: C_9  and  C_10 
REMARK    9  A    between atoms: C_10  and  C_11 
REMARK   10  A    between atoms: C_11  and  C_12 
REMARK   11  A    between atoms: C_12  and  C_13 
REMARK   12  A    between atoms: C_13  and  O_14 
REMARK   13  A    between atoms: O_14  and  C_15 
REMARK   14  A    between atoms: C_15  and  C_16 
REMARK   15  A    between atoms: C_16  and  O_17 
REMARK   16  A    between atoms: O_17  and  C_18 
REMARK   17  A    between atoms: C_18  and  C_19 
REMARK   18  A    between atoms: C_19  and  O_20 
REMARK   19  A    between atoms: O_20  and  C_21 
REMARK   20  A    between atoms: C_21  and  C_22 
REMARK   21  A    between atoms: C_22  and  O_23 
ROOT
HETATM    1  C   UNL     1     -22.956  -4.435 -11.063  1.00  0.00     0.026 C 
ENDROOT
BRANCH   1   2
HETATM    2  C   UNL     1     -21.657  -4.093 -11.774  1.00  0.00     0.002 C 
BRANCH   2   3
HETATM    3  C   UNL     1     -20.560  -3.749 -10.777  1.00  0.00     0.000 C 
BRANCH   3   4
HETATM    4  C   UNL     1     -20.943  -4.240  -9.388  1.00  0.00     0.000 C 
BRANCH   4   5
HETATM    5  C   UNL     1     -19.702  -4.613  -8.590  1.00  0.00     0.000 C 
BRANCH   5   6
HETATM    6  C   UNL     1     -20.063  -5.570  -7.461  1.00  0.00     0.000 C 
BRANCH   6   7
HETATM    7  C   UNL     1     -20.977  -4.883  -6.454  1.00  0.00     0.000 C 
BRANCH   7   8
HETATM    8  C   UNL     1     -20.750  -5.440  -5.055  1.00  0.00     0.000 C 
BRANCH   8   9
HETATM    9  C   UNL     1     -21.891  -6.362  -4.650  1.00  0.00     0.000 C 
BRANCH   9  10
HETATM   10  C   UNL     1     -21.371  -7.531  -3.818  1.00  0.00    -0.000 C 
BRANCH  10  11
HETATM   11  C   UNL     1     -21.094  -7.102  -2.381  1.00  0.00    -0.005 C 
HETATM   12  C   UNL     1     -22.272  -6.338  -1.804  1.00  0.00     0.005 C 
ENDBRANCH  10  11
ENDBRANCH   9  10
ENDBRANCH   8   9
ENDBRANCH   7   8
ENDBRANCH   6   7
ENDBRANCH   5   6
ENDBRANCH   4   5
ENDBRANCH   3   4
ENDBRANCH   2   3
ENDBRANCH   1   2
BRANCH   1  13
HETATM   13  C   UNL     1     -24.032  -3.429 -11.428  1.00  0.00     0.167 C 
BRANCH  13  14
HETATM   14  O   UNL     1     -23.637  -2.771 -12.625  1.00  0.00    -0.389 OA
BRANCH  14  15
HETATM   15  C   UNL     1     -24.722  -2.706 -13.543  1.00  0.00     0.193 C 
BRANCH  15  16
HETATM   16  C   UNL     1     -24.771  -3.995 -14.343  1.00  0.00     0.193 C 
BRANCH  16  17
HETATM   17  O   UNL     1     -25.849  -3.909 -15.269  1.00  0.00    -0.387 OA
BRANCH  17  18
HETATM   18  C   UNL     1     -26.275  -5.201 -15.686  1.00  0.00     0.193 C 
BRANCH  18  19
HETATM   19  C   UNL     1     -27.778  -5.172 -15.915  1.00  0.00     0.193 C 
BRANCH  19  20
HETATM   20  O   UNL     1     -28.049  -4.882 -17.290  1.00  0.00    -0.387 OA
BRANCH  20  21
HETATM   21  C   UNL     1     -28.476  -6.060 -17.985  1.00  0.00     0.193 C 
BRANCH  21  22
HETATM   22  C   UNL     1     -29.326  -6.906 -17.042  1.00  0.00     0.190 C 
BRANCH  22  23
HETATM   23  O   UNL     1     -29.366  -8.261 -17.482  1.00  0.00    -0.399 OA
HETATM   24  H   UNL     1     -30.119  -8.667 -17.014  1.00  0.00     0.209 HD
ENDBRANCH  22  23
ENDBRANCH  21  22
ENDBRANCH  20  21
ENDBRANCH  19  20
ENDBRANCH  18  19
ENDBRANCH  17  18
ENDBRANCH  16  17
ENDBRANCH  15  16
ENDBRANCH  14  15
ENDBRANCH  13  14
ENDBRANCH   1  13
TORSDOF 21
BEGIN_RES ARG D 557
REMARK  4 active torsions:
REMARK  status: ('A' for Active; 'I' for Inactive)
REMARK    1  A    between atoms: CA   and  CB  
REMARK    2  A    between atoms: CB   and  CG  
REMARK    3  A    between atoms: CG   and  CD  
REMARK    4  A    between atoms: CD   and  NE  
REMARK       I    between atoms: NE   and  CZ  
REMARK       I    between atoms: CZ   and  NH1 
REMARK       I    between atoms: CZ   and  NH2 
ROOT
ATOM      1  CA  ARG D 557     -26.217   2.705 -17.014  1.00 35.49     0.159 C 
ENDROOT
BRANCH   1   2
ATOM      2  CB  ARG D 557     -26.789   1.319 -17.183  1.00 35.49     0.034 C 
BRANCH   2   3
ATOM      3  CG  ARG D 557     -25.979   0.204 -16.678  1.00 35.49     0.027 C 
BRANCH   3   4
ATOM      4  CD  ARG D 557     -26.753  -0.705 -15.802  1.00 35.49     0.116 C 
BRANCH   4   5
ATOM      5  NE  ARG D 557     -27.572  -1.617 -16.555  1.00 35.49    -0.212 N 
ATOM      6  CZ  ARG D 557     -28.822  -1.416 -16.908  1.00 35.49     0.666 C 
ATOM      7  NH1 ARG D 557     -29.482  -0.320 -16.583  1.00 35.49    -0.235 N 
ATOM      8  NH2 ARG D 557     -29.405  -2.344 -17.609  1.00 35.49    -0.235 N 
ATOM      9  HH  ARG D 557     -29.118   0.305 -16.124  1.00 35.49     0.174 HD
ATOM     10  HH  ARG D 557     -30.295  -0.243 -16.843  1.00 35.49     0.174 HD
ATOM     11  HH  ARG D 557     -28.951  -3.038 -17.811  1.00 35.49     0.174 HD
ATOM     12  HH  ARG D 557     -30.209  -2.248 -17.859  1.00 35.49     0.174 HD
ATOM     13  HE  ARG D 557     -27.249  -2.381 -16.744  1.00 35.49     0.178 HD
ENDBRANCH   4   5
ENDBRANCH   3   4
ENDBRANCH   2   3
ENDBRANCH   1   2
END_RES ARG D 557
BEGIN_RES GLU D 570
REMARK  3 active torsions:
REMARK  status: ('A' for Active; 'I' for Inactive)
REMARK    5  A    between atoms: CA   and  CB  
REMARK    6  A    between atoms: CB   and  CG  
REMARK    7  A    between atoms: CG   and  CD  
ROOT
ATOM     14  CA  GLU D 570     -18.033  -6.348 -13.375  1.00 32.92     0.160 C 
ENDROOT
BRANCH  14  15
ATOM     15  CB  GLU D 570     -19.500  -6.345 -13.794  1.00 32.92     0.043 C 
BRANCH  15  16
ATOM     16  CG  GLU D 570     -19.810  -6.701 -15.203  1.00 32.92     0.100 C 
BRANCH  16  17
ATOM     17  CD  GLU D 570     -20.731  -5.707 -15.872  1.00 32.92     0.185 C 
ATOM     18  OE1 GLU D 570     -20.735  -5.628 -17.116  1.00 32.92    -0.647 OA
ATOM     19  OE2 GLU D 570     -21.443  -4.987 -15.145  1.00 32.92    -0.647 OA
ENDBRANCH  16  17
ENDBRANCH  15  16
ENDBRANCH  14  15
END_RES GLU D 570
ENDMDL
MODEL 4
REMARK VINA RESULT:      -6.1      1.898      4.167
REMARK  21 active torsions:
REMARK  status: ('A' for Active; 'I' for Inactive)
REMARK    1  A    between atoms: C_2  and  C_3 
REMARK    2  A    between atoms: C_3  and  C_4 
REMARK    3  A    between atoms: C_4  and  C_5 
REMARK    4  A    between atoms: C_5  and  C_6 
REMARK    5  A    between atoms: C_6  and  C_7 
REMARK    6  A    between atoms: C_7  and  C_8 
REMARK    7  A    between atoms: C_8  and  C_9 
REMARK    8  A    between atoms: C_9  and  C_10 
REMARK    9  A    between atoms: C_10  and  C_11 
REMARK   10  A    between atoms: C_11  and  C_12 
REMARK   11  A    between atoms: C_12  and  C_13 
REMARK   12  A    between atoms: C_13  and  O_14 
REMARK   13  A    between atoms: O_14  and  C_15 
REMARK   14  A    between atoms: C_15  and  C_16 
REMARK   15  A    between atoms: C_16  and  O_17 
REMARK   16  A    between atoms: O_17  and  C_18 
REMARK   17  A    between atoms: C_18  and  C_19 
REMARK   18  A    between atoms: C_19  and  O_20 
REMARK   19  A    between atoms: O_20  and  C_21 
REMARK   20  A    between atoms: C_21  and  C_22 
REMARK   21  A    between atoms: C_22  and  O_23 
ROOT
HETATM    1  C   UNL     1     -20.834  -6.888  -5.882  1.00  0.00     0.026 C 
ENDROOT
BRANCH   1   2
HETATM    2  C   UNL     1     -21.710  -6.489  -4.706  1.00  0.00     0.002 C 
BRANCH   2   3
HETATM    3  C   UNL     1     -21.908  -7.654  -3.748  1.00  0.00     0.000 C 
BRANCH   3   4
HETATM    4  C   UNL     1     -20.607  -7.958  -3.019  1.00  0.00     0.000 C 
BRANCH   4   5
HETATM    5  C   UNL     1     -20.720  -7.595  -1.545  1.00  0.00     0.000 C 
BRANCH   5   6
HETATM    6  C   UNL     1     -22.173  -7.326  -1.174  1.00  0.00     0.000 C 
BRANCH   6   7
HETATM    7  C   UNL     1     -22.516  -7.998   0.149  1.00  0.00     0.000 C 
BRANCH   7   8
HETATM    8  C   UNL     1     -21.509  -9.093   0.474  1.00  0.00     0.000 C 
BRANCH   8   9
HETATM    9  C   UNL     1     -22.116 -10.470   0.241  1.00  0.00     0.000 C 
BRANCH   9  10
HETATM   10  C   UNL     1     -23.575 -10.350  -0.189  1.00  0.00    -0.000 C 
BRANCH  10  11
HETATM   11  C   UNL     1     -23.901 -11.336  -1.307  1.00  0.00    -0.005 C 
HETATM   12  C   UNL     1     -22.962 -11.150  -2.486  1.00  0.00     0.005 C 
ENDBRANCH  10  11
ENDBRANCH   9  10
ENDBRANCH   8   9
ENDBRANCH   7   8
ENDBRANCH   6   7
ENDBRANCH   5   6
ENDBRANCH   4   5
ENDBRANCH   3   4
ENDBRANCH   2   3
ENDBRANCH   1   2
BRANCH   1  13
HETATM   13  C   UNL     1     -20.035  -5.692  -6.368  1.00  0.00     0.167 C 
BRANCH  13  14
HETATM   14  O   UNL     1     -20.865  -4.541  -6.282  1.00  0.00    -0.389 OA
BRANCH  14  15
HETATM   15  C   UNL     1     -21.261  -4.109  -7.579  1.00  0.00     0.193 C 
BRANCH  15  16
HETATM   16  C   UNL     1     -22.771  -4.207  -7.693  1.00  0.00     0.193 C 
BRANCH  16  17
HETATM   17  O   UNL     1     -23.163  -3.672  -8.952  1.00  0.00    -0.387 OA
BRANCH  17  18
HETATM   18  C   UNL     1     -22.434  -4.270 -10.017  1.00  0.00     0.193 C 
BRANCH  18  19
HETATM   19  C   UNL     1     -22.250  -3.244 -11.123  1.00  0.00     0.193 C 
BRANCH  19  20
HETATM   20  O   UNL     1     -23.526  -2.890 -11.667  1.00  0.00    -0.387 OA
BRANCH  20  21
HETATM   21  C   UNL     1     -23.413  -2.557 -13.056  1.00  0.00     0.193 C 
BRANCH  21  22
HETATM   22  C   UNL     1     -24.799  -2.621 -13.691  1.00  0.00     0.190 C 
BRANCH  22  23
HETATM   23  O   UNL     1     -24.726  -2.324 -15.083  1.00  0.00    -0.399 OA
HETATM   24  H   UNL     1     -24.781  -3.185 -15.539  1.00  0.00     0.209 HD
ENDBRANCH  22  23
ENDBRANCH  21  22
ENDBRANCH  20  21
ENDBRANCH  19  20
ENDBRANCH  18  19
ENDBRANCH  17  18
ENDBRANCH  16  17
ENDBRANCH  15  16
ENDBRANCH  14  15
ENDBRANCH  13  14
ENDBRANCH   1  13
TORSDOF 21
BEGIN_RES ARG D 557
REMARK  4 active torsions:
REMARK  status: ('A' for Active; 'I' for Inactive)
REMARK    1  A    between atoms: CA   and  CB  
REMARK    2  A    between atoms: CB   and  CG  
REMARK    3  A    between atoms: CG   and  CD  
REMARK    4  A    between atoms: CD   and  NE  
REMARK       I    between atoms: NE   and  CZ  
REMARK       I    between atoms: CZ   and  NH1 
REMARK       I    between atoms: CZ   and  NH2 
ROOT
ATOM      1  CA  ARG D 557     -26.217   2.705 -17.014  1.00 35.49     0.159 C 
ENDROOT
BRANCH   1   2
ATOM      2  CB  ARG D 557     -26.789   1.319 -17.183  1.00 35.49     0.034 C 
BRANCH   2   3
ATOM      3  CG  ARG D 557     -28.230   1.227 -17.447  1.00 35.49     0.027 C 
BRANCH   3   4
ATOM      4  CD  ARG D 557     -28.917   0.303 -16.515  1.00 35.49     0.116 C 
BRANCH   4   5
ATOM      5  NE  ARG D 557     -29.282  -0.936 -17.150  1.00 35.49    -0.212 N 
ATOM      6  CZ  ARG D 557     -28.653  -2.082 -17.017  1.00 35.49     0.666 C 
ATOM      7  NH1 ARG D 557     -27.572  -2.215 -16.271  1.00 35.49    -0.235 N 
ATOM      8  NH2 ARG D 557     -29.138  -3.110 -17.651  1.00 35.49    -0.235 N 
ATOM      9  HH  ARG D 557     -27.237  -1.553 -15.843  1.00 35.49     0.174 HD
ATOM     10  HH  ARG D 557     -27.206  -2.988 -16.219  1.00 35.49     0.174 HD
ATOM     11  HH  ARG D 557     -29.841  -2.996 -18.120  1.00 35.49     0.174 HD
ATOM     12  HH  ARG D 557     -28.761  -3.867 -17.587  1.00 35.49     0.174 HD
ATOM     13  HE  ARG D 557     -29.925  -0.924 -17.707  1.00 35.49     0.178 HD
ENDBRANCH   4   5
ENDBRANCH   3   4
ENDBRANCH   2   3
ENDBRANCH   1   2
END_RES ARG D 557
BEGIN_RES GLU D 570
REMARK  3 active torsions:
REMARK  status: ('A' for Active; 'I' for Inactive)
REMARK    5  A    between atoms: CA   and  CB  
REMARK    6  A    between atoms: CB   and  CG  
REMARK    7  A    between atoms: CG   and  CD  
ROOT
ATOM     14  CA  GLU D 570     -18.033  -6.348 -13.375  1.00 32.92     0.160 C 
ENDROOT
BRANCH  14  15
ATOM     15  CB  GLU D 570     -19.500  -6.345 -13.794  1.00 32.92     0.043 C 
BRANCH  15  16
ATOM     16  CG  GLU D 570     -19.797  -6.243 -15.246  1.00 32.92     0.100 C 
BRANCH  16  17
ATOM     17  CD  GLU D 570     -20.760  -7.304 -15.727  1.00 32.92     0.185 C 
ATOM     18  OE1 GLU D 570     -21.652  -6.989 -16.537  1.00 32.92    -0.647 OA
ATOM     19  OE2 GLU D 570     -20.630  -8.459 -15.274  1.00 32.92    -0.647 OA
ENDBRANCH  16  17
ENDBRANCH  15  16
ENDBRANCH  14  15
END_RES GLU D 570
ENDMDL
MODEL 5
REMARK VINA RESULT:      -6.0      2.414      4.709
REMARK  21 active torsions:
REMARK  status: ('A' for Active; 'I' for Inactive)
REMARK    1  A    between atoms: C_2  and  C_3 
REMARK    2  A    between atoms: C_3  and  C_4 
REMARK    3  A    between atoms: C_4  and  C_5 
REMARK    4  A    between atoms: C_5  and  C_6 
REMARK    5  A    between atoms: C_6  and  C_7 
REMARK    6  A    between atoms: C_7  and  C_8 
REMARK    7  A    between atoms: C_8  and  C_9 
REMARK    8  A    between atoms: C_9  and  C_10 
REMARK    9  A    between atoms: C_10  and  C_11 
REMARK   10  A    between atoms: C_11  and  C_12 
REMARK   11  A    between atoms: C_12  and  C_13 
REMARK   12  A    between atoms: C_13  and  O_14 
REMARK   13  A    between atoms: O_14  and  C_15 
REMARK   14  A    between atoms: C_15  and  C_16 
REMARK   15  A    between atoms: C_16  and  O_17 
REMARK   16  A    between atoms: O_17  and  C_18 
REMARK   17  A    between atoms: C_18  and  C_19 
REMARK   18  A    between atoms: C_19  and  O_20 
REMARK   19  A    between atoms: O_20  and  C_21 
REMARK   20  A    between atoms: C_21  and  C_22 
REMARK   21  A    between atoms: C_22  and  O_23 
ROOT
HETATM    1  C   UNL     1     -23.399  -5.430 -13.298  1.00  0.00     0.026 C 
ENDROOT
BRANCH   1   2
HETATM    2  C   UNL     1     -22.291  -4.402 -13.145  1.00  0.00     0.002 C 
BRANCH   2   3
HETATM    3  C   UNL     1     -22.577  -3.454 -11.990  1.00  0.00     0.000 C 
BRANCH   3   4
HETATM    4  C   UNL     1     -21.276  -2.859 -11.469  1.00  0.00     0.000 C 
BRANCH   4   5
HETATM    5  C   UNL     1     -20.380  -3.947 -10.895  1.00  0.00     0.000 C 
BRANCH   5   6
HETATM    6  C   UNL     1     -20.922  -4.431  -9.556  1.00  0.00     0.000 C 
BRANCH   6   7
HETATM    7  C   UNL     1     -20.031  -3.951  -8.417  1.00  0.00     0.000 C 
BRANCH   7   8
HETATM    8  C   UNL     1     -20.707  -4.182  -7.072  1.00  0.00     0.000 C 
BRANCH   8   9
HETATM    9  C   UNL     1     -19.962  -5.238  -6.269  1.00  0.00     0.000 C 
BRANCH   9  10
HETATM   10  C   UNL     1     -20.538  -5.352  -4.860  1.00  0.00    -0.000 C 
BRANCH  10  11
HETATM   11  C   UNL     1     -21.716  -6.320  -4.825  1.00  0.00    -0.005 C 
HETATM   12  C   UNL     1     -21.393  -7.597  -5.581  1.00  0.00     0.005 C 
ENDBRANCH  10  11
ENDBRANCH   9  10
ENDBRANCH   8   9
ENDBRANCH   7   8
ENDBRANCH   6   7
ENDBRANCH   5   6
ENDBRANCH   4   5
ENDBRANCH   3   4
ENDBRANCH   2   3
ENDBRANCH   1   2
BRANCH   1  13
HETATM   13  C   UNL     1     -23.673  -5.689 -14.768  1.00  0.00     0.167 C 
BRANCH  13  14
HETATM   14  O   UNL     1     -24.912  -6.378 -14.874  1.00  0.00    -0.389 OA
BRANCH  14  15
HETATM   15  C   UNL     1     -24.841  -7.391 -15.872  1.00  0.00     0.193 C 
BRANCH  15  16
HETATM   16  C   UNL     1     -25.002  -6.750 -17.238  1.00  0.00     0.193 C 
BRANCH  16  17
HETATM   17  O   UNL     1     -26.205  -5.990 -17.240  1.00  0.00    -0.387 OA
BRANCH  17  18
HETATM   18  C   UNL     1     -26.960  -6.222 -18.423  1.00  0.00     0.193 C 
BRANCH  18  19
HETATM   19  C   UNL     1     -28.393  -5.772 -18.187  1.00  0.00     0.193 C 
BRANCH  19  20
HETATM   20  O   UNL     1     -29.240  -6.917 -18.046  1.00  0.00    -0.387 OA
BRANCH  20  21
HETATM   21  C   UNL     1     -30.507  -6.549 -17.487  1.00  0.00     0.193 C 
BRANCH  21  22
HETATM   22  C   UNL     1     -30.334  -5.263 -16.685  1.00  0.00     0.190 C 
BRANCH  22  23
HETATM   23  O   UNL     1     -30.246  -5.550 -15.291  1.00  0.00    -0.399 OA
HETATM   24  H   UNL     1     -29.878  -6.452 -15.232  1.00  0.00     0.209 HD
ENDBRANCH  22  23
ENDBRANCH  21  22
ENDBRANCH  20  21
ENDBRANCH  19  20
ENDBRANCH  18  19
ENDBRANCH  17  18
ENDBRANCH  16  17
ENDBRANCH  15  16
ENDBRANCH  14  15
ENDBRANCH  13  14
ENDBRANCH   1  13
TORSDOF 21
BEGIN_RES ARG D 557
REMARK  4 active torsions:
REMARK  status: ('A' for Active; 'I' for Inactive)
REMARK    1  A    between atoms: CA   and  CB  
REMARK    2  A    between atoms: CB   and  CG  
REMARK    3  A    between atoms: CG   and  CD  
REMARK    4  A    between atoms: CD   and  NE  
REMARK       I    between atoms: NE   and  CZ  
REMARK       I    between atoms: CZ   and  NH1 
REMARK       I    between atoms: CZ   and  NH2 
ROOT
ATOM      1  CA  ARG D 557     -26.217   2.705 -17.014  1.00 35.49     0.159 C 
ENDROOT
BRANCH   1   2
ATOM      2  CB  ARG D 557     -26.789   1.319 -17.183  1.00 35.49     0.034 C 
BRANCH   2   3
ATOM      3  CG  ARG D 557     -25.966   0.202 -16.705  1.00 35.49     0.027 C 
BRANCH   3   4
ATOM      4  CD  ARG D 557     -26.782  -0.939 -16.231  1.00 35.49     0.116 C 
BRANCH   4   5
ATOM      5  NE  ARG D 557     -26.292  -1.478 -14.990  1.00 35.49    -0.212 N 
ATOM      6  CZ  ARG D 557     -26.265  -2.750 -14.662  1.00 35.49     0.666 C 
ATOM      7  NH1 ARG D 557     -26.715  -3.698 -15.463  1.00 35.49    -0.235 N 
ATOM      8  NH2 ARG D 557     -25.766  -3.061 -13.501  1.00 35.49    -0.235 N 
ATOM      9  HH  ARG D 557     -27.046  -3.517 -16.232  1.00 35.49     0.174 HD
ATOM     10  HH  ARG D 557     -26.669  -4.511 -15.197  1.00 35.49     0.174 HD
ATOM     11  HH  ARG D 557     -25.476  -2.428 -13.008  1.00 35.49     0.174 HD
ATOM     12  HH  ARG D 557     -25.728  -3.872 -13.256  1.00 35.49     0.174 HD
ATOM     13  HE  ARG D 557     -26.050  -0.931 -14.385  1.00 35.49     0.178 HD
ENDBRANCH   4   5
ENDBRANCH   3   4
ENDBRANCH   2   3
ENDBRANCH   1   2
END_RES ARG D 557
BEGIN_RES GLU D 570
REMARK  3 active torsions:
REMARK  status: ('A' for Active; 'I' for Inactive)
REMARK    5  A    between atoms: CA   and  CB  
REMARK    6  A    between atoms: CB   and  CG  
REMARK    7  A    between atoms: CG   and  CD  
ROOT
ATOM     14  CA  GLU D 570     -18.033  -6.348 -13.375  1.00 32.92     0.160 C 
ENDROOT
BRANCH  14  15
ATOM     15  CB  GLU D 570     -19.500  -6.345 -13.794  1.00 32.92     0.043 C 
BRANCH  15  16
ATOM     16  CG  GLU D 570     -19.798  -6.188 -15.241  1.00 32.92     0.100 C 
BRANCH  16  17
ATOM     17  CD  GLU D 570     -20.604  -7.335 -15.805  1.00 32.92     0.185 C 
ATOM     18  OE1 GLU D 570     -21.252  -7.161 -16.855  1.00 32.92    -0.647 OA
ATOM     19  OE2 GLU D 570     -20.601  -8.414 -15.180  1.00 32.92    -0.647 OA
ENDBRANCH  16  17
ENDBRANCH  15  16
ENDBRANCH  14  15
END_RES GLU D 570
ENDMDL
MODEL 6
REMARK VINA RESULT:      -6.0      2.994      5.949
REMARK  21 active torsions:
REMARK  status: ('A' for Active; 'I' for Inactive)
REMARK    1  A    between atoms: C_2  and  C_3 
REMARK    2  A    between atoms: C_3  and  C_4 
REMARK    3  A    between atoms: C_4  and  C_5 
REMARK    4  A    between atoms: C_5  and  C_6 
REMARK    5  A    between atoms: C_6  and  C_7 
REMARK    6  A    between atoms: C_7  and  C_8 
REMARK    7  A    between atoms: C_8  and  C_9 
REMARK    8  A    between atoms: C_9  and  C_10 
REMARK    9  A    between atoms: C_10  and  C_11 
REMARK   10  A    between atoms: C_11  and  C_12 
REMARK   11  A    between atoms: C_12  and  C_13 
REMARK   12  A    between atoms: C_13  and  O_14 
REMARK   13  A    between atoms: O_14  and  C_15 
REMARK   14  A    between atoms: C_15  and  C_16 
REMARK   15  A    between atoms: C_16  and  O_17 
REMARK   16  A    between atoms: O_17  and  C_18 
REMARK   17  A    between atoms: C_18  and  C_19 
REMARK   18  A    between atoms: C_19  and  O_20 
REMARK   19  A    between atoms: O_20  and  C_21 
REMARK   20  A    between atoms: C_21  and  C_22 
REMARK   21  A    between atoms: C_22  and  O_23 
ROOT
HETATM    1  C   UNL     1     -19.602  -9.298  -4.082  1.00  0.00     0.026 C 
ENDROOT
BRANCH   1   2
HETATM    2  C   UNL     1     -20.807  -8.993  -3.207  1.00  0.00     0.002 C 
BRANCH   2   3
HETATM    3  C   UNL     1     -20.475  -7.936  -2.164  1.00  0.00     0.000 C 
BRANCH   3   4
HETATM    4  C   UNL     1     -21.401  -6.739  -2.321  1.00  0.00     0.000 C 
BRANCH   4   5
HETATM    5  C   UNL     1     -22.379  -6.660  -1.158  1.00  0.00     0.000 C 
BRANCH   5   6
HETATM    6  C   UNL     1     -21.928  -7.567  -0.021  1.00  0.00     0.000 C 
BRANCH   6   7
HETATM    7  C   UNL     1     -23.066  -8.481   0.414  1.00  0.00     0.000 C 
BRANCH   7   8
HETATM    8  C   UNL     1     -22.828  -9.905  -0.070  1.00  0.00     0.000 C 
BRANCH   8   9
HETATM    9  C   UNL     1     -24.117 -10.712  -0.027  1.00  0.00     0.000 C 
BRANCH   9  10
HETATM   10  C   UNL     1     -24.169 -11.710  -1.181  1.00  0.00    -0.000 C 
BRANCH  10  11
HETATM   11  C   UNL     1     -23.051 -11.446  -2.185  1.00  0.00    -0.005 C 
HETATM   12  C   UNL     1     -22.578 -12.740  -2.823  1.00  0.00     0.005 C 
ENDBRANCH  10  11
ENDBRANCH   9  10
ENDBRANCH   8   9
ENDBRANCH   7   8
ENDBRANCH   6   7
ENDBRANCH   5   6
ENDBRANCH   4   5
ENDBRANCH   3   4
ENDBRANCH   2   3
ENDBRANCH   1   2
BRANCH   1  13
HETATM   13  C   UNL     1     -19.570  -8.358  -5.273  1.00  0.00     0.167 C 
BRANCH  13  14
HETATM   14  O   UNL     1     -20.908  -8.142  -5.704  1.00  0.00    -0.389 OA
BRANCH  14  15
HETATM   15  C   UNL     1     -21.106  -6.780  -6.066  1.00  0.00     0.193 C 
BRANCH  15  16
HETATM   16  C   UNL     1     -19.798  -6.213  -6.587  1.00  0.00     0.193 C 
BRANCH  16  17
HETATM   17  O   UNL     1     -19.919  -4.797  -6.660  1.00  0.00    -0.387 OA
BRANCH  17  18
HETATM   18  C   UNL     1     -20.615  -4.398  -7.836  1.00  0.00     0.193 C 
BRANCH  18  19
HETATM   19  C   UNL     1     -21.866  -3.637  -7.431  1.00  0.00     0.193 C 
BRANCH  19  20
HETATM   20  O   UNL     1     -22.998  -4.167  -8.129  1.00  0.00    -0.387 OA
BRANCH  20  21
HETATM   21  C   UNL     1     -23.013  -3.720  -9.491  1.00  0.00     0.193 C 
BRANCH  21  22
HETATM   22  C   UNL     1     -24.451  -3.405  -9.889  1.00  0.00     0.190 C 
BRANCH  22  23
HETATM   23  O   UNL     1     -24.652  -3.651 -11.278  1.00  0.00    -0.399 OA
HETATM   24  H   UNL     1     -24.492  -2.796 -11.722  1.00  0.00     0.209 HD
ENDBRANCH  22  23
ENDBRANCH  21  22
ENDBRANCH  20  21
ENDBRANCH  19  20
ENDBRANCH  18  19
ENDBRANCH  17  18
ENDBRANCH  16  17
ENDBRANCH  15  16
ENDBRANCH  14  15
ENDBRANCH  13  14
ENDBRANCH   1  13
TORSDOF 21
BEGIN_RES ARG D 557
REMARK  4 active torsions:
REMARK  status: ('A' for Active; 'I' for Inactive)
REMARK    1  A    between atoms: CA   and  CB  
REMARK    2  A    between atoms: CB   and  CG  
REMARK    3  A    between atoms: CG   and  CD  
REMARK    4  A    between atoms: CD   and  NE  
REMARK       I    between atoms: NE   and  CZ  
REMARK       I    between atoms: CZ   and  NH1 
REMARK       I    between atoms: CZ   and  NH2 
ROOT
ATOM      1  CA  ARG D 557     -26.217   2.705 -17.014  1.00 35.49     0.159 C 
ENDROOT
BRANCH   1   2
ATOM      2  CB  ARG D 557     -26.789   1.319 -17.183  1.00 35.49     0.034 C 
BRANCH   2   3
ATOM      3  CG  ARG D 557     -25.838   0.201 -17.134  1.00 35.49     0.027 C 
BRANCH   3   4
ATOM      4  CD  ARG D 557     -24.745   0.433 -16.162  1.00 35.49     0.116 C 
BRANCH   4   5
ATOM      5  NE  ARG D 557     -24.839  -0.439 -15.022  1.00 35.49    -0.212 N 
ATOM      6  CZ  ARG D 557     -23.982  -1.384 -14.704  1.00 35.49     0.666 C 
ATOM      7  NH1 ARG D 557     -22.914  -1.647 -15.435  1.00 35.49    -0.235 N 
ATOM      8  NH2 ARG D 557     -24.214  -2.066 -13.621  1.00 35.49    -0.235 N 
ATOM      9  HH  ARG D 557     -22.741  -1.209 -16.151  1.00 35.49     0.174 HD
ATOM     10  HH  ARG D 557     -22.389  -2.273 -15.178  1.00 35.49     0.174 HD
ATOM     11  HH  ARG D 557     -24.907  -1.868 -13.164  1.00 35.49     0.174 HD
ATOM     12  HH  ARG D 557     -23.681  -2.680 -13.381  1.00 35.49     0.174 HD
ATOM     13  HE  ARG D 557     -25.534  -0.388 -14.535  1.00 35.49     0.178 HD
ENDBRANCH   4   5
ENDBRANCH   3   4
ENDBRANCH   2   3
ENDBRANCH   1   2
END_RES ARG D 557
BEGIN_RES GLU D 570
REMARK  3 active torsions:
REMARK  status: ('A' for Active; 'I' for Inactive)
REMARK    5  A    between atoms: CA   and  CB  
REMARK    6  A    between atoms: CB   and  CG  
REMARK    7  A    between atoms: CG   and  CD  
ROOT
ATOM     14  CA  GLU D 570     -18.033  -6.348 -13.375  1.00 32.92     0.160 C 
ENDROOT
BRANCH  14  15
ATOM     15  CB  GLU D 570     -19.500  -6.345 -13.794  1.00 32.92     0.043 C 
BRANCH  15  16
ATOM     16  CG  GLU D 570     -20.448  -5.562 -12.960  1.00 32.92     0.100 C 
BRANCH  16  17
ATOM     17  CD  GLU D 570     -21.654  -5.080 -13.734  1.00 32.92     0.185 C 
ATOM     18  OE1 GLU D 570     -22.688  -4.770 -13.111  1.00 32.92    -0.647 OA
ATOM     19  OE2 GLU D 570     -21.569  -5.029 -14.977  1.00 32.92    -0.647 OA
ENDBRANCH  16  17
ENDBRANCH  15  16
ENDBRANCH  14  15
END_RES GLU D 570
ENDMDL
MODEL 7
REMARK VINA RESULT:      -6.0      1.380      2.252
REMARK  21 active torsions:
REMARK  status: ('A' for Active; 'I' for Inactive)
REMARK    1  A    between atoms: C_2  and  C_3 
REMARK    2  A    between atoms: C_3  and  C_4 
REMARK    3  A    between atoms: C_4  and  C_5 
REMARK    4  A    between atoms: C_5  and  C_6 
REMARK    5  A    between atoms: C_6  and  C_7 
REMARK    6  A    between atoms: C_7  and  C_8 
REMARK    7  A    between atoms: C_8  and  C_9 
REMARK    8  A    between atoms: C_9  and  C_10 
REMARK    9  A    between atoms: C_10  and  C_11 
REMARK   10  A    between atoms: C_11  and  C_12 
REMARK   11  A    between atoms: C_12  and  C_13 
REMARK   12  A    between atoms: C_13  and  O_14 
REMARK   13  A    between atoms: O_14  and  C_15 
REMARK   14  A    between atoms: C_15  and  C_16 
REMARK   15  A    between atoms: C_16  and  O_17 
REMARK   16  A    between atoms: O_17  and  C_18 
REMARK   17  A    between atoms: C_18  and  C_19 
REMARK   18  A    between atoms: C_19  and  O_20 
REMARK   19  A    between atoms: O_20  and  C_21 
REMARK   20  A    between atoms: C_21  and  C_22 
REMARK   21  A    between atoms: C_22  and  O_23 
ROOT
HETATM    1  C   UNL     1     -23.061  -3.529  -8.773  1.00  0.00     0.026 C 
ENDROOT
BRANCH   1   2
HETATM    2  C   UNL     1     -22.435  -4.236  -7.582  1.00  0.00     0.002 C 
BRANCH   2   3
HETATM    3  C   UNL     1     -21.098  -3.610  -7.212  1.00  0.00     0.000 C 
BRANCH   3   4
HETATM    4  C   UNL     1     -20.116  -4.692  -6.786  1.00  0.00     0.000 C 
BRANCH   4   5
HETATM    5  C   UNL     1     -20.405  -5.150  -5.364  1.00  0.00     0.000 C 
BRANCH   5   6
HETATM    6  C   UNL     1     -20.463  -6.670  -5.296  1.00  0.00     0.000 C 
BRANCH   6   7
HETATM    7  C   UNL     1     -21.812  -7.127  -4.755  1.00  0.00     0.000 C 
BRANCH   7   8
HETATM    8  C   UNL     1     -21.630  -7.970  -3.499  1.00  0.00     0.000 C 
BRANCH   8   9
HETATM    9  C   UNL     1     -21.136  -7.114  -2.342  1.00  0.00     0.000 C 
BRANCH   9  10
HETATM   10  C   UNL     1     -20.995  -7.951  -1.074  1.00  0.00    -0.000 C 
BRANCH  10  11
HETATM   11  C   UNL     1     -22.286  -8.703  -0.764  1.00  0.00    -0.005 C 
HETATM   12  C   UNL     1     -23.005  -8.082   0.420  1.00  0.00     0.005 C 
ENDBRANCH  10  11
ENDBRANCH   9  10
ENDBRANCH   8   9
ENDBRANCH   7   8
ENDBRANCH   6   7
ENDBRANCH   5   6
ENDBRANCH   4   5
ENDBRANCH   3   4
ENDBRANCH   2   3
ENDBRANCH   1   2
BRANCH   1  13
HETATM   13  C   UNL     1     -24.203  -4.357  -9.332  1.00  0.00     0.167 C 
BRANCH  13  14
HETATM   14  O   UNL     1     -24.071  -4.397 -10.747  1.00  0.00    -0.389 OA
BRANCH  14  15
HETATM   15  C   UNL     1     -22.983  -3.585 -11.173  1.00  0.00     0.193 C 
BRANCH  15  16
HETATM   16  C   UNL     1     -21.904  -4.475 -11.762  1.00  0.00     0.193 C 
BRANCH  16  17
HETATM   17  O   UNL     1     -21.986  -4.402 -13.181  1.00  0.00    -0.387 OA
BRANCH  17  18
HETATM   18  C   UNL     1     -23.048  -5.208 -13.679  1.00  0.00     0.193 C 
BRANCH  18  19
HETATM   19  C   UNL     1     -23.952  -4.347 -14.546  1.00  0.00     0.193 C 
BRANCH  19  20
HETATM   20  O   UNL     1     -23.221  -3.212 -15.023  1.00  0.00    -0.387 OA
BRANCH  20  21
HETATM   21  C   UNL     1     -23.794  -1.994 -14.532  1.00  0.00     0.193 C 
BRANCH  21  22
HETATM   22  C   UNL     1     -25.267  -2.235 -14.219  1.00  0.00     0.190 C 
BRANCH  22  23
HETATM   23  O   UNL     1     -26.094  -1.403 -15.029  1.00  0.00    -0.399 OA
HETATM   24  H   UNL     1     -26.155  -0.552 -14.555  1.00  0.00     0.209 HD
ENDBRANCH  22  23
ENDBRANCH  21  22
ENDBRANCH  20  21
ENDBRANCH  19  20
ENDBRANCH  18  19
ENDBRANCH  17  18
ENDBRANCH  16  17
ENDBRANCH  15  16
ENDBRANCH  14  15
ENDBRANCH  13  14
ENDBRANCH   1  13
TORSDOF 21
BEGIN_RES ARG D 557
REMARK  4 active torsions:
REMARK  status: ('A' for Active; 'I' for Inactive)
REMARK    1  A    between atoms: CA   and  CB  
REMARK    2  A    between atoms: CB   and  CG  
REMARK    3  A    between atoms: CG   and  CD  
REMARK    4  A    between atoms: CD   and  NE  
REMARK       I    between atoms: NE   and  CZ  
REMARK       I    between atoms: CZ   and  NH1 
REMARK       I    between atoms: CZ   and  NH2 
ROOT
ATOM      1  CA  ARG D 557     -26.217   2.705 -17.014  1.00 35.49     0.159 C 
ENDROOT
BRANCH   1   2
ATOM      2  CB  ARG D 557     -26.789   1.319 -17.183  1.00 35.49     0.034 C 
BRANCH   2   3
ATOM      3  CG  ARG D 557     -28.166   1.112 -16.719  1.00 35.49     0.027 C 
BRANCH   3   4
ATOM      4  CD  ARG D 557     -28.795  -0.080 -17.334  1.00 35.49     0.116 C 
BRANCH   4   5
ATOM      5  NE  ARG D 557     -28.173  -1.304 -16.905  1.00 35.49    -0.212 N 
ATOM      6  CZ  ARG D 557     -28.671  -2.512 -17.052  1.00 35.49     0.666 C 
ATOM      7  NH1 ARG D 557     -29.843  -2.731 -17.617  1.00 35.49    -0.235 N 
ATOM      8  NH2 ARG D 557     -27.958  -3.511 -16.621  1.00 35.49    -0.235 N 
ATOM      9  HH  ARG D 557     -30.328  -2.088 -17.910  1.00 35.49     0.174 HD
ATOM     10  HH  ARG D 557     -30.116  -3.540 -17.688  1.00 35.49     0.174 HD
ATOM     11  HH  ARG D 557     -27.201  -3.340 -16.267  1.00 35.49     0.174 HD
ATOM     12  HH  ARG D 557     -28.244  -4.305 -16.702  1.00 35.49     0.174 HD
ATOM     13  HE  ARG D 557     -27.447  -1.250 -16.465  1.00 35.49     0.178 HD
ENDBRANCH   4   5
ENDBRANCH   3   4
ENDBRANCH   2   3
ENDBRANCH   1   2
END_RES ARG D 557
BEGIN_RES GLU D 570
REMARK  3 active torsions:
REMARK  status: ('A' for Active; 'I' for Inactive)
REMARK    5  A    between atoms: CA   and  CB  
REMARK    6  A    between atoms: CB   and  CG  
REMARK    7  A    between atoms: CG   and  CD  
ROOT
ATOM     14  CA  GLU D 570     -18.033  -6.348 -13.375  1.00 32.92     0.160 C 
ENDROOT
BRANCH  14  15
ATOM     15  CB  GLU D 570     -19.500  -6.345 -13.794  1.00 32.92     0.043 C 
BRANCH  15  16
ATOM     16  CG  GLU D 570     -20.027  -7.569 -14.451  1.00 32.92     0.100 C 
BRANCH  16  17
ATOM     17  CD  GLU D 570     -20.770  -7.276 -15.733  1.00 32.92     0.185 C 
ATOM     18  OE1 GLU D 570     -20.501  -6.236 -16.365  1.00 32.92    -0.647 OA
ATOM     19  OE2 GLU D 570     -21.642  -8.088 -16.102  1.00 32.92    -0.647 OA
ENDBRANCH  16  17
ENDBRANCH  15  16
ENDBRANCH  14  15
END_RES GLU D 570
ENDMDL
MODEL 8
REMARK VINA RESULT:      -5.9      2.525      4.891
REMARK  21 active torsions:
REMARK  status: ('A' for Active; 'I' for Inactive)
REMARK    1  A    between atoms: C_2  and  C_3 
REMARK    2  A    between atoms: C_3  and  C_4 
REMARK    3  A    between atoms: C_4  and  C_5 
REMARK    4  A    between atoms: C_5  and  C_6 
REMARK    5  A    between atoms: C_6  and  C_7 
REMARK    6  A    between atoms: C_7  and  C_8 
REMARK    7  A    between atoms: C_8  and  C_9 
REMARK    8  A    between atoms: C_9  and  C_10 
REMARK    9  A    between atoms: C_10  and  C_11 
REMARK   10  A    between atoms: C_11  and  C_12 
REMARK   11  A    between atoms: C_12  and  C_13 
REMARK   12  A    between atoms: C_13  and  O_14 
REMARK   13  A    between atoms: O_14  and  C_15 
REMARK   14  A    between atoms: C_15  and  C_16 
REMARK   15  A    between atoms: C_16  and  O_17 
REMARK   16  A    between atoms: O_17  and  C_18 
REMARK   17  A    between atoms: C_18  and  C_19 
REMARK   18  A    between atoms: C_19  and  O_20 
REMARK   19  A    between atoms: O_20  and  C_21 
REMARK   20  A    between atoms: C_21  and  C_22 
REMARK   21  A    between atoms: C_22  and  O_23 
ROOT
HETATM    1  C   UNL     1     -20.890  -6.917  -4.404  1.00  0.00     0.026 C 
ENDROOT
BRANCH   1   2
HETATM    2  C   UNL     1     -21.509  -7.796  -3.330  1.00  0.00     0.002 C 
BRANCH   2   3
HETATM    3  C   UNL     1     -20.994  -7.421  -1.949  1.00  0.00     0.000 C 
BRANCH   3   4
HETATM    4  C   UNL     1     -22.163  -7.145  -1.013  1.00  0.00     0.000 C 
BRANCH   4   5
HETATM    5  C   UNL     1     -22.164  -8.129   0.148  1.00  0.00     0.000 C 
BRANCH   5   6
HETATM    6  C   UNL     1     -23.527  -8.796   0.279  1.00  0.00     0.000 C 
BRANCH   6   7
HETATM    7  C   UNL     1     -23.445 -10.259  -0.137  1.00  0.00     0.000 C 
BRANCH   7   8
HETATM    8  C   UNL     1     -21.998 -10.672  -0.368  1.00  0.00     0.000 C 
BRANCH   8   9
HETATM    9  C   UNL     1     -21.609 -11.816   0.557  1.00  0.00     0.000 C 
BRANCH   9  10
HETATM   10  C   UNL     1     -22.816 -12.701   0.859  1.00  0.00    -0.000 C 
BRANCH  10  11
HETATM   11  C   UNL     1     -22.467 -13.773   1.886  1.00  0.00    -0.005 C 
HETATM   12  C   UNL     1     -23.712 -14.260   2.607  1.00  0.00     0.005 C 
ENDBRANCH  10  11
ENDBRANCH   9  10
ENDBRANCH   8   9
ENDBRANCH   7   8
ENDBRANCH   6   7
ENDBRANCH   5   6
ENDBRANCH   4   5
ENDBRANCH   3   4
ENDBRANCH   2   3
ENDBRANCH   1   2
BRANCH   1  13
HETATM   13  C   UNL     1     -21.975  -6.321  -5.282  1.00  0.00     0.167 C 
BRANCH  13  14
HETATM   14  O   UNL     1     -21.481  -5.107  -5.835  1.00  0.00    -0.389 OA
BRANCH  14  15
HETATM   15  C   UNL     1     -21.324  -5.225  -7.244  1.00  0.00     0.193 C 
BRANCH  15  16
HETATM   16  C   UNL     1     -21.463  -3.851  -7.873  1.00  0.00     0.193 C 
BRANCH  16  17
HETATM   17  O   UNL     1     -22.176  -3.986  -9.097  1.00  0.00    -0.387 OA
BRANCH  17  18
HETATM   18  C   UNL     1     -23.581  -4.039  -8.873  1.00  0.00     0.193 C 
BRANCH  18  19
HETATM   19  C   UNL     1     -24.270  -4.434 -10.168  1.00  0.00     0.193 C 
BRANCH  19  20
HETATM   20  O   UNL     1     -24.840  -3.274 -10.783  1.00  0.00    -0.387 OA
BRANCH  20  21
HETATM   21  C   UNL     1     -24.178  -2.973 -12.017  1.00  0.00     0.193 C 
BRANCH  21  22
HETATM   22  C   UNL     1     -23.369  -4.192 -12.450  1.00  0.00     0.190 C 
BRANCH  22  23
HETATM   23  O   UNL     1     -22.084  -3.798 -12.924  1.00  0.00    -0.399 OA
HETATM   24  H   UNL     1     -21.461  -4.463 -12.577  1.00  0.00     0.209 HD
ENDBRANCH  22  23
ENDBRANCH  21  22
ENDBRANCH  20  21
ENDBRANCH  19  20
ENDBRANCH  18  19
ENDBRANCH  17  18
ENDBRANCH  16  17
ENDBRANCH  15  16
ENDBRANCH  14  15
ENDBRANCH  13  14
ENDBRANCH   1  13
TORSDOF 21
BEGIN_RES ARG D 557
REMARK  4 active torsions:
REMARK  status: ('A' for Active; 'I' for Inactive)
REMARK    1  A    between atoms: CA   and  CB  
REMARK    2  A    between atoms: CB   and  CG  
REMARK    3  A    between atoms: CG   and  CD  
REMARK    4  A    between atoms: CD   and  NE  
REMARK       I    between atoms: NE   and  CZ  
REMARK       I    between atoms: CZ   and  NH1 
REMARK       I    between atoms: CZ   and  NH2 
ROOT
ATOM      1  CA  ARG D 557     -26.217   2.705 -17.014  1.00 35.49     0.159 C 
ENDROOT
BRANCH   1   2
ATOM      2  CB  ARG D 557     -26.789   1.319 -17.183  1.00 35.49     0.034 C 
BRANCH   2   3
ATOM      3  CG  ARG D 557     -28.245   1.185 -17.051  1.00 35.49     0.027 C 
BRANCH   3   4
ATOM      4  CD  ARG D 557     -28.660  -0.208 -16.768  1.00 35.49     0.116 C 
BRANCH   4   5
ATOM      5  NE  ARG D 557     -27.640  -0.946 -16.070  1.00 35.49    -0.212 N 
ATOM      6  CZ  ARG D 557     -27.464  -2.248 -16.119  1.00 35.49     0.666 C 
ATOM      7  NH1 ARG D 557     -28.244  -3.042 -16.829  1.00 35.49    -0.235 N 
ATOM      8  NH2 ARG D 557     -26.473  -2.746 -15.438  1.00 35.49    -0.235 N 
ATOM      9  HH  ARG D 557     -28.900  -2.736 -17.286  1.00 35.49     0.174 HD
ATOM     10  HH  ARG D 557     -28.080  -3.883 -16.825  1.00 35.49     0.174 HD
ATOM     11  HH  ARG D 557     -25.982  -2.208 -14.995  1.00 35.49     0.174 HD
ATOM     12  HH  ARG D 557     -26.326  -3.581 -15.448  1.00 35.49     0.174 HD
ATOM     13  HE  ARG D 557     -27.137  -0.522 -15.531  1.00 35.49     0.178 HD
ENDBRANCH   4   5
ENDBRANCH   3   4
ENDBRANCH   2   3
ENDBRANCH   1   2
END_RES ARG D 557
BEGIN_RES GLU D 570
REMARK  3 active torsions:
REMARK  status: ('A' for Active; 'I' for Inactive)
REMARK    5  A    between atoms: CA   and  CB  
REMARK    6  A    between atoms: CB   and  CG  
REMARK    7  A    between atoms: CG   and  CD  
ROOT
ATOM     14  CA  GLU D 570     -18.033  -6.348 -13.375  1.00 32.92     0.160 C 
ENDROOT
BRANCH  14  15
ATOM     15  CB  GLU D 570     -19.500  -6.345 -13.794  1.00 32.92     0.043 C 
BRANCH  15  16
ATOM     16  CG  GLU D 570     -19.810  -5.976 -15.200  1.00 32.92     0.100 C 
BRANCH  16  17
ATOM     17  CD  GLU D 570     -21.293  -5.901 -15.476  1.00 32.92     0.185 C 
ATOM     18  OE1 GLU D 570     -21.689  -5.318 -16.504  1.00 32.92    -0.647 OA
ATOM     19  OE2 GLU D 570     -22.069  -6.416 -14.647  1.00 32.92    -0.647 OA
ENDBRANCH  16  17
ENDBRANCH  15  16
ENDBRANCH  14  15
END_RES GLU D 570
ENDMDL
MODEL 9
REMARK VINA RESULT:      -5.9      2.835      5.986
REMARK  21 active torsions:
REMARK  status: ('A' for Active; 'I' for Inactive)
REMARK    1  A    between atoms: C_2  and  C_3 
REMARK    2  A    between atoms: C_3  and  C_4 
REMARK    3  A    between atoms: C_4  and  C_5 
REMARK    4  A    between atoms: C_5  and  C_6 
REMARK    5  A    between atoms: C_6  and  C_7 
REMARK    6  A    between atoms: C_7  and  C_8 
REMARK    7  A    between atoms: C_8  and  C_9 
REMARK    8  A    between atoms: C_9  and  C_10 
REMARK    9  A    between atoms: C_10  and  C_11 
REMARK   10  A    between atoms: C_11  and  C_12 
REMARK   11  A    between atoms: C_12  and  C_13 
REMARK   12  A    between atoms: C_13  and  O_14 
REMARK   13  A    between atoms: O_14  and  C_15 
REMARK   14  A    between atoms: C_15  and  C_16 
REMARK   15  A    between atoms: C_16  and  O_17 
REMARK   16  A    between atoms: O_17  and  C_18 
REMARK   17  A    between atoms: C_18  and  C_19 
REMARK   18  A    between atoms: C_19  and  O_20 
REMARK   19  A    between atoms: O_20  and  C_21 
REMARK   20  A    between atoms: C_21  and  C_22 
REMARK   21  A    between atoms: C_22  and  O_23 
ROOT
HETATM    1  C   UNL     1     -21.727  -6.053  -2.487  1.00  0.00     0.026 C 
ENDROOT
BRANCH   1   2
HETATM    2  C   UNL     1     -22.385  -6.590  -1.226  1.00  0.00     0.002 C 
BRANCH   2   3
HETATM    3  C   UNL     1     -21.734  -7.889  -0.777  1.00  0.00     0.000 C 
BRANCH   3   4
HETATM    4  C   UNL     1     -22.581  -8.552   0.300  1.00  0.00     0.000 C 
BRANCH   4   5
HETATM    5  C   UNL     1     -23.265  -9.797  -0.246  1.00  0.00     0.000 C 
BRANCH   5   6
HETATM    6  C   UNL     1     -22.392 -11.025  -0.025  1.00  0.00     0.000 C 
BRANCH   6   7
HETATM    7  C   UNL     1     -22.104 -11.718  -1.350  1.00  0.00     0.000 C 
BRANCH   7   8
HETATM    8  C   UNL     1     -22.796 -10.994  -2.498  1.00  0.00     0.000 C 
BRANCH   8   9
HETATM    9  C   UNL     1     -21.859 -10.852  -3.689  1.00  0.00     0.000 C 
BRANCH   9  10
HETATM   10  C   UNL     1     -20.554 -11.603  -3.441  1.00  0.00    -0.000 C 
BRANCH  10  11
HETATM   11  C   UNL     1     -19.346 -10.712  -3.716  1.00  0.00    -0.005 C 
HETATM   12  C   UNL     1     -19.180  -9.671  -2.623  1.00  0.00     0.005 C 
ENDBRANCH  10  11
ENDBRANCH   9  10
ENDBRANCH   8   9
ENDBRANCH   7   8
ENDBRANCH   6   7
ENDBRANCH   5   6
ENDBRANCH   4   5
ENDBRANCH   3   4
ENDBRANCH   2   3
ENDBRANCH   1   2
BRANCH   1  13
HETATM   13  C   UNL     1     -21.657  -7.141  -3.543  1.00  0.00     0.167 C 
BRANCH  13  14
HETATM   14  O   UNL     1     -22.022  -6.569  -4.793  1.00  0.00    -0.389 OA
BRANCH  14  15
HETATM   15  C   UNL     1     -21.240  -7.121  -5.846  1.00  0.00     0.193 C 
BRANCH  15  16
HETATM   16  C   UNL     1     -20.885  -6.019  -6.827  1.00  0.00     0.193 C 
BRANCH  16  17
HETATM   17  O   UNL     1     -21.529  -4.821  -6.411  1.00  0.00    -0.387 OA
BRANCH  17  18
HETATM   18  C   UNL     1     -21.420  -3.805  -7.401  1.00  0.00     0.193 C 
BRANCH  18  19
HETATM   19  C   UNL     1     -21.318  -4.461  -8.769  1.00  0.00     0.193 C 
BRANCH  19  20
HETATM   20  O   UNL     1     -22.230  -3.829  -9.674  1.00  0.00    -0.387 OA
BRANCH  20  21
HETATM   21  C   UNL     1     -23.526  -4.436  -9.599  1.00  0.00     0.193 C 
BRANCH  21  22
HETATM   22  C   UNL     1     -24.586  -3.358  -9.802  1.00  0.00     0.190 C 
BRANCH  22  23
HETATM   23  O   UNL     1     -24.904  -3.223 -11.185  1.00  0.00    -0.399 OA
HETATM   24  H   UNL     1     -24.971  -2.263 -11.346  1.00  0.00     0.209 HD
ENDBRANCH  22  23
ENDBRANCH  21  22
ENDBRANCH  20  21
ENDBRANCH  19  20
ENDBRANCH  18  19
ENDBRANCH  17  18
ENDBRANCH  16  17
ENDBRANCH  15  16
ENDBRANCH  14  15
ENDBRANCH  13  14
ENDBRANCH   1  13
TORSDOF 21
BEGIN_RES ARG D 557
REMARK  4 active torsions:
REMARK  status: ('A' for Active; 'I' for Inactive)
REMARK    1  A    between atoms: CA   and  CB  
REMARK    2  A    between atoms: CB   and  CG  
REMARK    3  A    between atoms: CG   and  CD  
REMARK    4  A    between atoms: CD   and  NE  
REMARK       I    between atoms: NE   and  CZ  
REMARK       I    between atoms: CZ   and  NH1 
REMARK       I    between atoms: CZ   and  NH2 
ROOT
ATOM      1  CA  ARG D 557     -26.217   2.705 -17.014  1.00 35.49     0.159 C 
ENDROOT
BRANCH   1   2
ATOM      2  CB  ARG D 557     -26.789   1.319 -17.183  1.00 35.49     0.034 C 
BRANCH   2   3
ATOM      3  CG  ARG D 557     -25.856   0.196 -17.029  1.00 35.49     0.027 C 
BRANCH   3   4
ATOM      4  CD  ARG D 557     -26.210  -0.679 -15.889  1.00 35.49     0.116 C 
BRANCH   4   5
ATOM      5  NE  ARG D 557     -25.102  -0.874 -14.991  1.00 35.49    -0.212 N 
ATOM      6  CZ  ARG D 557     -24.837  -1.976 -14.325  1.00 35.49     0.666 C 
ATOM      7  NH1 ARG D 557     -25.597  -3.053 -14.405  1.00 35.49    -0.235 N 
ATOM      8  NH2 ARG D 557     -23.776  -1.982 -13.572  1.00 35.49    -0.235 N 
ATOM      9  HH  ARG D 557     -26.299  -3.072 -14.897  1.00 35.49     0.174 HD
ATOM     10  HH  ARG D 557     -25.373  -3.744 -13.950  1.00 35.49     0.174 HD
ATOM     11  HH  ARG D 557     -23.300  -1.275 -13.545  1.00 35.49     0.174 HD
ATOM     12  HH  ARG D 557     -23.571  -2.676 -13.130  1.00 35.49     0.174 HD
ATOM     13  HE  ARG D 557     -24.601  -0.207 -14.824  1.00 35.49     0.178 HD
ENDBRANCH   4   5
ENDBRANCH   3   4
ENDBRANCH   2   3
ENDBRANCH   1   2
END_RES ARG D 557
BEGIN_RES GLU D 570
REMARK  3 active torsions:
REMARK  status: ('A' for Active; 'I' for Inactive)
REMARK    5  A    between atoms: CA   and  CB  
REMARK    6  A    between atoms: CB   and  CG  
REMARK    7  A    between atoms: CG   and  CD  
ROOT
ATOM     14  CA  GLU D 570     -18.033  -6.348 -13.375  1.00 32.92     0.160 C 
ENDROOT
BRANCH  14  15
ATOM     15  CB  GLU D 570     -19.500  -6.345 -13.794  1.00 32.92     0.043 C 
BRANCH  15  16
ATOM     16  CG  GLU D 570     -20.460  -5.623 -12.920  1.00 32.92     0.100 C 
BRANCH  16  17
ATOM     17  CD  GLU D 570     -21.723  -5.216 -13.642  1.00 32.92     0.185 C 
ATOM     18  OE1 GLU D 570     -21.814  -5.423 -14.867  1.00 32.92    -0.647 OA
ATOM     19  OE2 GLU D 570     -22.626  -4.668 -12.978  1.00 32.92    -0.647 OA
ENDBRANCH  16  17
ENDBRANCH  15  16
ENDBRANCH  14  15
END_RES GLU D 570
ENDMDL
