MODEL 1
REMARK VINA RESULT:      -1.2      0.000      0.000
REMARK  6 active torsions:
REMARK  status: ('A' for Active; 'I' for Inactive)
REMARK    1  A    between atoms: C_7  and  N_15 
REMARK    2  A    between atoms: C_10  and  S_11 
REMARK    3  A    between atoms: N_17  and  C_19 
REMARK    4  A    between atoms: C_23  and  S_34 
REMARK    5  A    between atoms: C_27  and  S_30 
REMARK    6  A    between atoms: C_28  and  O_29 
ROOT
HETATM    1 NA   UNL     2     -27.105 -13.689 -13.092  1.00  0.00     0.000 Na
ENDROOT
TORSDOF 6
BEGIN_RES ARG D 557
REMARK  4 active torsions:
REMARK  status: ('A' for Active; 'I' for Inactive)
REMARK    1  A    between atoms: CA   and  CB  
REMARK    2  A    between atoms: CB   and  CG  
REMARK    3  A    between atoms: CG   and  CD  
REMARK    4  A    between atoms: CD   and  NE  
REMARK       I    between atoms: NE   and  CZ  
REMARK       I    between atoms: CZ   and  NH1 
REMARK       I    between atoms: CZ   and  NH2 
ROOT
ATOM      1  CA  ARG D 557     -26.217   2.705 -17.014  1.00 35.49     0.159 C 
ENDROOT
BRANCH   1   2
ATOM      2  CB  ARG D 557     -26.789   1.319 -17.183  1.00 35.49     0.034 C 
BRANCH   2   3
ATOM      3  CG  ARG D 557     -25.836   0.203 -17.155  1.00 35.49     0.027 C 
BRANCH   3   4
ATOM      4  CD  ARG D 557     -24.760   0.404 -16.157  1.00 35.49     0.116 C 
BRANCH   4   5
ATOM      5  NE  ARG D 557     -24.917  -0.451 -15.011  1.00 35.49    -0.212 N 
ATOM      6  CZ  ARG D 557     -24.103  -1.421 -14.658  1.00 35.49     0.666 C 
ATOM      7  NH1 ARG D 557     -23.025  -1.730 -15.355  1.00 35.49    -0.235 N 
ATOM      8  NH2 ARG D 557     -24.390  -2.082 -13.575  1.00 35.49    -0.235 N 
ATOM      9  HH  ARG D 557     -22.816  -1.307 -16.070  1.00 35.49     0.174 HD
ATOM     10  HH  ARG D 557     -22.530  -2.371 -15.076  1.00 35.49     0.174 HD
ATOM     11  HH  ARG D 557     -25.089  -1.855 -13.141  1.00 35.49     0.174 HD
ATOM     12  HH  ARG D 557     -23.886  -2.712 -13.313  1.00 35.49     0.174 HD
ATOM     13  HE  ARG D 557     -25.625  -0.369 -14.545  1.00 35.49     0.178 HD
ENDBRANCH   4   5
ENDBRANCH   3   4
ENDBRANCH   2   3
ENDBRANCH   1   2
END_RES ARG D 557
BEGIN_RES GLU D 570
REMARK  3 active torsions:
REMARK  status: ('A' for Active; 'I' for Inactive)
REMARK    5  A    between atoms: CA   and  CB  
REMARK    6  A    between atoms: CB   and  CG  
REMARK    7  A    between atoms: CG   and  CD  
ROOT
ATOM     14  CA  GLU D 570     -18.033  -6.348 -13.375  1.00 32.92     0.160 C 
ENDROOT
BRANCH  14  15
ATOM     15  CB  GLU D 570     -19.500  -6.345 -13.794  1.00 32.92     0.043 C 
BRANCH  15  16
ATOM     16  CG  GLU D 570     -20.442  -5.532 -12.982  1.00 32.92     0.100 C 
BRANCH  16  17
ATOM     17  CD  GLU D 570     -21.743  -5.250 -13.697  1.00 32.92     0.185 C 
ATOM     18  OE1 GLU D 570     -22.273  -4.129 -13.569  1.00 32.92    -0.647 OA
ATOM     19  OE2 GLU D 570     -22.247  -6.164 -14.378  1.00 32.92    -0.647 OA
ENDBRANCH  16  17
ENDBRANCH  15  16
ENDBRANCH  14  15
END_RES GLU D 570
ENDMDL
MODEL 2
REMARK VINA RESULT:      -1.1      3.576      3.576
REMARK  6 active torsions:
REMARK  status: ('A' for Active; 'I' for Inactive)
REMARK    1  A    between atoms: C_7  and  N_15 
REMARK    2  A    between atoms: C_10  and  S_11 
REMARK    3  A    between atoms: N_17  and  C_19 
REMARK    4  A    between atoms: C_23  and  S_34 
REMARK    5  A    between atoms: C_27  and  S_30 
REMARK    6  A    between atoms: C_28  and  O_29 
ROOT
HETATM    1 NA   UNL     2     -25.223  -5.263  -4.960  1.00  0.00     0.000 Na
ENDROOT
TORSDOF 6
BEGIN_RES ARG D 557
REMARK  4 active torsions:
REMARK  status: ('A' for Active; 'I' for Inactive)
REMARK    1  A    between atoms: CA   and  CB  
REMARK    2  A    between atoms: CB   and  CG  
REMARK    3  A    between atoms: CG   and  CD  
REMARK    4  A    between atoms: CD   and  NE  
REMARK       I    between atoms: NE   and  CZ  
REMARK       I    between atoms: CZ   and  NH1 
REMARK       I    between atoms: CZ   and  NH2 
ROOT
ATOM      1  CA  ARG D 557     -26.217   2.705 -17.014  1.00 35.49     0.159 C 
ENDROOT
BRANCH   1   2
ATOM      2  CB  ARG D 557     -26.789   1.319 -17.183  1.00 35.49     0.034 C 
BRANCH   2   3
ATOM      3  CG  ARG D 557     -25.834   0.204 -17.173  1.00 35.49     0.027 C 
BRANCH   3   4
ATOM      4  CD  ARG D 557     -24.746   0.402 -16.188  1.00 35.49     0.116 C 
BRANCH   4   5
ATOM      5  NE  ARG D 557     -24.903  -0.440 -15.031  1.00 35.49    -0.212 N 
ATOM      6  CZ  ARG D 557     -24.091  -1.409 -14.671  1.00 35.49     0.666 C 
ATOM      7  NH1 ARG D 557     -23.017  -1.730 -15.367  1.00 35.49    -0.235 N 
ATOM      8  NH2 ARG D 557     -24.377  -2.056 -13.579  1.00 35.49    -0.235 N 
ATOM      9  HH  ARG D 557     -22.809  -1.316 -16.088  1.00 35.49     0.174 HD
ATOM     10  HH  ARG D 557     -22.523  -2.370 -15.082  1.00 35.49     0.174 HD
ATOM     11  HH  ARG D 557     -25.074  -1.822 -13.145  1.00 35.49     0.174 HD
ATOM     12  HH  ARG D 557     -23.875  -2.685 -13.312  1.00 35.49     0.174 HD
ATOM     13  HE  ARG D 557     -25.608  -0.350 -14.565  1.00 35.49     0.178 HD
ENDBRANCH   4   5
ENDBRANCH   3   4
ENDBRANCH   2   3
ENDBRANCH   1   2
END_RES ARG D 557
BEGIN_RES GLU D 570
REMARK  3 active torsions:
REMARK  status: ('A' for Active; 'I' for Inactive)
REMARK    5  A    between atoms: CA   and  CB  
REMARK    6  A    between atoms: CB   and  CG  
REMARK    7  A    between atoms: CG   and  CD  
ROOT
ATOM     14  CA  GLU D 570     -18.033  -6.348 -13.375  1.00 32.92     0.160 C 
ENDROOT
BRANCH  14  15
ATOM     15  CB  GLU D 570     -19.500  -6.345 -13.794  1.00 32.92     0.043 C 
BRANCH  15  16
ATOM     16  CG  GLU D 570     -20.440  -5.521 -12.991  1.00 32.92     0.100 C 
BRANCH  16  17
ATOM     17  CD  GLU D 570     -21.741  -5.244 -13.707  1.00 32.92     0.185 C 
ATOM     18  OE1 GLU D 570     -22.334  -4.169 -13.491  1.00 32.92    -0.647 OA
ATOM     19  OE2 GLU D 570     -22.180  -6.118 -14.480  1.00 32.92    -0.647 OA
ENDBRANCH  16  17
ENDBRANCH  15  16
ENDBRANCH  14  15
END_RES GLU D 570
ENDMDL
MODEL 3
REMARK VINA RESULT:      -1.1      8.185      8.249
REMARK  6 active torsions:
REMARK  status: ('A' for Active; 'I' for Inactive)
REMARK    1  A    between atoms: C_7  and  N_15 
REMARK    2  A    between atoms: C_10  and  S_11 
REMARK    3  A    between atoms: N_17  and  C_19 
REMARK    4  A    between atoms: C_23  and  S_34 
REMARK    5  A    between atoms: C_27  and  S_30 
REMARK    6  A    between atoms: C_28  and  O_29 
ROOT
HETATM    1 NA   UNL     2     -11.257   1.602   2.445  1.00  0.00     0.000 Na
ENDROOT
TORSDOF 6
BEGIN_RES ARG D 557
REMARK  4 active torsions:
REMARK  status: ('A' for Active; 'I' for Inactive)
REMARK    1  A    between atoms: CA   and  CB  
REMARK    2  A    between atoms: CB   and  CG  
REMARK    3  A    between atoms: CG   and  CD  
REMARK    4  A    between atoms: CD   and  NE  
REMARK       I    between atoms: NE   and  CZ  
REMARK       I    between atoms: CZ   and  NH1 
REMARK       I    between atoms: CZ   and  NH2 
ROOT
ATOM      1  CA  ARG D 557     -26.217   2.705 -17.014  1.00 35.49     0.159 C 
ENDROOT
BRANCH   1   2
ATOM      2  CB  ARG D 557     -26.789   1.319 -17.183  1.00 35.49     0.034 C 
BRANCH   2   3
ATOM      3  CG  ARG D 557     -25.863   0.195 -16.999  1.00 35.49     0.027 C 
BRANCH   3   4
ATOM      4  CD  ARG D 557     -26.286  -0.712 -15.908  1.00 35.49     0.116 C 
BRANCH   4   5
ATOM      5  NE  ARG D 557     -25.245  -0.913 -14.935  1.00 35.49    -0.212 N 
ATOM      6  CZ  ARG D 557     -24.951  -2.052 -14.348  1.00 35.49     0.666 C 
ATOM      7  NH1 ARG D 557     -25.615  -3.166 -14.590  1.00 35.49    -0.235 N 
ATOM      8  NH2 ARG D 557     -23.959  -2.054 -13.506  1.00 35.49    -0.235 N 
ATOM      9  HH  ARG D 557     -26.270  -3.188 -15.143  1.00 35.49     0.174 HD
ATOM     10  HH  ARG D 557     -25.377  -3.880 -14.180  1.00 35.49     0.174 HD
ATOM     11  HH  ARG D 557     -23.543  -1.321 -13.375  1.00 35.49     0.174 HD
ATOM     12  HH  ARG D 557     -23.737  -2.771 -13.111  1.00 35.49     0.174 HD
ATOM     13  HE  ARG D 557     -24.813  -0.231 -14.666  1.00 35.49     0.178 HD
ENDBRANCH   4   5
ENDBRANCH   3   4
ENDBRANCH   2   3
ENDBRANCH   1   2
END_RES ARG D 557
BEGIN_RES GLU D 570
REMARK  3 active torsions:
REMARK  status: ('A' for Active; 'I' for Inactive)
REMARK    5  A    between atoms: CA   and  CB  
REMARK    6  A    between atoms: CB   and  CG  
REMARK    7  A    between atoms: CG   and  CD  
ROOT
ATOM     14  CA  GLU D 570     -18.033  -6.348 -13.375  1.00 32.92     0.160 C 
ENDROOT
BRANCH  14  15
ATOM     15  CB  GLU D 570     -19.500  -6.345 -13.794  1.00 32.92     0.043 C 
BRANCH  15  16
ATOM     16  CG  GLU D 570     -20.451  -5.576 -12.951  1.00 32.92     0.100 C 
BRANCH  16  17
ATOM     17  CD  GLU D 570     -21.689  -5.144 -13.702  1.00 32.92     0.185 C 
ATOM     18  OE1 GLU D 570     -21.690  -5.197 -14.947  1.00 32.92    -0.647 OA
ATOM     19  OE2 GLU D 570     -22.662  -4.733 -13.039  1.00 32.92    -0.647 OA
ENDBRANCH  16  17
ENDBRANCH  15  16
ENDBRANCH  14  15
END_RES GLU D 570
ENDMDL
MODEL 4
REMARK VINA RESULT:      -1.0      8.169      8.208
REMARK  6 active torsions:
REMARK  status: ('A' for Active; 'I' for Inactive)
REMARK    1  A    between atoms: C_7  and  N_15 
REMARK    2  A    between atoms: C_10  and  S_11 
REMARK    3  A    between atoms: N_17  and  C_19 
REMARK    4  A    between atoms: C_23  and  S_34 
REMARK    5  A    between atoms: C_27  and  S_30 
REMARK    6  A    between atoms: C_28  and  O_29 
ROOT
HETATM    1 NA   UNL     2      -9.126   5.866 -17.194  1.00  0.00     0.000 Na
ENDROOT
TORSDOF 6
BEGIN_RES ARG D 557
REMARK  4 active torsions:
REMARK  status: ('A' for Active; 'I' for Inactive)
REMARK    1  A    between atoms: CA   and  CB  
REMARK    2  A    between atoms: CB   and  CG  
REMARK    3  A    between atoms: CG   and  CD  
REMARK    4  A    between atoms: CD   and  NE  
REMARK       I    between atoms: NE   and  CZ  
REMARK       I    between atoms: CZ   and  NH1 
REMARK       I    between atoms: CZ   and  NH2 
ROOT
ATOM      1  CA  ARG D 557     -26.217   2.705 -17.014  1.00 35.49     0.159 C 
ENDROOT
BRANCH   1   2
ATOM      2  CB  ARG D 557     -26.789   1.319 -17.183  1.00 35.49     0.034 C 
BRANCH   2   3
ATOM      3  CG  ARG D 557     -25.865   0.195 -16.991  1.00 35.49     0.027 C 
BRANCH   3   4
ATOM      4  CD  ARG D 557     -26.298  -0.713 -15.904  1.00 35.49     0.116 C 
BRANCH   4   5
ATOM      5  NE  ARG D 557     -25.255  -0.938 -14.938  1.00 35.49    -0.212 N 
ATOM      6  CZ  ARG D 557     -24.989  -2.082 -14.348  1.00 35.49     0.666 C 
ATOM      7  NH1 ARG D 557     -25.687  -3.178 -14.579  1.00 35.49    -0.235 N 
ATOM      8  NH2 ARG D 557     -23.991  -2.108 -13.513  1.00 35.49    -0.235 N 
ATOM      9  HH  ARG D 557     -26.346  -3.184 -15.126  1.00 35.49     0.174 HD
ATOM     10  HH  ARG D 557     -25.466  -3.896 -14.166  1.00 35.49     0.174 HD
ATOM     11  HH  ARG D 557     -23.553  -1.387 -13.389  1.00 35.49     0.174 HD
ATOM     12  HH  ARG D 557     -23.787  -2.829 -13.116  1.00 35.49     0.174 HD
ATOM     13  HE  ARG D 557     -24.802  -0.268 -14.676  1.00 35.49     0.178 HD
ENDBRANCH   4   5
ENDBRANCH   3   4
ENDBRANCH   2   3
ENDBRANCH   1   2
END_RES ARG D 557
BEGIN_RES GLU D 570
REMARK  3 active torsions:
REMARK  status: ('A' for Active; 'I' for Inactive)
REMARK    5  A    between atoms: CA   and  CB  
REMARK    6  A    between atoms: CB   and  CG  
REMARK    7  A    between atoms: CG   and  CD  
ROOT
ATOM     14  CA  GLU D 570     -18.033  -6.348 -13.375  1.00 32.92     0.160 C 
ENDROOT
BRANCH  14  15
ATOM     15  CB  GLU D 570     -19.500  -6.345 -13.794  1.00 32.92     0.043 C 
BRANCH  15  16
ATOM     16  CG  GLU D 570     -20.442  -5.531 -12.983  1.00 32.92     0.100 C 
BRANCH  16  17
ATOM     17  CD  GLU D 570     -21.680  -5.125 -13.749  1.00 32.92     0.185 C 
ATOM     18  OE1 GLU D 570     -22.739  -4.925 -13.124  1.00 32.92    -0.647 OA
ATOM     19  OE2 GLU D 570     -21.594  -5.023 -14.988  1.00 32.92    -0.647 OA
ENDBRANCH  16  17
ENDBRANCH  15  16
ENDBRANCH  14  15
END_RES GLU D 570
ENDMDL
MODEL 5
REMARK VINA RESULT:      -1.0      2.230      2.418
REMARK  6 active torsions:
REMARK  status: ('A' for Active; 'I' for Inactive)
REMARK    1  A    between atoms: C_7  and  N_15 
REMARK    2  A    between atoms: C_10  and  S_11 
REMARK    3  A    between atoms: N_17  and  C_19 
REMARK    4  A    between atoms: C_23  and  S_34 
REMARK    5  A    between atoms: C_27  and  S_30 
REMARK    6  A    between atoms: C_28  and  O_29 
ROOT
HETATM    1 NA   UNL     2     -32.970  -9.716 -10.967  1.00  0.00     0.000 Na
ENDROOT
TORSDOF 6
BEGIN_RES ARG D 557
REMARK  4 active torsions:
REMARK  status: ('A' for Active; 'I' for Inactive)
REMARK    1  A    between atoms: CA   and  CB  
REMARK    2  A    between atoms: CB   and  CG  
REMARK    3  A    between atoms: CG   and  CD  
REMARK    4  A    between atoms: CD   and  NE  
REMARK       I    between atoms: NE   and  CZ  
REMARK       I    between atoms: CZ   and  NH1 
REMARK       I    between atoms: CZ   and  NH2 
ROOT
ATOM      1  CA  ARG D 557     -26.217   2.705 -17.014  1.00 35.49     0.159 C 
ENDROOT
BRANCH   1   2
ATOM      2  CB  ARG D 557     -26.789   1.319 -17.183  1.00 35.49     0.034 C 
BRANCH   2   3
ATOM      3  CG  ARG D 557     -25.834   0.204 -17.171  1.00 35.49     0.027 C 
BRANCH   3   4
ATOM      4  CD  ARG D 557     -24.747   0.403 -16.185  1.00 35.49     0.116 C 
BRANCH   4   5
ATOM      5  NE  ARG D 557     -24.899  -0.445 -15.032  1.00 35.49    -0.212 N 
ATOM      6  CZ  ARG D 557     -24.081  -1.409 -14.675  1.00 35.49     0.666 C 
ATOM      7  NH1 ARG D 557     -23.003  -1.720 -15.371  1.00 35.49    -0.235 N 
ATOM      8  NH2 ARG D 557     -24.363  -2.064 -13.586  1.00 35.49    -0.235 N 
ATOM      9  HH  ARG D 557     -22.797  -1.301 -16.090  1.00 35.49     0.174 HD
ATOM     10  HH  ARG D 557     -22.505  -2.357 -15.088  1.00 35.49     0.174 HD
ATOM     11  HH  ARG D 557     -25.062  -1.836 -13.152  1.00 35.49     0.174 HD
ATOM     12  HH  ARG D 557     -23.857  -2.690 -13.321  1.00 35.49     0.174 HD
ATOM     13  HE  ARG D 557     -25.606  -0.363 -14.566  1.00 35.49     0.178 HD
ENDBRANCH   4   5
ENDBRANCH   3   4
ENDBRANCH   2   3
ENDBRANCH   1   2
END_RES ARG D 557
BEGIN_RES GLU D 570
REMARK  3 active torsions:
REMARK  status: ('A' for Active; 'I' for Inactive)
REMARK    5  A    between atoms: CA   and  CB  
REMARK    6  A    between atoms: CB   and  CG  
REMARK    7  A    between atoms: CG   and  CD  
ROOT
ATOM     14  CA  GLU D 570     -18.033  -6.348 -13.375  1.00 32.92     0.160 C 
ENDROOT
BRANCH  14  15
ATOM     15  CB  GLU D 570     -19.500  -6.345 -13.794  1.00 32.92     0.043 C 
BRANCH  15  16
ATOM     16  CG  GLU D 570     -20.443  -5.535 -12.980  1.00 32.92     0.100 C 
BRANCH  16  17
ATOM     17  CD  GLU D 570     -21.748  -5.260 -13.690  1.00 32.92     0.185 C 
ATOM     18  OE1 GLU D 570     -22.248  -6.151 -14.403  1.00 32.92    -0.647 OA
ATOM     19  OE2 GLU D 570     -22.267  -4.136 -13.545  1.00 32.92    -0.647 OA
ENDBRANCH  16  17
ENDBRANCH  15  16
ENDBRANCH  14  15
END_RES GLU D 570
ENDMDL
MODEL 6
REMARK VINA RESULT:      -1.0      2.869      3.039
REMARK  6 active torsions:
REMARK  status: ('A' for Active; 'I' for Inactive)
REMARK    1  A    between atoms: C_7  and  N_15 
REMARK    2  A    between atoms: C_10  and  S_11 
REMARK    3  A    between atoms: N_17  and  C_19 
REMARK    4  A    between atoms: C_23  and  S_34 
REMARK    5  A    between atoms: C_27  and  S_30 
REMARK    6  A    between atoms: C_28  and  O_29 
ROOT
HETATM    1 NA   UNL     2     -27.255  -5.719  -9.095  1.00  0.00     0.000 Na
ENDROOT
TORSDOF 6
BEGIN_RES ARG D 557
REMARK  4 active torsions:
REMARK  status: ('A' for Active; 'I' for Inactive)
REMARK    1  A    between atoms: CA   and  CB  
REMARK    2  A    between atoms: CB   and  CG  
REMARK    3  A    between atoms: CG   and  CD  
REMARK    4  A    between atoms: CD   and  NE  
REMARK       I    between atoms: NE   and  CZ  
REMARK       I    between atoms: CZ   and  NH1 
REMARK       I    between atoms: CZ   and  NH2 
ROOT
ATOM      1  CA  ARG D 557     -26.217   2.705 -17.014  1.00 35.49     0.159 C 
ENDROOT
BRANCH   1   2
ATOM      2  CB  ARG D 557     -26.789   1.319 -17.183  1.00 35.49     0.034 C 
BRANCH   2   3
ATOM      3  CG  ARG D 557     -25.861   0.195 -17.009  1.00 35.49     0.027 C 
BRANCH   3   4
ATOM      4  CD  ARG D 557     -26.284  -0.724 -15.927  1.00 35.49     0.116 C 
BRANCH   4   5
ATOM      5  NE  ARG D 557     -25.249  -0.920 -14.947  1.00 35.49    -0.212 N 
ATOM      6  CZ  ARG D 557     -24.966  -2.054 -14.345  1.00 35.49     0.666 C 
ATOM      7  NH1 ARG D 557     -25.636  -3.167 -14.579  1.00 35.49    -0.235 N 
ATOM      8  NH2 ARG D 557     -23.979  -2.053 -13.497  1.00 35.49    -0.235 N 
ATOM      9  HH  ARG D 557     -26.288  -3.191 -15.134  1.00 35.49     0.174 HD
ATOM     10  HH  ARG D 557     -25.405  -3.877 -14.159  1.00 35.49     0.174 HD
ATOM     11  HH  ARG D 557     -23.559  -1.322 -13.372  1.00 35.49     0.174 HD
ATOM     12  HH  ARG D 557     -23.764  -2.767 -13.093  1.00 35.49     0.174 HD
ATOM     13  HE  ARG D 557     -24.815  -0.238 -14.682  1.00 35.49     0.178 HD
ENDBRANCH   4   5
ENDBRANCH   3   4
ENDBRANCH   2   3
ENDBRANCH   1   2
END_RES ARG D 557
BEGIN_RES GLU D 570
REMARK  3 active torsions:
REMARK  status: ('A' for Active; 'I' for Inactive)
REMARK    5  A    between atoms: CA   and  CB  
REMARK    6  A    between atoms: CB   and  CG  
REMARK    7  A    between atoms: CG   and  CD  
ROOT
ATOM     14  CA  GLU D 570     -18.033  -6.348 -13.375  1.00 32.92     0.160 C 
ENDROOT
BRANCH  14  15
ATOM     15  CB  GLU D 570     -19.500  -6.345 -13.794  1.00 32.92     0.043 C 
BRANCH  15  16
ATOM     16  CG  GLU D 570     -20.447  -5.556 -12.965  1.00 32.92     0.100 C 
BRANCH  16  17
ATOM     17  CD  GLU D 570     -21.660  -5.090 -13.736  1.00 32.92     0.185 C 
ATOM     18  OE1 GLU D 570     -21.606  -5.050 -14.981  1.00 32.92    -0.647 OA
ATOM     19  OE2 GLU D 570     -22.668  -4.745 -13.089  1.00 32.92    -0.647 OA
ENDBRANCH  16  17
ENDBRANCH  15  16
ENDBRANCH  14  15
END_RES GLU D 570
ENDMDL
MODEL 7
REMARK VINA RESULT:      -0.9      2.815      2.815
REMARK  6 active torsions:
REMARK  status: ('A' for Active; 'I' for Inactive)
REMARK    1  A    between atoms: C_7  and  N_15 
REMARK    2  A    between atoms: C_10  and  S_11 
REMARK    3  A    between atoms: N_17  and  C_19 
REMARK    4  A    between atoms: C_23  and  S_34 
REMARK    5  A    between atoms: C_27  and  S_30 
REMARK    6  A    between atoms: C_28  and  O_29 
ROOT
HETATM    1 NA   UNL     2     -28.225 -13.572 -22.358  1.00  0.00     0.000 Na
ENDROOT
TORSDOF 6
BEGIN_RES ARG D 557
REMARK  4 active torsions:
REMARK  status: ('A' for Active; 'I' for Inactive)
REMARK    1  A    between atoms: CA   and  CB  
REMARK    2  A    between atoms: CB   and  CG  
REMARK    3  A    between atoms: CG   and  CD  
REMARK    4  A    between atoms: CD   and  NE  
REMARK       I    between atoms: NE   and  CZ  
REMARK       I    between atoms: CZ   and  NH1 
REMARK       I    between atoms: CZ   and  NH2 
ROOT
ATOM      1  CA  ARG D 557     -26.217   2.705 -17.014  1.00 35.49     0.159 C 
ENDROOT
BRANCH   1   2
ATOM      2  CB  ARG D 557     -26.789   1.319 -17.183  1.00 35.49     0.034 C 
BRANCH   2   3
ATOM      3  CG  ARG D 557     -25.834   0.204 -17.175  1.00 35.49     0.027 C 
BRANCH   3   4
ATOM      4  CD  ARG D 557     -24.744   0.402 -16.192  1.00 35.49     0.116 C 
BRANCH   4   5
ATOM      5  NE  ARG D 557     -24.898  -0.439 -15.035  1.00 35.49    -0.212 N 
ATOM      6  CZ  ARG D 557     -24.084  -1.406 -14.674  1.00 35.49     0.666 C 
ATOM      7  NH1 ARG D 557     -23.008  -1.724 -15.371  1.00 35.49    -0.235 N 
ATOM      8  NH2 ARG D 557     -24.367  -2.053 -13.582  1.00 35.49    -0.235 N 
ATOM      9  HH  ARG D 557     -22.801  -1.310 -16.092  1.00 35.49     0.174 HD
ATOM     10  HH  ARG D 557     -22.513  -2.362 -15.086  1.00 35.49     0.174 HD
ATOM     11  HH  ARG D 557     -25.064  -1.821 -13.148  1.00 35.49     0.174 HD
ATOM     12  HH  ARG D 557     -23.863  -2.681 -13.315  1.00 35.49     0.174 HD
ATOM     13  HE  ARG D 557     -25.603  -0.351 -14.568  1.00 35.49     0.178 HD
ENDBRANCH   4   5
ENDBRANCH   3   4
ENDBRANCH   2   3
ENDBRANCH   1   2
END_RES ARG D 557
BEGIN_RES GLU D 570
REMARK  3 active torsions:
REMARK  status: ('A' for Active; 'I' for Inactive)
REMARK    5  A    between atoms: CA   and  CB  
REMARK    6  A    between atoms: CB   and  CG  
REMARK    7  A    between atoms: CG   and  CD  
ROOT
ATOM     14  CA  GLU D 570     -18.033  -6.348 -13.375  1.00 32.92     0.160 C 
ENDROOT
BRANCH  14  15
ATOM     15  CB  GLU D 570     -19.500  -6.345 -13.794  1.00 32.92     0.043 C 
BRANCH  15  16
ATOM     16  CG  GLU D 570     -20.440  -5.524 -12.988  1.00 32.92     0.100 C 
BRANCH  16  17
ATOM     17  CD  GLU D 570     -21.743  -5.249 -13.702  1.00 32.92     0.185 C 
ATOM     18  OE1 GLU D 570     -22.326  -4.166 -13.503  1.00 32.92    -0.647 OA
ATOM     19  OE2 GLU D 570     -22.195  -6.133 -14.456  1.00 32.92    -0.647 OA
ENDBRANCH  16  17
ENDBRANCH  15  16
ENDBRANCH  14  15
END_RES GLU D 570
ENDMDL
MODEL 8
REMARK VINA RESULT:      -0.9      8.470      8.521
REMARK  6 active torsions:
REMARK  status: ('A' for Active; 'I' for Inactive)
REMARK    1  A    between atoms: C_7  and  N_15 
REMARK    2  A    between atoms: C_10  and  S_11 
REMARK    3  A    between atoms: N_17  and  C_19 
REMARK    4  A    between atoms: C_23  and  S_34 
REMARK    5  A    between atoms: C_27  and  S_30 
REMARK    6  A    between atoms: C_28  and  O_29 
ROOT
HETATM    1 NA   UNL     2     -14.938  11.627 -13.542  1.00  0.00     0.000 Na
ENDROOT
TORSDOF 6
BEGIN_RES ARG D 557
REMARK  4 active torsions:
REMARK  status: ('A' for Active; 'I' for Inactive)
REMARK    1  A    between atoms: CA   and  CB  
REMARK    2  A    between atoms: CB   and  CG  
REMARK    3  A    between atoms: CG   and  CD  
REMARK    4  A    between atoms: CD   and  NE  
REMARK       I    between atoms: NE   and  CZ  
REMARK       I    between atoms: CZ   and  NH1 
REMARK       I    between atoms: CZ   and  NH2 
ROOT
ATOM      1  CA  ARG D 557     -26.217   2.705 -17.014  1.00 35.49     0.159 C 
ENDROOT
BRANCH   1   2
ATOM      2  CB  ARG D 557     -26.789   1.319 -17.183  1.00 35.49     0.034 C 
BRANCH   2   3
ATOM      3  CG  ARG D 557     -25.836   0.203 -17.151  1.00 35.49     0.027 C 
BRANCH   3   4
ATOM      4  CD  ARG D 557     -24.759   0.409 -16.155  1.00 35.49     0.116 C 
BRANCH   4   5
ATOM      5  NE  ARG D 557     -24.907  -0.451 -15.011  1.00 35.49    -0.212 N 
ATOM      6  CZ  ARG D 557     -24.087  -1.419 -14.666  1.00 35.49     0.666 C 
ATOM      7  NH1 ARG D 557     -23.012  -1.721 -15.370  1.00 35.49    -0.235 N 
ATOM      8  NH2 ARG D 557     -24.366  -2.085 -13.583  1.00 35.49    -0.235 N 
ATOM      9  HH  ARG D 557     -22.808  -1.295 -16.084  1.00 35.49     0.174 HD
ATOM     10  HH  ARG D 557     -22.512  -2.361 -15.095  1.00 35.49     0.174 HD
ATOM     11  HH  ARG D 557     -25.063  -1.863 -13.145  1.00 35.49     0.174 HD
ATOM     12  HH  ARG D 557     -23.858  -2.714 -13.327  1.00 35.49     0.174 HD
ATOM     13  HE  ARG D 557     -25.612  -0.374 -14.542  1.00 35.49     0.178 HD
ENDBRANCH   4   5
ENDBRANCH   3   4
ENDBRANCH   2   3
ENDBRANCH   1   2
END_RES ARG D 557
BEGIN_RES GLU D 570
REMARK  3 active torsions:
REMARK  status: ('A' for Active; 'I' for Inactive)
REMARK    5  A    between atoms: CA   and  CB  
REMARK    6  A    between atoms: CB   and  CG  
REMARK    7  A    between atoms: CG   and  CD  
ROOT
ATOM     14  CA  GLU D 570     -18.033  -6.348 -13.375  1.00 32.92     0.160 C 
ENDROOT
BRANCH  14  15
ATOM     15  CB  GLU D 570     -19.500  -6.345 -13.794  1.00 32.92     0.043 C 
BRANCH  15  16
ATOM     16  CG  GLU D 570     -20.446  -5.548 -12.970  1.00 32.92     0.100 C 
BRANCH  16  17
ATOM     17  CD  GLU D 570     -21.746  -5.257 -13.682  1.00 32.92     0.185 C 
ATOM     18  OE1 GLU D 570     -22.256  -6.142 -14.396  1.00 32.92    -0.647 OA
ATOM     19  OE2 GLU D 570     -22.252  -4.127 -13.536  1.00 32.92    -0.647 OA
ENDBRANCH  16  17
ENDBRANCH  15  16
ENDBRANCH  14  15
END_RES GLU D 570
ENDMDL
MODEL 9
REMARK VINA RESULT:      -0.9      4.668      4.668
REMARK  6 active torsions:
REMARK  status: ('A' for Active; 'I' for Inactive)
REMARK    1  A    between atoms: C_7  and  N_15 
REMARK    2  A    between atoms: C_10  and  S_11 
REMARK    3  A    between atoms: N_17  and  C_19 
REMARK    4  A    between atoms: C_23  and  S_34 
REMARK    5  A    between atoms: C_27  and  S_30 
REMARK    6  A    between atoms: C_28  and  O_29 
ROOT
HETATM    1 NA   UNL     2     -11.679 -14.913 -13.481  1.00  0.00     0.000 Na
ENDROOT
TORSDOF 6
BEGIN_RES ARG D 557
REMARK  4 active torsions:
REMARK  status: ('A' for Active; 'I' for Inactive)
REMARK    1  A    between atoms: CA   and  CB  
REMARK    2  A    between atoms: CB   and  CG  
REMARK    3  A    between atoms: CG   and  CD  
REMARK    4  A    between atoms: CD   and  NE  
REMARK       I    between atoms: NE   and  CZ  
REMARK       I    between atoms: CZ   and  NH1 
REMARK       I    between atoms: CZ   and  NH2 
ROOT
ATOM      1  CA  ARG D 557     -26.217   2.705 -17.014  1.00 35.49     0.159 C 
ENDROOT
BRANCH   1   2
ATOM      2  CB  ARG D 557     -26.789   1.319 -17.183  1.00 35.49     0.034 C 
BRANCH   2   3
ATOM      3  CG  ARG D 557     -25.834   0.204 -17.171  1.00 35.49     0.027 C 
BRANCH   3   4
ATOM      4  CD  ARG D 557     -24.738   0.410 -16.196  1.00 35.49     0.116 C 
BRANCH   4   5
ATOM      5  NE  ARG D 557     -24.886  -0.421 -15.030  1.00 35.49    -0.212 N 
ATOM      6  CZ  ARG D 557     -24.084  -1.401 -14.679  1.00 35.49     0.666 C 
ATOM      7  NH1 ARG D 557     -23.029  -1.745 -15.395  1.00 35.49    -0.235 N 
ATOM      8  NH2 ARG D 557     -24.359  -2.035 -13.577  1.00 35.49    -0.235 N 
ATOM      9  HH  ARG D 557     -22.828  -1.339 -16.122  1.00 35.49     0.174 HD
ATOM     10  HH  ARG D 557     -22.541  -2.391 -15.115  1.00 35.49     0.174 HD
ATOM     11  HH  ARG D 557     -25.042  -1.786 -13.131  1.00 35.49     0.174 HD
ATOM     12  HH  ARG D 557     -23.862  -2.671 -13.316  1.00 35.49     0.174 HD
ATOM     13  HE  ARG D 557     -25.580  -0.316 -14.550  1.00 35.49     0.178 HD
ENDBRANCH   4   5
ENDBRANCH   3   4
ENDBRANCH   2   3
ENDBRANCH   1   2
END_RES ARG D 557
BEGIN_RES GLU D 570
REMARK  3 active torsions:
REMARK  status: ('A' for Active; 'I' for Inactive)
REMARK    5  A    between atoms: CA   and  CB  
REMARK    6  A    between atoms: CB   and  CG  
REMARK    7  A    between atoms: CG   and  CD  
ROOT
ATOM     14  CA  GLU D 570     -18.033  -6.348 -13.375  1.00 32.92     0.160 C 
ENDROOT
BRANCH  14  15
ATOM     15  CB  GLU D 570     -19.500  -6.345 -13.794  1.00 32.92     0.043 C 
BRANCH  15  16
ATOM     16  CG  GLU D 570     -20.446  -5.548 -12.970  1.00 32.92     0.100 C 
BRANCH  16  17
ATOM     17  CD  GLU D 570     -21.736  -5.235 -13.691  1.00 32.92     0.185 C 
ATOM     18  OE1 GLU D 570     -22.248  -4.108 -13.554  1.00 32.92    -0.647 OA
ATOM     19  OE2 GLU D 570     -22.249  -6.133 -14.388  1.00 32.92    -0.647 OA
ENDBRANCH  16  17
ENDBRANCH  15  16
ENDBRANCH  14  15
END_RES GLU D 570
ENDMDL
