MODEL 1
REMARK VINA RESULT:      -9.1      0.000      0.000
REMARK  24 active torsions:
REMARK  status: ('A' for Active; 'I' for Inactive)
REMARK    1  A    between atoms: CG1_2  and  CB_3 
REMARK    2  A    between atoms: CB_3  and  CA_5 
REMARK    3  A    between atoms: CA_5  and  C_6 
REMARK    4  A    between atoms: CA_5  and  N_8 
REMARK       I    between atoms: C_6  and  N_11 
REMARK    5  A    between atoms: N_11  and  CA_12 
REMARK    6  A    between atoms: CA_12  and  CB_13 
REMARK    7  A    between atoms: CA_12  and  C_18 
REMARK    8  A    between atoms: CB_13  and  CG_14 
REMARK    9  A    between atoms: CG_14  and  CD_15 
REMARK       I    between atoms: CD_15  and  NE2_17 
REMARK       I    between atoms: C_18  and  N_23 
REMARK   10  A    between atoms: N_23  and  CA_24 
REMARK   11  A    between atoms: CA_24  and  C_26 
REMARK       I    between atoms: C_26  and  N_29 
REMARK   12  A    between atoms: N_29  and  CA_30 
REMARK   13  A    between atoms: CA_30  and  CB_31 
REMARK   14  A    between atoms: CA_30  and  C_33 
REMARK   15  A    between atoms: CB_31  and  SG_32 
REMARK       I    between atoms: C_33  and  N_37 
REMARK   16  A    between atoms: N_37  and  CA_38 
REMARK   17  A    between atoms: CA_38  and  CB_39 
REMARK   18  A    between atoms: CA_38  and  C_47 
REMARK   19  A    between atoms: CB_39  and  CG_40 
REMARK   20  A    between atoms: CG_40  and  CD_41 
REMARK   21  A    between atoms: CD_41  and  NE_42 
REMARK       I    between atoms: NE_42  and  CZ_44 
REMARK       I    between atoms: CZ_44  and  NH2_46 
REMARK       I    between atoms: C_47  and  N_54 
REMARK   22  A    between atoms: N_54  and  CA_55 
REMARK   23  A    between atoms: CA_55  and  C_56 
REMARK   24  A    between atoms: C_56  and  OXT_58 
ROOT
ATOM      1  C   ALA A   3     -31.961  -5.928 -16.996  1.00  0.00     0.240 C 
ATOM      2  O   ALA A   3     -32.544  -6.905 -17.459  1.00  0.00    -0.271 OA
ATOM      3  N   CYS A   4     -30.615  -5.926 -16.728  1.00  0.00    -0.345 N 
ATOM      4  H   CYS A   4     -30.242  -5.086 -16.286  1.00  0.00     0.163 HD
ENDROOT
BRANCH   3   5
ATOM      5  CA  CYS A   4     -29.691  -7.038 -16.855  1.00  0.00     0.185 C 
BRANCH   5   6
ATOM      6  CB  CYS A   4     -29.227  -7.171 -18.338  1.00  0.00     0.105 C 
BRANCH   6   7
ATOM      7  SG  CYS A   4     -28.676  -5.631 -19.169  1.00  0.00    -0.180 SA
ATOM      8  HG  CYS A   4     -29.844  -4.976 -19.110  1.00  0.00     0.101 HD
ENDBRANCH   6   7
ENDBRANCH   5   6
BRANCH   5   9
ATOM      9  C   CYS A   4     -28.380  -6.975 -15.940  1.00  0.00     0.241 C 
ATOM     10  O   CYS A   4     -28.547  -6.708 -14.745  1.00  0.00    -0.271 OA
ATOM     11  N   ARG A   5     -27.092  -7.072 -16.492  1.00  0.00    -0.346 N 
ATOM     12  H   ARG A   5     -27.044  -7.386 -17.455  1.00  0.00     0.163 HD
BRANCH  11  13
ATOM     13  CA  ARG A   5     -25.699  -6.884 -15.771  1.00  0.00     0.176 C 
BRANCH  13  14
ATOM     14  CB  ARG A   5     -24.598  -7.500 -16.642  1.00  0.00     0.036 C 
BRANCH  14  15
ATOM     15  CG  ARG A   5     -24.169  -6.623 -17.784  1.00  0.00     0.022 C 
BRANCH  15  16
ATOM     16  CD  ARG A   5     -24.736  -7.027 -19.133  1.00  0.00     0.122 C 
BRANCH  16  17
ATOM     17  NE  ARG A   5     -23.712  -7.899 -19.691  1.00  0.00    -0.367 N 
ATOM     18  CZ  ARG A   5     -23.734  -8.176 -20.926  1.00  0.00     0.143 C 
ATOM     19  NH1 ARG A   5     -24.619  -7.796 -21.873  1.00  0.00    -0.376 N 
ATOM     20  NH2 ARG A   5     -22.723  -8.945 -21.416  1.00  0.00    -0.274 NA
ATOM     21 HH11 ARG A   5     -25.478  -7.384 -21.528  1.00  0.00     0.158 HD
ATOM     22 HH12 ARG A   5     -24.754  -8.388 -22.678  1.00  0.00     0.158 HD
ATOM     23 HH21 ARG A   5     -22.128  -9.249 -20.658  1.00  0.00     0.127 HD
ATOM     24 HH22 ARG A   5     -22.981  -9.702 -22.048  1.00  0.00     0.127 HD
ATOM     25  HE  ARG A   5     -22.983  -8.284 -19.091  1.00  0.00     0.162 HD
ENDBRANCH  16  17
ENDBRANCH  15  16
ENDBRANCH  14  15
ENDBRANCH  13  14
BRANCH  13  26
ATOM     26  C   ARG A   5     -25.463  -5.323 -15.239  1.00  0.00     0.240 C 
ATOM     27  O   ARG A   5     -26.184  -4.478 -15.778  1.00  0.00    -0.271 OA
ATOM     28  N   GLY A   6     -24.583  -4.872 -14.231  1.00  0.00    -0.349 N 
ATOM     29  H   GLY A   6     -24.146  -5.599 -13.686  1.00  0.00     0.163 HD
BRANCH  28  30
ATOM     30  CA  GLY A   6     -23.796  -3.474 -13.942  1.00  0.00     0.232 C 
BRANCH  30  31
ATOM     31  C   GLY A   6     -23.576  -2.112 -14.802  1.00  0.00     0.158 C 
ATOM     32  O   GLY A   6     -24.288  -1.117 -14.748  1.00  0.00    -0.649 OA
BRANCH  31  33
ATOM     33  OXT GLY A   6     -22.525  -2.130 -15.694  1.00  0.00    -0.775 OA
ATOM     34  HXT GLY A   6     -22.587  -1.488 -16.435  1.00  0.00     0.167 HD
ENDBRANCH  31  33
ENDBRANCH  30  31
ENDBRANCH  28  30
ENDBRANCH  13  26
ENDBRANCH  11  13
ENDBRANCH   5   9
ENDBRANCH   3   5
BRANCH   1  35
ATOM     35  CA  ALA A   3     -32.705  -4.596 -16.663  1.00  0.00     0.172 C 
ATOM     36  CB  ALA A   3     -32.112  -3.368 -17.358  1.00  0.00     0.042 C 
BRANCH  35  37
ATOM     37  N   ALA A   3     -32.840  -4.376 -15.214  1.00  0.00    -0.346 N 
ATOM     38  C   GLN A   2     -33.925  -3.752 -14.652  1.00  0.00     0.241 C 
ATOM     39  O   GLN A   2     -34.743  -3.131 -15.337  1.00  0.00    -0.271 OA
ATOM     40  H   ALA A   3     -32.154  -4.831 -14.609  1.00  0.00     0.163 HD
BRANCH  38  41
ATOM     41  CA  GLN A   2     -34.072  -3.775 -13.130  1.00  0.00     0.177 C 
BRANCH  41  42
ATOM     42  N   GLN A   2     -35.008  -2.684 -12.849  1.00  0.00    -0.346 N 
ATOM     43  C   ILE A   1     -34.912  -1.665 -11.942  1.00  0.00     0.251 C 
ATOM     44  O   ILE A   1     -33.955  -1.387 -11.240  1.00  0.00    -0.271 OA
ATOM     45  H   GLN A   2     -35.960  -3.020 -13.000  1.00  0.00     0.163 HD
BRANCH  43  46
ATOM     46  CA  ILE A   1     -36.181  -0.748 -11.943  1.00  0.00     0.312 C 
BRANCH  46  47
ATOM     47  CB  ILE A   1     -36.302   0.228 -13.104  1.00  0.00     0.023 C 
ATOM     48  CG2 ILE A   1     -37.225  -0.250 -14.247  1.00  0.00     0.012 C 
BRANCH  47  49
ATOM     49  CG1 ILE A   1     -34.868   0.429 -13.562  1.00  0.00     0.002 C 
ATOM     50  CD1 ILE A   1     -34.742   0.898 -14.982  1.00  0.00     0.005 C 
ENDBRANCH  47  49
ENDBRANCH  46  47
BRANCH  46  51
ATOM     51  N   ILE A   1     -36.023  -0.024 -10.715  1.00  0.00     0.092 N 
ATOM     52  H1  ILE A   1     -36.738   0.709 -10.751  1.00  0.00     0.313 HD
ATOM     53  H2  ILE A   1     -35.200   0.609 -10.848  1.00  0.00     0.313 HD
ENDBRANCH  46  51
ENDBRANCH  43  46
ENDBRANCH  41  42
BRANCH  41  54
ATOM     54  CB  GLN A   2     -34.581  -5.048 -12.493  1.00  0.00     0.044 C 
BRANCH  54  55
ATOM     55  CG  GLN A   2     -34.607  -5.089 -10.987  1.00  0.00     0.105 C 
BRANCH  55  56
ATOM     56  CD  GLN A   2     -34.260  -6.457 -10.496  1.00  0.00     0.215 C 
ATOM     57  OE1 GLN A   2     -35.012  -7.095  -9.767  1.00  0.00    -0.274 OA
ATOM     58  NE2 GLN A   2     -33.097  -6.954 -10.985  1.00  0.00    -0.370 N 
ATOM     59 1HE2 GLN A   2     -32.596  -6.518 -11.744  1.00  0.00     0.159 HD
ATOM     60 2HE2 GLN A   2     -32.850  -7.914 -10.746  1.00  0.00     0.159 HD
ENDBRANCH  55  56
ENDBRANCH  54  55
ENDBRANCH  41  54
ENDBRANCH  38  41
ENDBRANCH  35  37
ENDBRANCH   1  35
TORSDOF 24
BEGIN_RES ARG D 557
REMARK  4 active torsions:
REMARK  status: ('A' for Active; 'I' for Inactive)
REMARK    1  A    between atoms: CA   and  CB  
REMARK    2  A    between atoms: CB   and  CG  
REMARK    3  A    between atoms: CG   and  CD  
REMARK    4  A    between atoms: CD   and  NE  
REMARK       I    between atoms: NE   and  CZ  
REMARK       I    between atoms: CZ   and  NH1 
REMARK       I    between atoms: CZ   and  NH2 
ROOT
ATOM      1  CA  ARG D 557     -26.217   2.705 -17.014  1.00 35.49     0.159 C 
ENDROOT
BRANCH   1   2
ATOM      2  CB  ARG D 557     -26.789   1.319 -17.183  1.00 35.49     0.034 C 
BRANCH   2   3
ATOM      3  CG  ARG D 557     -28.203   1.230 -17.568  1.00 35.49     0.027 C 
BRANCH   3   4
ATOM      4  CD  ARG D 557     -28.996   0.417 -16.618  1.00 35.49     0.116 C 
BRANCH   4   5
ATOM      5  NE  ARG D 557     -29.051  -0.968 -17.004  1.00 35.49    -0.212 N 
ATOM      6  CZ  ARG D 557     -28.214  -1.906 -16.621  1.00 35.49     0.666 C 
ATOM      7  NH1 ARG D 557     -27.191  -1.661 -15.824  1.00 35.49    -0.235 N 
ATOM      8  NH2 ARG D 557     -28.428  -3.115 -17.054  1.00 35.49    -0.235 N 
ATOM      9  HH  ARG D 557     -27.032  -0.874 -15.526  1.00 35.49     0.174 HD
ATOM     10  HH  ARG D 557     -26.680  -2.313 -15.606  1.00 35.49     0.174 HD
ATOM     11  HH  ARG D 557     -29.101  -3.245 -17.561  1.00 35.49     0.174 HD
ATOM     12  HH  ARG D 557     -27.912  -3.748 -16.825  1.00 35.49     0.174 HD
ATOM     13  HE  ARG D 557     -29.637  -1.201 -17.575  1.00 35.49     0.178 HD
ENDBRANCH   4   5
ENDBRANCH   3   4
ENDBRANCH   2   3
ENDBRANCH   1   2
END_RES ARG D 557
BEGIN_RES GLU D 570
REMARK  3 active torsions:
REMARK  status: ('A' for Active; 'I' for Inactive)
REMARK    5  A    between atoms: CA   and  CB  
REMARK    6  A    between atoms: CB   and  CG  
REMARK    7  A    between atoms: CG   and  CD  
ROOT
ATOM     14  CA  GLU D 570     -18.033  -6.348 -13.375  1.00 32.92     0.160 C 
ENDROOT
BRANCH  14  15
ATOM     15  CB  GLU D 570     -19.500  -6.345 -13.794  1.00 32.92     0.043 C 
BRANCH  15  16
ATOM     16  CG  GLU D 570     -19.805  -6.047 -15.217  1.00 32.92     0.100 C 
BRANCH  16  17
ATOM     17  CD  GLU D 570     -21.268  -5.760 -15.459  1.00 32.92     0.185 C 
ATOM     18  OE1 GLU D 570     -21.585  -4.888 -16.290  1.00 32.92    -0.647 OA
ATOM     19  OE2 GLU D 570     -22.107  -6.404 -14.798  1.00 32.92    -0.647 OA
ENDBRANCH  16  17
ENDBRANCH  15  16
ENDBRANCH  14  15
END_RES GLU D 570
ENDMDL
MODEL 2
REMARK VINA RESULT:      -9.0      7.519     12.477
REMARK  24 active torsions:
REMARK  status: ('A' for Active; 'I' for Inactive)
REMARK    1  A    between atoms: CG1_2  and  CB_3 
REMARK    2  A    between atoms: CB_3  and  CA_5 
REMARK    3  A    between atoms: CA_5  and  C_6 
REMARK    4  A    between atoms: CA_5  and  N_8 
REMARK       I    between atoms: C_6  and  N_11 
REMARK    5  A    between atoms: N_11  and  CA_12 
REMARK    6  A    between atoms: CA_12  and  CB_13 
REMARK    7  A    between atoms: CA_12  and  C_18 
REMARK    8  A    between atoms: CB_13  and  CG_14 
REMARK    9  A    between atoms: CG_14  and  CD_15 
REMARK       I    between atoms: CD_15  and  NE2_17 
REMARK       I    between atoms: C_18  and  N_23 
REMARK   10  A    between atoms: N_23  and  CA_24 
REMARK   11  A    between atoms: CA_24  and  C_26 
REMARK       I    between atoms: C_26  and  N_29 
REMARK   12  A    between atoms: N_29  and  CA_30 
REMARK   13  A    between atoms: CA_30  and  CB_31 
REMARK   14  A    between atoms: CA_30  and  C_33 
REMARK   15  A    between atoms: CB_31  and  SG_32 
REMARK       I    between atoms: C_33  and  N_37 
REMARK   16  A    between atoms: N_37  and  CA_38 
REMARK   17  A    between atoms: CA_38  and  CB_39 
REMARK   18  A    between atoms: CA_38  and  C_47 
REMARK   19  A    between atoms: CB_39  and  CG_40 
REMARK   20  A    between atoms: CG_40  and  CD_41 
REMARK   21  A    between atoms: CD_41  and  NE_42 
REMARK       I    between atoms: NE_42  and  CZ_44 
REMARK       I    between atoms: CZ_44  and  NH2_46 
REMARK       I    between atoms: C_47  and  N_54 
REMARK   22  A    between atoms: N_54  and  CA_55 
REMARK   23  A    between atoms: CA_55  and  C_56 
REMARK   24  A    between atoms: C_56  and  OXT_58 
ROOT
ATOM      1  C   ALA A   3     -22.096  -4.543  -7.259  1.00  0.00     0.240 C 
ATOM      2  O   ALA A   3     -23.201  -4.503  -6.724  1.00  0.00    -0.271 OA
ATOM      3  N   CYS A   4     -21.932  -4.522  -8.621  1.00  0.00    -0.345 N 
ATOM      4  H   CYS A   4     -20.976  -4.623  -8.965  1.00  0.00     0.163 HD
ENDROOT
BRANCH   3   5
ATOM      5  CA  CYS A   4     -22.971  -4.531  -9.634  1.00  0.00     0.185 C 
BRANCH   5   6
ATOM      6  CB  CYS A   4     -23.765  -3.189  -9.589  1.00  0.00     0.105 C 
BRANCH   6   7
ATOM      7  SG  CYS A   4     -25.590  -3.309  -9.733  1.00  0.00    -0.180 SA
ATOM      8  HG  CYS A   4     -25.813  -2.053 -10.145  1.00  0.00     0.101 HD
ENDBRANCH   6   7
ENDBRANCH   5   6
BRANCH   5   9
ATOM      9  C   CYS A   4     -22.487  -4.759 -11.142  1.00  0.00     0.241 C 
ATOM     10  O   CYS A   4     -21.366  -4.330 -11.438  1.00  0.00    -0.271 OA
ATOM     11  N   ARG A   5     -23.348  -5.285 -12.119  1.00  0.00    -0.346 N 
ATOM     12  H   ARG A   5     -24.208  -5.700 -11.777  1.00  0.00     0.163 HD
BRANCH  11  13
ATOM     13  CA  ARG A   5     -23.094  -5.439 -13.671  1.00  0.00     0.176 C 
BRANCH  13  14
ATOM     14  CB  ARG A   5     -23.896  -6.634 -14.194  1.00  0.00     0.036 C 
BRANCH  14  15
ATOM     15  CG  ARG A   5     -23.836  -6.796 -15.686  1.00  0.00     0.022 C 
BRANCH  15  16
ATOM     16  CD  ARG A   5     -25.146  -7.224 -16.325  1.00  0.00     0.122 C 
BRANCH  16  17
ATOM     17  NE  ARG A   5     -26.043  -6.111 -16.053  1.00  0.00    -0.367 N 
ATOM     18  CZ  ARG A   5     -27.278  -6.332 -15.885  1.00  0.00     0.143 C 
ATOM     19  NH1 ARG A   5     -27.955  -7.499 -15.945  1.00  0.00    -0.376 N 
ATOM     20  NH2 ARG A   5     -28.071  -5.270 -15.572  1.00  0.00    -0.274 NA
ATOM     21 HH11 ARG A   5     -27.449  -8.277 -16.353  1.00  0.00     0.158 HD
ATOM     22 HH12 ARG A   5     -28.932  -7.483 -16.194  1.00  0.00     0.158 HD
ATOM     23 HH21 ARG A   5     -27.526  -4.419 -15.600  1.00  0.00     0.127 HD
ATOM     24 HH22 ARG A   5     -28.958  -5.191 -16.067  1.00  0.00     0.127 HD
ATOM     25  HE  ARG A   5     -25.680  -5.160 -15.998  1.00  0.00     0.162 HD
ENDBRANCH  16  17
ENDBRANCH  15  16
ENDBRANCH  14  15
ENDBRANCH  13  14
BRANCH  13  26
ATOM     26  C   ARG A   5     -23.259  -3.996 -14.488  1.00  0.00     0.240 C 
ATOM     27  O   ARG A   5     -22.346  -3.742 -15.280  1.00  0.00    -0.271 OA
ATOM     28  N   GLY A   6     -24.324  -3.073 -14.415  1.00  0.00    -0.349 N 
ATOM     29  H   GLY A   6     -25.134  -3.391 -13.906  1.00  0.00     0.163 HD
BRANCH  28  30
ATOM     30  CA  GLY A   6     -24.458  -1.462 -14.632  1.00  0.00     0.232 C 
BRANCH  30  31
ATOM     31  C   GLY A   6     -23.654  -0.382 -15.542  1.00  0.00     0.158 C 
ATOM     32  O   GLY A   6     -23.985   0.785 -15.715  1.00  0.00    -0.649 OA
BRANCH  31  33
ATOM     33  OXT GLY A   6     -22.542  -0.862 -16.201  1.00  0.00    -0.775 OA
ATOM     34  HXT GLY A   6     -21.723  -0.921 -15.661  1.00  0.00     0.167 HD
ENDBRANCH  31  33
ENDBRANCH  30  31
ENDBRANCH  28  30
ENDBRANCH  13  26
ENDBRANCH  11  13
ENDBRANCH   5   9
ENDBRANCH   3   5
BRANCH   1  35
ATOM     35  CA  ALA A   3     -20.773  -4.627  -6.433  1.00  0.00     0.172 C 
ATOM     36  CB  ALA A   3     -19.527  -4.864  -7.288  1.00  0.00     0.042 C 
BRANCH  35  37
ATOM     37  N   ALA A   3     -20.860  -5.602  -5.334  1.00  0.00    -0.346 N 
ATOM     38  C   GLN A   2     -20.986  -6.952  -5.543  1.00  0.00     0.241 C 
ATOM     39  O   GLN A   2     -21.266  -7.413  -6.653  1.00  0.00    -0.271 OA
ATOM     40  H   ALA A   3     -20.685  -5.254  -4.389  1.00  0.00     0.163 HD
BRANCH  38  41
ATOM     41  CA  GLN A   2     -20.842  -7.891  -4.345  1.00  0.00     0.177 C 
BRANCH  41  42
ATOM     42  N   GLN A   2     -19.771  -8.808  -4.741  1.00  0.00    -0.346 N 
ATOM     43  C   ILE A   1     -19.614 -10.138  -4.465  1.00  0.00     0.251 C 
ATOM     44  O   ILE A   1     -20.409 -10.876  -3.909  1.00  0.00    -0.271 OA
ATOM     45  H   GLN A   2     -18.894  -8.287  -4.794  1.00  0.00     0.163 HD
BRANCH  43  46
ATOM     46  CA  ILE A   1     -18.281 -10.713  -5.048  1.00  0.00     0.312 C 
BRANCH  46  47
ATOM     47  CB  ILE A   1     -17.011  -9.949  -4.699  1.00  0.00     0.023 C 
ATOM     48  CG2 ILE A   1     -15.704 -10.647  -5.139  1.00  0.00     0.012 C 
BRANCH  47  49
ATOM     49  CG1 ILE A   1     -17.095  -9.772  -3.193  1.00  0.00     0.002 C 
ATOM     50  CD1 ILE A   1     -15.769  -9.855  -2.495  1.00  0.00     0.005 C 
ENDBRANCH  47  49
ENDBRANCH  46  47
BRANCH  46  51
ATOM     51  N   ILE A   1     -18.518 -10.636  -6.461  1.00  0.00     0.092 N 
ATOM     52  H1  ILE A   1     -17.892  -9.896  -6.791  1.00  0.00     0.313 HD
ATOM     53  H2  ILE A   1     -19.409 -10.100  -6.583  1.00  0.00     0.313 HD
ENDBRANCH  46  51
ENDBRANCH  43  46
ENDBRANCH  41  42
BRANCH  41  54
ATOM     54  CB  GLN A   2     -20.504  -7.276  -3.005  1.00  0.00     0.044 C 
BRANCH  54  55
ATOM     55  CG  GLN A   2     -21.198  -7.853  -1.799  1.00  0.00     0.105 C 
BRANCH  55  56
ATOM     56  CD  GLN A   2     -22.242  -6.908  -1.297  1.00  0.00     0.215 C 
ATOM     57  OE1 GLN A   2     -22.959  -7.183  -0.340  1.00  0.00    -0.274 OA
ATOM     58  NE2 GLN A   2     -22.270  -5.710  -1.929  1.00  0.00    -0.370 N 
ATOM     59 1HE2 GLN A   2     -21.544  -5.412  -2.563  1.00  0.00     0.159 HD
ATOM     60 2HE2 GLN A   2     -22.909  -4.998  -1.574  1.00  0.00     0.159 HD
ENDBRANCH  55  56
ENDBRANCH  54  55
ENDBRANCH  41  54
ENDBRANCH  38  41
ENDBRANCH  35  37
ENDBRANCH   1  35
TORSDOF 24
BEGIN_RES ARG D 557
REMARK  4 active torsions:
REMARK  status: ('A' for Active; 'I' for Inactive)
REMARK    1  A    between atoms: CA   and  CB  
REMARK    2  A    between atoms: CB   and  CG  
REMARK    3  A    between atoms: CG   and  CD  
REMARK    4  A    between atoms: CD   and  NE  
REMARK       I    between atoms: NE   and  CZ  
REMARK       I    between atoms: CZ   and  NH1 
REMARK       I    between atoms: CZ   and  NH2 
ROOT
ATOM      1  CA  ARG D 557     -26.217   2.705 -17.014  1.00 35.49     0.159 C 
ENDROOT
BRANCH   1   2
ATOM      2  CB  ARG D 557     -26.789   1.319 -17.183  1.00 35.49     0.034 C 
BRANCH   2   3
ATOM      3  CG  ARG D 557     -28.237   1.225 -17.407  1.00 35.49     0.027 C 
BRANCH   3   4
ATOM      4  CD  ARG D 557     -28.892   0.283 -16.472  1.00 35.49     0.116 C 
BRANCH   4   5
ATOM      5  NE  ARG D 557     -29.298  -0.935 -17.123  1.00 35.49    -0.212 N 
ATOM      6  CZ  ARG D 557     -28.677  -2.091 -17.045  1.00 35.49     0.666 C 
ATOM      7  NH1 ARG D 557     -27.569  -2.255 -16.347  1.00 35.49    -0.235 N 
ATOM      8  NH2 ARG D 557     -29.199  -3.097 -17.685  1.00 35.49    -0.235 N 
ATOM      9  HH  ARG D 557     -27.209  -1.608 -15.916  1.00 35.49     0.174 HD
ATOM     10  HH  ARG D 557     -27.210  -3.033 -16.330  1.00 35.49     0.174 HD
ATOM     11  HH  ARG D 557     -29.919  -2.963 -18.122  1.00 35.49     0.174 HD
ATOM     12  HH  ARG D 557     -28.830  -3.859 -17.656  1.00 35.49     0.174 HD
ATOM     13  HE  ARG D 557     -29.962  -0.902 -17.653  1.00 35.49     0.178 HD
ENDBRANCH   4   5
ENDBRANCH   3   4
ENDBRANCH   2   3
ENDBRANCH   1   2
END_RES ARG D 557
BEGIN_RES GLU D 570
REMARK  3 active torsions:
REMARK  status: ('A' for Active; 'I' for Inactive)
REMARK    5  A    between atoms: CA   and  CB  
REMARK    6  A    between atoms: CB   and  CG  
REMARK    7  A    between atoms: CG   and  CD  
ROOT
ATOM     14  CA  GLU D 570     -18.033  -6.348 -13.375  1.00 32.92     0.160 C 
ENDROOT
BRANCH  14  15
ATOM     15  CB  GLU D 570     -19.500  -6.345 -13.794  1.00 32.92     0.043 C 
BRANCH  15  16
ATOM     16  CG  GLU D 570     -20.084  -7.632 -14.251  1.00 32.92     0.100 C 
BRANCH  16  17
ATOM     17  CD  GLU D 570     -20.484  -7.614 -15.708  1.00 32.92     0.185 C 
ATOM     18  OE1 GLU D 570     -20.825  -8.680 -16.256  1.00 32.92    -0.647 OA
ATOM     19  OE2 GLU D 570     -20.440  -6.524 -16.312  1.00 32.92    -0.647 OA
ENDBRANCH  16  17
ENDBRANCH  15  16
ENDBRANCH  14  15
END_RES GLU D 570
ENDMDL
MODEL 3
REMARK VINA RESULT:      -8.3      1.904      4.047
REMARK  24 active torsions:
REMARK  status: ('A' for Active; 'I' for Inactive)
REMARK    1  A    between atoms: CG1_2  and  CB_3 
REMARK    2  A    between atoms: CB_3  and  CA_5 
REMARK    3  A    between atoms: CA_5  and  C_6 
REMARK    4  A    between atoms: CA_5  and  N_8 
REMARK       I    between atoms: C_6  and  N_11 
REMARK    5  A    between atoms: N_11  and  CA_12 
REMARK    6  A    between atoms: CA_12  and  CB_13 
REMARK    7  A    between atoms: CA_12  and  C_18 
REMARK    8  A    between atoms: CB_13  and  CG_14 
REMARK    9  A    between atoms: CG_14  and  CD_15 
REMARK       I    between atoms: CD_15  and  NE2_17 
REMARK       I    between atoms: C_18  and  N_23 
REMARK   10  A    between atoms: N_23  and  CA_24 
REMARK   11  A    between atoms: CA_24  and  C_26 
REMARK       I    between atoms: C_26  and  N_29 
REMARK   12  A    between atoms: N_29  and  CA_30 
REMARK   13  A    between atoms: CA_30  and  CB_31 
REMARK   14  A    between atoms: CA_30  and  C_33 
REMARK   15  A    between atoms: CB_31  and  SG_32 
REMARK       I    between atoms: C_33  and  N_37 
REMARK   16  A    between atoms: N_37  and  CA_38 
REMARK   17  A    between atoms: CA_38  and  CB_39 
REMARK   18  A    between atoms: CA_38  and  C_47 
REMARK   19  A    between atoms: CB_39  and  CG_40 
REMARK   20  A    between atoms: CG_40  and  CD_41 
REMARK   21  A    between atoms: CD_41  and  NE_42 
REMARK       I    between atoms: NE_42  and  CZ_44 
REMARK       I    between atoms: CZ_44  and  NH2_46 
REMARK       I    between atoms: C_47  and  N_54 
REMARK   22  A    between atoms: N_54  and  CA_55 
REMARK   23  A    between atoms: CA_55  and  C_56 
REMARK   24  A    between atoms: C_56  and  OXT_58 
ROOT
ATOM      1  C   ALA A   3     -31.776  -5.863 -16.862  1.00  0.00     0.240 C 
ATOM      2  O   ALA A   3     -32.199  -6.985 -17.129  1.00  0.00    -0.271 OA
ATOM      3  N   CYS A   4     -30.456  -5.619 -16.576  1.00  0.00    -0.345 N 
ATOM      4  H   CYS A   4     -30.220  -4.663 -16.306  1.00  0.00     0.163 HD
ENDROOT
BRANCH   3   5
ATOM      5  CA  CYS A   4     -29.385  -6.592 -16.459  1.00  0.00     0.185 C 
BRANCH   5   6
ATOM      6  CB  CYS A   4     -29.728  -7.858 -17.303  1.00  0.00     0.105 C 
BRANCH   6   7
ATOM      7  SG  CYS A   4     -29.473  -7.731 -19.116  1.00  0.00    -0.180 SA
ATOM      8  HG  CYS A   4     -29.538  -6.395 -19.205  1.00  0.00     0.101 HD
ENDBRANCH   6   7
ENDBRANCH   5   6
BRANCH   5   9
ATOM      9  C   CYS A   4     -27.928  -6.096 -16.897  1.00  0.00     0.241 C 
ATOM     10  O   CYS A   4     -27.872  -5.067 -17.579  1.00  0.00    -0.271 OA
ATOM     11  N   ARG A   5     -26.783  -6.868 -16.646  1.00  0.00    -0.346 N 
ATOM     12  H   ARG A   5     -26.901  -7.642 -16.001  1.00  0.00     0.163 HD
BRANCH  11  13
ATOM     13  CA  ARG A   5     -25.301  -6.612 -17.131  1.00  0.00     0.176 C 
BRANCH  13  14
ATOM     14  CB  ARG A   5     -24.332  -7.305 -16.167  1.00  0.00     0.036 C 
BRANCH  14  15
ATOM     15  CG  ARG A   5     -24.190  -6.605 -14.846  1.00  0.00     0.022 C 
BRANCH  15  16
ATOM     16  CD  ARG A   5     -23.338  -5.349 -14.887  1.00  0.00     0.122 C 
BRANCH  16  17
ATOM     17  NE  ARG A   5     -24.162  -4.349 -14.224  1.00  0.00    -0.367 N 
ATOM     18  CZ  ARG A   5     -23.608  -3.424 -13.562  1.00  0.00     0.143 C 
ATOM     19  NH1 ARG A   5     -22.296  -3.206 -13.328  1.00  0.00    -0.376 N 
ATOM     20  NH2 ARG A   5     -24.414  -2.476 -13.010  1.00  0.00    -0.274 NA
ATOM     21 HH11 ARG A   5     -21.678  -3.976 -13.556  1.00  0.00     0.158 HD
ATOM     22 HH12 ARG A   5     -22.027  -2.711 -12.491  1.00  0.00     0.158 HD
ATOM     23 HH21 ARG A   5     -25.383  -2.721 -13.164  1.00  0.00     0.127 HD
ATOM     24 HH22 ARG A   5     -24.221  -2.206 -12.047  1.00  0.00     0.127 HD
ATOM     25  HE  ARG A   5     -25.178  -4.394 -14.293  1.00  0.00     0.162 HD
ENDBRANCH  16  17
ENDBRANCH  15  16
ENDBRANCH  14  15
ENDBRANCH  13  14
BRANCH  13  26
ATOM     26  C   ARG A   5     -25.102  -6.915 -18.758  1.00  0.00     0.240 C 
ATOM     27  O   ARG A   5     -26.107  -6.716 -19.447  1.00  0.00    -0.271 OA
ATOM     28  N   GLY A   6     -23.930  -7.321 -19.429  1.00  0.00    -0.349 N 
ATOM     29  H   GLY A   6     -23.087  -7.297 -18.876  1.00  0.00     0.163 HD
BRANCH  28  30
ATOM     30  CA  GLY A   6     -23.625  -8.176 -20.784  1.00  0.00     0.232 C 
BRANCH  30  31
ATOM     31  C   GLY A   6     -22.266  -8.746 -21.470  1.00  0.00     0.158 C 
ATOM     32  O   GLY A   6     -22.165  -9.128 -22.630  1.00  0.00    -0.649 OA
BRANCH  31  33
ATOM     33  OXT GLY A   6     -21.171  -8.844 -20.639  1.00  0.00    -0.775 OA
ATOM     34  HXT GLY A   6     -20.887  -8.005 -20.213  1.00  0.00     0.167 HD
ENDBRANCH  31  33
ENDBRANCH  30  31
ENDBRANCH  28  30
ENDBRANCH  13  26
ENDBRANCH  11  13
ENDBRANCH   5   9
ENDBRANCH   3   5
BRANCH   1  35
ATOM     35  CA  ALA A   3     -32.707  -4.610 -16.819  1.00  0.00     0.172 C 
ATOM     36  CB  ALA A   3     -32.280  -3.493 -17.774  1.00  0.00     0.042 C 
BRANCH  35  37
ATOM     37  N   ALA A   3     -32.898  -4.101 -15.452  1.00  0.00    -0.346 N 
ATOM     38  C   GLN A   2     -33.975  -4.442 -14.673  1.00  0.00     0.241 C 
ATOM     39  O   GLN A   2     -34.964  -5.008 -15.147  1.00  0.00    -0.271 OA
ATOM     40  H   ALA A   3     -32.122  -3.582 -15.037  1.00  0.00     0.163 HD
BRANCH  38  41
ATOM     41  CA  GLN A   2     -33.963  -4.041 -13.198  1.00  0.00     0.177 C 
BRANCH  41  42
ATOM     42  N   GLN A   2     -34.713  -2.783 -13.167  1.00  0.00    -0.346 N 
ATOM     43  C   ILE A   1     -34.731  -1.800 -12.217  1.00  0.00     0.251 C 
ATOM     44  O   ILE A   1     -34.026  -1.717 -11.226  1.00  0.00    -0.271 OA
ATOM     45  H   GLN A   2     -35.607  -2.922 -13.640  1.00  0.00     0.163 HD
BRANCH  43  46
ATOM     46  CA  ILE A   1     -35.729  -0.648 -12.572  1.00  0.00     0.312 C 
BRANCH  46  47
ATOM     47  CB  ILE A   1     -35.901  -0.344 -14.053  1.00  0.00     0.023 C 
ATOM     48  CG2 ILE A   1     -35.122   0.897 -14.546  1.00  0.00     0.012 C 
BRANCH  47  49
ATOM     49  CG1 ILE A   1     -37.402  -0.189 -14.221  1.00  0.00     0.002 C 
ATOM     50  CD1 ILE A   1     -37.804   0.531 -15.476  1.00  0.00     0.005 C 
ENDBRANCH  47  49
ENDBRANCH  46  47
BRANCH  46  51
ATOM     51  N   ILE A   1     -35.129   0.476 -11.913  1.00  0.00     0.092 N 
ATOM     52  H1  ILE A   1     -35.617   1.293 -12.295  1.00  0.00     0.313 HD
ATOM     53  H2  ILE A   1     -34.216   0.650 -12.395  1.00  0.00     0.313 HD
ENDBRANCH  46  51
ENDBRANCH  43  46
ENDBRANCH  41  42
BRANCH  41  54
ATOM     54  CB  GLN A   2     -34.564  -5.007 -12.202  1.00  0.00     0.044 C 
BRANCH  54  55
ATOM     55  CG  GLN A   2     -33.613  -5.665 -11.237  1.00  0.00     0.105 C 
BRANCH  55  56
ATOM     56  CD  GLN A   2     -34.324  -6.702 -10.429  1.00  0.00     0.215 C 
ATOM     57  OE1 GLN A   2     -35.315  -6.434  -9.758  1.00  0.00    -0.274 OA
ATOM     58  NE2 GLN A   2     -33.833  -7.958 -10.567  1.00  0.00    -0.370 N 
ATOM     59 1HE2 GLN A   2     -33.163  -8.205 -11.279  1.00  0.00     0.159 HD
ATOM     60 2HE2 GLN A   2     -34.330  -8.717 -10.101  1.00  0.00     0.159 HD
ENDBRANCH  55  56
ENDBRANCH  54  55
ENDBRANCH  41  54
ENDBRANCH  38  41
ENDBRANCH  35  37
ENDBRANCH   1  35
TORSDOF 24
BEGIN_RES ARG D 557
REMARK  4 active torsions:
REMARK  status: ('A' for Active; 'I' for Inactive)
REMARK    1  A    between atoms: CA   and  CB  
REMARK    2  A    between atoms: CB   and  CG  
REMARK    3  A    between atoms: CG   and  CD  
REMARK    4  A    between atoms: CD   and  NE  
REMARK       I    between atoms: NE   and  CZ  
REMARK       I    between atoms: CZ   and  NH1 
REMARK       I    between atoms: CZ   and  NH2 
ROOT
ATOM      1  CA  ARG D 557     -26.217   2.705 -17.014  1.00 35.49     0.159 C 
ENDROOT
BRANCH   1   2
ATOM      2  CB  ARG D 557     -26.789   1.319 -17.183  1.00 35.49     0.034 C 
BRANCH   2   3
ATOM      3  CG  ARG D 557     -28.236   1.225 -17.409  1.00 35.49     0.027 C 
BRANCH   3   4
ATOM      4  CD  ARG D 557     -28.892   0.277 -16.480  1.00 35.49     0.116 C 
BRANCH   4   5
ATOM      5  NE  ARG D 557     -27.994  -0.756 -16.036  1.00 35.49    -0.212 N 
ATOM      6  CZ  ARG D 557     -27.994  -2.004 -16.449  1.00 35.49     0.666 C 
ATOM      7  NH1 ARG D 557     -28.860  -2.456 -17.338  1.00 35.49    -0.235 N 
ATOM      8  NH2 ARG D 557     -27.092  -2.800 -15.954  1.00 35.49    -0.235 N 
ATOM      9  HH  ARG D 557     -29.460  -1.949 -17.679  1.00 35.49     0.174 HD
ATOM     10  HH  ARG D 557     -28.810  -3.279 -17.572  1.00 35.49     0.174 HD
ATOM     11  HH  ARG D 557     -26.542  -2.479 -15.387  1.00 35.49     0.174 HD
ATOM     12  HH  ARG D 557     -27.058  -3.611 -16.199  1.00 35.49     0.174 HD
ATOM     13  HE  ARG D 557     -27.450  -0.570 -15.409  1.00 35.49     0.178 HD
ENDBRANCH   4   5
ENDBRANCH   3   4
ENDBRANCH   2   3
ENDBRANCH   1   2
END_RES ARG D 557
BEGIN_RES GLU D 570
REMARK  3 active torsions:
REMARK  status: ('A' for Active; 'I' for Inactive)
REMARK    5  A    between atoms: CA   and  CB  
REMARK    6  A    between atoms: CB   and  CG  
REMARK    7  A    between atoms: CG   and  CD  
ROOT
ATOM     14  CA  GLU D 570     -18.033  -6.348 -13.375  1.00 32.92     0.160 C 
ENDROOT
BRANCH  14  15
ATOM     15  CB  GLU D 570     -19.500  -6.345 -13.794  1.00 32.92     0.043 C 
BRANCH  15  16
ATOM     16  CG  GLU D 570     -20.097  -7.642 -14.207  1.00 32.92     0.100 C 
BRANCH  16  17
ATOM     17  CD  GLU D 570     -20.577  -7.640 -15.639  1.00 32.92     0.185 C 
ATOM     18  OE1 GLU D 570     -20.452  -6.603 -16.318  1.00 32.92    -0.647 OA
ATOM     19  OE2 GLU D 570     -21.101  -8.681 -16.082  1.00 32.92    -0.647 OA
ENDBRANCH  16  17
ENDBRANCH  15  16
ENDBRANCH  14  15
END_RES GLU D 570
ENDMDL
MODEL 4
REMARK VINA RESULT:      -8.0      8.087     12.552
REMARK  24 active torsions:
REMARK  status: ('A' for Active; 'I' for Inactive)
REMARK    1  A    between atoms: CG1_2  and  CB_3 
REMARK    2  A    between atoms: CB_3  and  CA_5 
REMARK    3  A    between atoms: CA_5  and  C_6 
REMARK    4  A    between atoms: CA_5  and  N_8 
REMARK       I    between atoms: C_6  and  N_11 
REMARK    5  A    between atoms: N_11  and  CA_12 
REMARK    6  A    between atoms: CA_12  and  CB_13 
REMARK    7  A    between atoms: CA_12  and  C_18 
REMARK    8  A    between atoms: CB_13  and  CG_14 
REMARK    9  A    between atoms: CG_14  and  CD_15 
REMARK       I    between atoms: CD_15  and  NE2_17 
REMARK       I    between atoms: C_18  and  N_23 
REMARK   10  A    between atoms: N_23  and  CA_24 
REMARK   11  A    between atoms: CA_24  and  C_26 
REMARK       I    between atoms: C_26  and  N_29 
REMARK   12  A    between atoms: N_29  and  CA_30 
REMARK   13  A    between atoms: CA_30  and  CB_31 
REMARK   14  A    between atoms: CA_30  and  C_33 
REMARK   15  A    between atoms: CB_31  and  SG_32 
REMARK       I    between atoms: C_33  and  N_37 
REMARK   16  A    between atoms: N_37  and  CA_38 
REMARK   17  A    between atoms: CA_38  and  CB_39 
REMARK   18  A    between atoms: CA_38  and  C_47 
REMARK   19  A    between atoms: CB_39  and  CG_40 
REMARK   20  A    between atoms: CG_40  and  CD_41 
REMARK   21  A    between atoms: CD_41  and  NE_42 
REMARK       I    between atoms: NE_42  and  CZ_44 
REMARK       I    between atoms: CZ_44  and  NH2_46 
REMARK       I    between atoms: C_47  and  N_54 
REMARK   22  A    between atoms: N_54  and  CA_55 
REMARK   23  A    between atoms: CA_55  and  C_56 
REMARK   24  A    between atoms: C_56  and  OXT_58 
ROOT
ATOM      1  C   ALA A   3     -22.119  -5.190  -6.584  1.00  0.00     0.240 C 
ATOM      2  O   ALA A   3     -23.222  -5.149  -6.046  1.00  0.00    -0.271 OA
ATOM      3  N   CYS A   4     -21.945  -5.002  -7.933  1.00  0.00    -0.345 N 
ATOM      4  H   CYS A   4     -20.996  -5.119  -8.288  1.00  0.00     0.163 HD
ENDROOT
BRANCH   3   5
ATOM      5  CA  CYS A   4     -22.977  -4.812  -8.935  1.00  0.00     0.185 C 
BRANCH   5   6
ATOM      6  CB  CYS A   4     -23.802  -3.529  -8.608  1.00  0.00     0.105 C 
BRANCH   6   7
ATOM      7  SG  CYS A   4     -25.188  -3.132  -9.742  1.00  0.00    -0.180 SA
ATOM      8  HG  CYS A   4     -25.997  -2.567  -8.835  1.00  0.00     0.101 HD
ENDBRANCH   6   7
ENDBRANCH   5   6
BRANCH   5   9
ATOM      9  C   CYS A   4     -22.476  -4.692 -10.451  1.00  0.00     0.241 C 
ATOM     10  O   CYS A   4     -21.449  -4.034 -10.648  1.00  0.00    -0.271 OA
ATOM     11  N   ARG A   5     -23.243  -5.185 -11.519  1.00  0.00    -0.346 N 
ATOM     12  H   ARG A   5     -24.015  -5.793 -11.269  1.00  0.00     0.163 HD
BRANCH  11  13
ATOM     13  CA  ARG A   5     -22.982  -5.026 -13.069  1.00  0.00     0.176 C 
BRANCH  13  14
ATOM     14  CB  ARG A   5     -23.619  -6.207 -13.808  1.00  0.00     0.036 C 
BRANCH  14  15
ATOM     15  CG  ARG A   5     -24.337  -5.817 -15.069  1.00  0.00     0.022 C 
BRANCH  15  16
ATOM     16  CD  ARG A   5     -24.949  -6.979 -15.830  1.00  0.00     0.122 C 
BRANCH  16  17
ATOM     17  NE  ARG A   5     -23.948  -7.295 -16.839  1.00  0.00    -0.367 N 
ATOM     18  CZ  ARG A   5     -24.249  -7.203 -18.065  1.00  0.00     0.143 C 
ATOM     19  NH1 ARG A   5     -25.425  -6.865 -18.635  1.00  0.00    -0.376 N 
ATOM     20  NH2 ARG A   5     -23.265  -7.449 -18.974  1.00  0.00    -0.274 NA
ATOM     21 HH11 ARG A   5     -26.225  -6.855 -18.014  1.00  0.00     0.158 HD
ATOM     22 HH12 ARG A   5     -25.638  -7.216 -19.557  1.00  0.00     0.158 HD
ATOM     23 HH21 ARG A   5     -22.429  -7.756 -18.496  1.00  0.00     0.127 HD
ATOM     24 HH22 ARG A   5     -23.505  -8.037 -19.771  1.00  0.00     0.127 HD
ATOM     25  HE  ARG A   5     -23.012  -7.589 -16.560  1.00  0.00     0.162 HD
ENDBRANCH  16  17
ENDBRANCH  15  16
ENDBRANCH  14  15
ENDBRANCH  13  14
BRANCH  13  26
ATOM     26  C   ARG A   5     -23.348  -3.497 -13.623  1.00  0.00     0.240 C 
ATOM     27  O   ARG A   5     -24.434  -3.054 -13.238  1.00  0.00    -0.271 OA
ATOM     28  N   GLY A   6     -22.554  -2.651 -14.426  1.00  0.00    -0.349 N 
ATOM     29  H   GLY A   6     -21.606  -2.961 -14.571  1.00  0.00     0.163 HD
BRANCH  28  30
ATOM     30  CA  GLY A   6     -22.872  -1.465 -15.499  1.00  0.00     0.232 C 
BRANCH  30  31
ATOM     31  C   GLY A   6     -23.911  -0.215 -15.515  1.00  0.00     0.158 C 
ATOM     32  O   GLY A   6     -23.755   0.829 -16.137  1.00  0.00    -0.649 OA
BRANCH  31  33
ATOM     33  OXT GLY A   6     -25.023  -0.350 -14.711  1.00  0.00    -0.775 OA
ATOM     34  HXT GLY A   6     -25.888  -0.232 -15.162  1.00  0.00     0.167 HD
ENDBRANCH  31  33
ENDBRANCH  30  31
ENDBRANCH  28  30
ENDBRANCH  13  26
ENDBRANCH  11  13
ENDBRANCH   5   9
ENDBRANCH   3   5
BRANCH   1  35
ATOM     35  CA  ALA A   3     -20.810  -5.467  -5.779  1.00  0.00     0.172 C 
ATOM     36  CB  ALA A   3     -19.660  -6.000  -6.637  1.00  0.00     0.042 C 
BRANCH  35  37
ATOM     37  N   ALA A   3     -21.044  -6.325  -4.606  1.00  0.00    -0.346 N 
ATOM     38  C   GLN A   2     -21.265  -7.676  -4.703  1.00  0.00     0.241 C 
ATOM     39  O   GLN A   2     -21.512  -8.217  -5.785  1.00  0.00    -0.271 OA
ATOM     40  H   ALA A   3     -20.900  -5.905  -3.687  1.00  0.00     0.163 HD
BRANCH  38  41
ATOM     41  CA  GLN A   2     -21.272  -8.507  -3.420  1.00  0.00     0.177 C 
BRANCH  41  42
ATOM     42  N   GLN A   2     -20.412  -9.650  -3.733  1.00  0.00    -0.346 N 
ATOM     43  C   ILE A   1     -19.052  -9.768  -3.647  1.00  0.00     0.251 C 
ATOM     44  O   ILE A   1     -18.268  -8.961  -3.178  1.00  0.00    -0.271 OA
ATOM     45  H   GLN A   2     -20.829 -10.173  -4.504  1.00  0.00     0.163 HD
BRANCH  43  46
ATOM     46  CA  ILE A   1     -18.545 -11.164  -4.141  1.00  0.00     0.312 C 
BRANCH  46  47
ATOM     47  CB  ILE A   1     -19.560 -12.298  -4.102  1.00  0.00     0.023 C 
ATOM     48  CG2 ILE A   1     -19.436 -13.224  -2.870  1.00  0.00     0.012 C 
BRANCH  47  49
ATOM     49  CG1 ILE A   1     -19.331 -13.037  -5.408  1.00  0.00     0.002 C 
ATOM     50  CD1 ILE A   1     -18.842 -12.163  -6.526  1.00  0.00     0.005 C 
ENDBRANCH  47  49
ENDBRANCH  46  47
BRANCH  46  51
ATOM     51  N   ILE A   1     -17.481 -11.435  -3.218  1.00  0.00     0.092 N 
ATOM     52  H1  ILE A   1     -17.935 -11.477  -2.301  1.00  0.00     0.313 HD
ATOM     53  H2  ILE A   1     -16.985 -10.526  -3.062  1.00  0.00     0.313 HD
ENDBRANCH  46  51
ENDBRANCH  43  46
ENDBRANCH  41  42
BRANCH  41  54
ATOM     54  CB  GLN A   2     -20.784  -7.844  -2.151  1.00  0.00     0.044 C 
BRANCH  54  55
ATOM     55  CG  GLN A   2     -21.832  -7.232  -1.259  1.00  0.00     0.105 C 
BRANCH  55  56
ATOM     56  CD  GLN A   2     -22.131  -8.137  -0.108  1.00  0.00     0.215 C 
ATOM     57  OE1 GLN A   2     -21.286  -8.896   0.357  1.00  0.00    -0.274 OA
ATOM     58  NE2 GLN A   2     -23.370  -7.990   0.420  1.00  0.00    -0.370 N 
ATOM     59 1HE2 GLN A   2     -23.977  -7.222   0.175  1.00  0.00     0.159 HD
ATOM     60 2HE2 GLN A   2     -23.599  -8.526   1.256  1.00  0.00     0.159 HD
ENDBRANCH  55  56
ENDBRANCH  54  55
ENDBRANCH  41  54
ENDBRANCH  38  41
ENDBRANCH  35  37
ENDBRANCH   1  35
TORSDOF 24
BEGIN_RES ARG D 557
REMARK  4 active torsions:
REMARK  status: ('A' for Active; 'I' for Inactive)
REMARK    1  A    between atoms: CA   and  CB  
REMARK    2  A    between atoms: CB   and  CG  
REMARK    3  A    between atoms: CG   and  CD  
REMARK    4  A    between atoms: CD   and  NE  
REMARK       I    between atoms: NE   and  CZ  
REMARK       I    between atoms: CZ   and  NH1 
REMARK       I    between atoms: CZ   and  NH2 
ROOT
ATOM      1  CA  ARG D 557     -26.217   2.705 -17.014  1.00 35.49     0.159 C 
ENDROOT
BRANCH   1   2
ATOM      2  CB  ARG D 557     -26.789   1.319 -17.183  1.00 35.49     0.034 C 
BRANCH   2   3
ATOM      3  CG  ARG D 557     -28.215   1.151 -16.878  1.00 35.49     0.027 C 
BRANCH   3   4
ATOM      4  CD  ARG D 557     -28.602  -0.273 -16.757  1.00 35.49     0.116 C 
BRANCH   4   5
ATOM      5  NE  ARG D 557     -27.608  -1.048 -16.062  1.00 35.49    -0.212 N 
ATOM      6  CZ  ARG D 557     -27.471  -2.354 -16.124  1.00 35.49     0.666 C 
ATOM      7  NH1 ARG D 557     -28.269  -3.117 -16.847  1.00 35.49    -0.235 N 
ATOM      8  NH2 ARG D 557     -26.499  -2.888 -15.443  1.00 35.49    -0.235 N 
ATOM      9  HH  ARG D 557     -28.914  -2.787 -17.304  1.00 35.49     0.174 HD
ATOM     10  HH  ARG D 557     -28.130  -3.963 -16.851  1.00 35.49     0.174 HD
ATOM     11  HH  ARG D 557     -25.994  -2.369 -14.992  1.00 35.49     0.174 HD
ATOM     12  HH  ARG D 557     -26.376  -3.727 -15.462  1.00 35.49     0.174 HD
ATOM     13  HE  ARG D 557     -27.097  -0.644 -15.516  1.00 35.49     0.178 HD
ENDBRANCH   4   5
ENDBRANCH   3   4
ENDBRANCH   2   3
ENDBRANCH   1   2
END_RES ARG D 557
BEGIN_RES GLU D 570
REMARK  3 active torsions:
REMARK  status: ('A' for Active; 'I' for Inactive)
REMARK    5  A    between atoms: CA   and  CB  
REMARK    6  A    between atoms: CB   and  CG  
REMARK    7  A    between atoms: CG   and  CD  
ROOT
ATOM     14  CA  GLU D 570     -18.033  -6.348 -13.375  1.00 32.92     0.160 C 
ENDROOT
BRANCH  14  15
ATOM     15  CB  GLU D 570     -19.500  -6.345 -13.794  1.00 32.92     0.043 C 
BRANCH  15  16
ATOM     16  CG  GLU D 570     -19.845  -6.995 -15.085  1.00 32.92     0.100 C 
BRANCH  16  17
ATOM     17  CD  GLU D 570     -20.622  -6.090 -16.012  1.00 32.92     0.185 C 
ATOM     18  OE1 GLU D 570     -21.019  -6.539 -17.104  1.00 32.92    -0.647 OA
ATOM     19  OE2 GLU D 570     -20.822  -4.914 -15.649  1.00 32.92    -0.647 OA
ENDBRANCH  16  17
ENDBRANCH  15  16
ENDBRANCH  14  15
END_RES GLU D 570
ENDMDL
MODEL 5
REMARK VINA RESULT:      -7.8      1.757      2.379
REMARK  24 active torsions:
REMARK  status: ('A' for Active; 'I' for Inactive)
REMARK    1  A    between atoms: CG1_2  and  CB_3 
REMARK    2  A    between atoms: CB_3  and  CA_5 
REMARK    3  A    between atoms: CA_5  and  C_6 
REMARK    4  A    between atoms: CA_5  and  N_8 
REMARK       I    between atoms: C_6  and  N_11 
REMARK    5  A    between atoms: N_11  and  CA_12 
REMARK    6  A    between atoms: CA_12  and  CB_13 
REMARK    7  A    between atoms: CA_12  and  C_18 
REMARK    8  A    between atoms: CB_13  and  CG_14 
REMARK    9  A    between atoms: CG_14  and  CD_15 
REMARK       I    between atoms: CD_15  and  NE2_17 
REMARK       I    between atoms: C_18  and  N_23 
REMARK   10  A    between atoms: N_23  and  CA_24 
REMARK   11  A    between atoms: CA_24  and  C_26 
REMARK       I    between atoms: C_26  and  N_29 
REMARK   12  A    between atoms: N_29  and  CA_30 
REMARK   13  A    between atoms: CA_30  and  CB_31 
REMARK   14  A    between atoms: CA_30  and  C_33 
REMARK   15  A    between atoms: CB_31  and  SG_32 
REMARK       I    between atoms: C_33  and  N_37 
REMARK   16  A    between atoms: N_37  and  CA_38 
REMARK   17  A    between atoms: CA_38  and  CB_39 
REMARK   18  A    between atoms: CA_38  and  C_47 
REMARK   19  A    between atoms: CB_39  and  CG_40 
REMARK   20  A    between atoms: CG_40  and  CD_41 
REMARK   21  A    between atoms: CD_41  and  NE_42 
REMARK       I    between atoms: NE_42  and  CZ_44 
REMARK       I    between atoms: CZ_44  and  NH2_46 
REMARK       I    between atoms: C_47  and  N_54 
REMARK   22  A    between atoms: N_54  and  CA_55 
REMARK   23  A    between atoms: CA_55  and  C_56 
REMARK   24  A    between atoms: C_56  and  OXT_58 
ROOT
ATOM      1  C   ALA A   3     -31.101  -5.903 -16.987  1.00  0.00     0.240 C 
ATOM      2  O   ALA A   3     -31.558  -7.000 -17.297  1.00  0.00    -0.271 OA
ATOM      3  N   CYS A   4     -29.763  -5.693 -16.766  1.00  0.00    -0.345 N 
ATOM      4  H   CYS A   4     -29.496  -4.759 -16.452  1.00  0.00     0.163 HD
ENDROOT
BRANCH   3   5
ATOM      5  CA  CYS A   4     -28.703  -6.684 -16.773  1.00  0.00     0.185 C 
BRANCH   5   6
ATOM      6  CB  CYS A   4     -28.636  -7.375 -18.170  1.00  0.00     0.105 C 
BRANCH   6   7
ATOM      7  SG  CYS A   4     -27.863  -6.412 -19.527  1.00  0.00    -0.180 SA
ATOM      8  HG  CYS A   4     -27.874  -7.381 -20.453  1.00  0.00     0.101 HD
ENDBRANCH   6   7
ENDBRANCH   5   6
BRANCH   5   9
ATOM      9  C   CYS A   4     -27.235  -6.152 -16.424  1.00  0.00     0.241 C 
ATOM     10  O   CYS A   4     -27.041  -4.936 -16.540  1.00  0.00    -0.271 OA
ATOM     11  N   ARG A   5     -26.180  -7.035 -16.143  1.00  0.00    -0.346 N 
ATOM     12  H   ARG A   5     -26.442  -8.000 -15.972  1.00  0.00     0.163 HD
BRANCH  11  13
ATOM     13  CA  ARG A   5     -24.651  -6.700 -15.926  1.00  0.00     0.176 C 
BRANCH  13  14
ATOM     14  CB  ARG A   5     -24.019  -6.350 -17.277  1.00  0.00     0.036 C 
BRANCH  14  15
ATOM     15  CG  ARG A   5     -23.809  -7.538 -18.173  1.00  0.00     0.022 C 
BRANCH  15  16
ATOM     16  CD  ARG A   5     -24.233  -7.322 -19.614  1.00  0.00     0.122 C 
BRANCH  16  17
ATOM     17  NE  ARG A   5     -23.436  -8.286 -20.358  1.00  0.00    -0.367 N 
ATOM     18  CZ  ARG A   5     -23.475  -8.284 -21.623  1.00  0.00     0.143 C 
ATOM     19  NH1 ARG A   5     -24.198  -7.505 -22.456  1.00  0.00    -0.376 N 
ATOM     20  NH2 ARG A   5     -22.667  -9.163 -22.279  1.00  0.00    -0.274 NA
ATOM     21 HH11 ARG A   5     -24.942  -6.973 -22.020  1.00  0.00     0.158 HD
ATOM     22 HH12 ARG A   5     -24.441  -7.863 -23.367  1.00  0.00     0.158 HD
ATOM     23 HH21 ARG A   5     -22.197  -9.758 -21.610  1.00  0.00     0.127 HD
ATOM     24 HH22 ARG A   5     -23.077  -9.682 -23.053  1.00  0.00     0.127 HD
ATOM     25  HE  ARG A   5     -22.850  -8.959 -19.863  1.00  0.00     0.162 HD
ENDBRANCH  16  17
ENDBRANCH  15  16
ENDBRANCH  14  15
ENDBRANCH  13  14
BRANCH  13  26
ATOM     26  C   ARG A   5     -24.405  -5.632 -14.672  1.00  0.00     0.240 C 
ATOM     27  O   ARG A   5     -24.592  -4.446 -14.959  1.00  0.00    -0.271 OA
ATOM     28  N   GLY A   6     -24.060  -5.926 -13.336  1.00  0.00    -0.349 N 
ATOM     29  H   GLY A   6     -24.095  -6.902 -13.087  1.00  0.00     0.163 HD
BRANCH  28  30
ATOM     30  CA  GLY A   6     -23.258  -5.129 -12.160  1.00  0.00     0.232 C 
BRANCH  30  31
ATOM     31  C   GLY A   6     -21.877  -4.272 -12.126  1.00  0.00     0.158 C 
ATOM     32  O   GLY A   6     -20.988  -4.394 -11.292  1.00  0.00    -0.649 OA
BRANCH  31  33
ATOM     33  OXT GLY A   6     -21.751  -3.301 -13.096  1.00  0.00    -0.775 OA
ATOM     34  HXT GLY A   6     -20.860  -3.224 -13.504  1.00  0.00     0.167 HD
ENDBRANCH  31  33
ENDBRANCH  30  31
ENDBRANCH  28  30
ENDBRANCH  13  26
ENDBRANCH  11  13
ENDBRANCH   5   9
ENDBRANCH   3   5
BRANCH   1  35
ATOM     35  CA  ALA A   3     -32.008  -4.643 -16.811  1.00  0.00     0.172 C 
ATOM     36  CB  ALA A   3     -31.463  -3.391 -17.501  1.00  0.00     0.042 C 
BRANCH  35  37
ATOM     37  N   ALA A   3     -32.333  -4.379 -15.401  1.00  0.00    -0.346 N 
ATOM     38  C   GLN A   2     -33.590  -4.032 -14.978  1.00  0.00     0.241 C 
ATOM     39  O   GLN A   2     -34.472  -3.693 -15.773  1.00  0.00    -0.271 OA
ATOM     40  H   ALA A   3     -31.613  -4.598 -14.709  1.00  0.00     0.163 HD
BRANCH  38  41
ATOM     41  CA  GLN A   2     -33.871  -4.000 -13.475  1.00  0.00     0.177 C 
BRANCH  41  42
ATOM     42  N   GLN A   2     -34.453  -2.674 -13.251  1.00  0.00    -0.346 N 
ATOM     43  C   ILE A   1     -34.356  -1.851 -12.164  1.00  0.00     0.251 C 
ATOM     44  O   ILE A   1     -33.660  -2.010 -11.176  1.00  0.00    -0.271 OA
ATOM     45  H   GLN A   2     -35.351  -2.624 -13.735  1.00  0.00     0.163 HD
BRANCH  43  46
ATOM     46  CA  ILE A   1     -35.192  -0.539 -12.336  1.00  0.00     0.312 C 
BRANCH  46  47
ATOM     47  CB  ILE A   1     -36.701  -0.684 -12.206  1.00  0.00     0.023 C 
ATOM     48  CG2 ILE A   1     -37.498  -0.195 -13.436  1.00  0.00     0.012 C 
BRANCH  47  49
ATOM     49  CG1 ILE A   1     -37.036   0.101 -10.950  1.00  0.00     0.002 C 
ATOM     50  CD1 ILE A   1     -36.798  -0.656  -9.676  1.00  0.00     0.005 C 
ENDBRANCH  47  49
ENDBRANCH  46  47
BRANCH  46  51
ATOM     51  N   ILE A   1     -34.856  -0.148 -13.675  1.00  0.00     0.092 N 
ATOM     52  H1  ILE A   1     -35.622   0.467 -13.967  1.00  0.00     0.313 HD
ATOM     53  H2  ILE A   1     -35.112  -0.954 -14.292  1.00  0.00     0.313 HD
ENDBRANCH  46  51
ENDBRANCH  43  46
ENDBRANCH  41  42
BRANCH  41  54
ATOM     54  CB  GLN A   2     -34.795  -5.055 -12.910  1.00  0.00     0.044 C 
BRANCH  54  55
ATOM     55  CG  GLN A   2     -34.797  -5.224 -11.413  1.00  0.00     0.105 C 
BRANCH  55  56
ATOM     56  CD  GLN A   2     -33.993  -6.421 -11.023  1.00  0.00     0.215 C 
ATOM     57  OE1 GLN A   2     -32.766  -6.408 -11.028  1.00  0.00    -0.274 OA
ATOM     58  NE2 GLN A   2     -34.725  -7.478 -10.593  1.00  0.00    -0.370 N 
ATOM     59 1HE2 GLN A   2     -35.710  -7.409 -10.388  1.00  0.00     0.159 HD
ATOM     60 2HE2 GLN A   2     -34.224  -8.293 -10.240  1.00  0.00     0.159 HD
ENDBRANCH  55  56
ENDBRANCH  54  55
ENDBRANCH  41  54
ENDBRANCH  38  41
ENDBRANCH  35  37
ENDBRANCH   1  35
TORSDOF 24
BEGIN_RES ARG D 557
REMARK  4 active torsions:
REMARK  status: ('A' for Active; 'I' for Inactive)
REMARK    1  A    between atoms: CA   and  CB  
REMARK    2  A    between atoms: CB   and  CG  
REMARK    3  A    between atoms: CG   and  CD  
REMARK    4  A    between atoms: CD   and  NE  
REMARK       I    between atoms: NE   and  CZ  
REMARK       I    between atoms: CZ   and  NH1 
REMARK       I    between atoms: CZ   and  NH2 
ROOT
ATOM      1  CA  ARG D 557     -26.217   2.705 -17.014  1.00 35.49     0.159 C 
ENDROOT
BRANCH   1   2
ATOM      2  CB  ARG D 557     -26.789   1.319 -17.183  1.00 35.49     0.034 C 
BRANCH   2   3
ATOM      3  CG  ARG D 557     -25.836   0.203 -17.157  1.00 35.49     0.027 C 
BRANCH   3   4
ATOM      4  CD  ARG D 557     -24.711   0.444 -16.224  1.00 35.49     0.116 C 
BRANCH   4   5
ATOM      5  NE  ARG D 557     -24.827  -0.339 -15.021  1.00 35.49    -0.212 N 
ATOM      6  CZ  ARG D 557     -24.029  -1.319 -14.663  1.00 35.49     0.666 C 
ATOM      7  NH1 ARG D 557     -23.009  -1.711 -15.404  1.00 35.49    -0.235 N 
ATOM      8  NH2 ARG D 557     -24.271  -1.906 -13.527  1.00 35.49    -0.235 N 
ATOM      9  HH  ARG D 557     -22.830  -1.337 -16.155  1.00 35.49     0.174 HD
ATOM     10  HH  ARG D 557     -22.521  -2.354 -15.118  1.00 35.49     0.174 HD
ATOM     11  HH  ARG D 557     -24.932  -1.627 -13.065  1.00 35.49     0.174 HD
ATOM     12  HH  ARG D 557     -23.776  -2.540 -13.260  1.00 35.49     0.174 HD
ATOM     13  HE  ARG D 557     -25.500  -0.202 -14.520  1.00 35.49     0.178 HD
ENDBRANCH   4   5
ENDBRANCH   3   4
ENDBRANCH   2   3
ENDBRANCH   1   2
END_RES ARG D 557
BEGIN_RES GLU D 570
REMARK  3 active torsions:
REMARK  status: ('A' for Active; 'I' for Inactive)
REMARK    5  A    between atoms: CA   and  CB  
REMARK    6  A    between atoms: CB   and  CG  
REMARK    7  A    between atoms: CG   and  CD  
ROOT
ATOM     14  CA  GLU D 570     -18.033  -6.348 -13.375  1.00 32.92     0.160 C 
ENDROOT
BRANCH  14  15
ATOM     15  CB  GLU D 570     -19.500  -6.345 -13.794  1.00 32.92     0.043 C 
BRANCH  15  16
ATOM     16  CG  GLU D 570     -19.871  -5.532 -14.981  1.00 32.92     0.100 C 
BRANCH  16  17
ATOM     17  CD  GLU D 570     -20.509  -6.350 -16.080  1.00 32.92     0.185 C 
ATOM     18  OE1 GLU D 570     -20.952  -7.483 -15.811  1.00 32.92    -0.647 OA
ATOM     19  OE2 GLU D 570     -20.550  -5.859 -17.225  1.00 32.92    -0.647 OA
ENDBRANCH  16  17
ENDBRANCH  15  16
ENDBRANCH  14  15
END_RES GLU D 570
ENDMDL
MODEL 6
REMARK VINA RESULT:      -7.8     12.901     18.467
REMARK  24 active torsions:
REMARK  status: ('A' for Active; 'I' for Inactive)
REMARK    1  A    between atoms: CG1_2  and  CB_3 
REMARK    2  A    between atoms: CB_3  and  CA_5 
REMARK    3  A    between atoms: CA_5  and  C_6 
REMARK    4  A    between atoms: CA_5  and  N_8 
REMARK       I    between atoms: C_6  and  N_11 
REMARK    5  A    between atoms: N_11  and  CA_12 
REMARK    6  A    between atoms: CA_12  and  CB_13 
REMARK    7  A    between atoms: CA_12  and  C_18 
REMARK    8  A    between atoms: CB_13  and  CG_14 
REMARK    9  A    between atoms: CG_14  and  CD_15 
REMARK       I    between atoms: CD_15  and  NE2_17 
REMARK       I    between atoms: C_18  and  N_23 
REMARK   10  A    between atoms: N_23  and  CA_24 
REMARK   11  A    between atoms: CA_24  and  C_26 
REMARK       I    between atoms: C_26  and  N_29 
REMARK   12  A    between atoms: N_29  and  CA_30 
REMARK   13  A    between atoms: CA_30  and  CB_31 
REMARK   14  A    between atoms: CA_30  and  C_33 
REMARK   15  A    between atoms: CB_31  and  SG_32 
REMARK       I    between atoms: C_33  and  N_37 
REMARK   16  A    between atoms: N_37  and  CA_38 
REMARK   17  A    between atoms: CA_38  and  CB_39 
REMARK   18  A    between atoms: CA_38  and  C_47 
REMARK   19  A    between atoms: CB_39  and  CG_40 
REMARK   20  A    between atoms: CG_40  and  CD_41 
REMARK   21  A    between atoms: CD_41  and  NE_42 
REMARK       I    between atoms: NE_42  and  CZ_44 
REMARK       I    between atoms: CZ_44  and  NH2_46 
REMARK       I    between atoms: C_47  and  N_54 
REMARK   22  A    between atoms: N_54  and  CA_55 
REMARK   23  A    between atoms: CA_55  and  C_56 
REMARK   24  A    between atoms: C_56  and  OXT_58 
ROOT
ATOM      1  C   ALA A   3     -16.292 -10.687  -5.271  1.00  0.00     0.240 C 
ATOM      2  O   ALA A   3     -16.137  -9.745  -6.044  1.00  0.00    -0.271 OA
ATOM      3  N   CYS A   4     -17.531 -11.167  -4.926  1.00  0.00    -0.345 N 
ATOM      4  H   CYS A   4     -17.551 -11.911  -4.228  1.00  0.00     0.163 HD
ENDROOT
BRANCH   3   5
ATOM      5  CA  CYS A   4     -18.822 -10.633  -5.319  1.00  0.00     0.185 C 
BRANCH   5   6
ATOM      6  CB  CYS A   4     -19.959 -11.562  -4.792  1.00  0.00     0.105 C 
BRANCH   6   7
ATOM      7  SG  CYS A   4     -21.354 -11.885  -5.940  1.00  0.00    -0.180 SA
ATOM      8  HG  CYS A   4     -21.682 -10.607  -6.176  1.00  0.00     0.101 HD
ENDBRANCH   6   7
ENDBRANCH   5   6
BRANCH   5   9
ATOM      9  C   CYS A   4     -19.149  -9.143  -4.835  1.00  0.00     0.241 C 
ATOM     10  O   CYS A   4     -18.851  -8.858  -3.670  1.00  0.00    -0.271 OA
ATOM     11  N   ARG A   5     -19.870  -8.250  -5.643  1.00  0.00    -0.346 N 
ATOM     12  H   ARG A   5     -19.989  -8.524  -6.612  1.00  0.00     0.163 HD
BRANCH  11  13
ATOM     13  CA  ARG A   5     -20.406  -6.809  -5.276  1.00  0.00     0.176 C 
BRANCH  13  14
ATOM     14  CB  ARG A   5     -20.829  -6.090  -6.561  1.00  0.00     0.036 C 
BRANCH  14  15
ATOM     15  CG  ARG A   5     -20.285  -4.695  -6.680  1.00  0.00     0.022 C 
BRANCH  15  16
ATOM     16  CD  ARG A   5     -21.301  -3.660  -7.131  1.00  0.00     0.122 C 
BRANCH  16  17
ATOM     17  NE  ARG A   5     -21.595  -4.041  -8.505  1.00  0.00    -0.367 N 
ATOM     18  CZ  ARG A   5     -22.799  -4.150  -8.877  1.00  0.00     0.143 C 
ATOM     19  NH1 ARG A   5     -23.934  -3.989  -8.163  1.00  0.00    -0.376 N 
ATOM     20  NH2 ARG A   5     -23.029  -4.449 -10.186  1.00  0.00    -0.274 NA
ATOM     21 HH11 ARG A   5     -23.816  -3.951  -7.158  1.00  0.00     0.158 HD
ATOM     22 HH12 ARG A   5     -24.765  -4.484  -8.451  1.00  0.00     0.158 HD
ATOM     23 HH21 ARG A   5     -22.150  -4.617 -10.656  1.00  0.00     0.127 HD
ATOM     24 HH22 ARG A   5     -23.729  -5.162 -10.384  1.00  0.00     0.127 HD
ATOM     25  HE  ARG A   5     -20.836  -4.219  -9.162  1.00  0.00     0.162 HD
ENDBRANCH  16  17
ENDBRANCH  15  16
ENDBRANCH  14  15
ENDBRANCH  13  14
BRANCH  13  26
ATOM     26  C   ARG A   5     -21.506  -6.840  -4.025  1.00  0.00     0.240 C 
ATOM     27  O   ARG A   5     -22.557  -6.229  -4.245  1.00  0.00    -0.271 OA
ATOM     28  N   GLY A   6     -21.396  -7.507  -2.787  1.00  0.00    -0.349 N 
ATOM     29  H   GLY A   6     -20.617  -8.143  -2.709  1.00  0.00     0.163 HD
BRANCH  28  30
ATOM     30  CA  GLY A   6     -21.996  -7.252  -1.292  1.00  0.00     0.232 C 
BRANCH  30  31
ATOM     31  C   GLY A   6     -22.413  -8.236  -0.067  1.00  0.00     0.158 C 
ATOM     32  O   GLY A   6     -23.192  -9.178  -0.148  1.00  0.00    -0.649 OA
BRANCH  31  33
ATOM     33  OXT GLY A   6     -21.869  -7.926   1.161  1.00  0.00    -0.775 OA
ATOM     34  HXT GLY A   6     -20.902  -7.757   1.165  1.00  0.00     0.167 HD
ENDBRANCH  31  33
ENDBRANCH  30  31
ENDBRANCH  28  30
ENDBRANCH  13  26
ENDBRANCH  11  13
ENDBRANCH   5   9
ENDBRANCH   3   5
BRANCH   1  35
ATOM     35  CA  ALA A   3     -15.087 -11.423  -4.604  1.00  0.00     0.172 C 
ATOM     36  CB  ALA A   3     -14.264 -12.267  -5.579  1.00  0.00     0.042 C 
BRANCH  35  37
ATOM     37  N   ALA A   3     -15.491 -12.209  -3.427  1.00  0.00    -0.346 N 
ATOM     38  C   GLN A   2     -15.768 -11.640  -2.210  1.00  0.00     0.241 C 
ATOM     39  O   GLN A   2     -15.474 -10.467  -1.960  1.00  0.00    -0.271 OA
ATOM     40  H   ALA A   3     -15.698 -13.198  -3.578  1.00  0.00     0.163 HD
BRANCH  38  41
ATOM     41  CA  GLN A   2     -16.394 -12.514  -1.123  1.00  0.00     0.177 C 
BRANCH  41  42
ATOM     42  N   GLN A   2     -15.258 -12.901  -0.283  1.00  0.00    -0.346 N 
ATOM     43  C   ILE A   1     -14.280 -13.829  -0.511  1.00  0.00     0.251 C 
ATOM     44  O   ILE A   1     -14.087 -14.462  -1.535  1.00  0.00    -0.271 OA
ATOM     45  H   GLN A   2     -15.530 -12.815   0.698  1.00  0.00     0.163 HD
BRANCH  43  46
ATOM     46  CA  ILE A   1     -13.288 -13.955   0.692  1.00  0.00     0.312 C 
BRANCH  46  47
ATOM     47  CB  ILE A   1     -11.935 -14.580   0.383  1.00  0.00     0.023 C 
ATOM     48  CG2 ILE A   1     -11.760 -16.020   0.915  1.00  0.00     0.012 C 
BRANCH  47  49
ATOM     49  CG1 ILE A   1     -10.938 -13.611   0.994  1.00  0.00     0.002 C 
ATOM     50  CD1 ILE A   1      -9.554 -14.174   1.143  1.00  0.00     0.005 C 
ENDBRANCH  47  49
ENDBRANCH  46  47
BRANCH  46  51
ATOM     51  N   ILE A   1     -14.018 -14.802   1.590  1.00  0.00     0.092 N 
ATOM     52  H1  ILE A   1     -14.747 -15.231   1.010  1.00  0.00     0.313 HD
ATOM     53  H2  ILE A   1     -14.656 -14.176   2.136  1.00  0.00     0.313 HD
ENDBRANCH  46  51
ENDBRANCH  43  46
ENDBRANCH  41  42
BRANCH  41  54
ATOM     54  CB  GLN A   2     -17.470 -11.897  -0.257  1.00  0.00     0.044 C 
BRANCH  54  55
ATOM     55  CG  GLN A   2     -18.863 -12.451  -0.409  1.00  0.00     0.105 C 
BRANCH  55  56
ATOM     56  CD  GLN A   2     -19.873 -11.353  -0.315  1.00  0.00     0.215 C 
ATOM     57  OE1 GLN A   2     -20.612 -11.234   0.657  1.00  0.00    -0.274 OA
ATOM     58  NE2 GLN A   2     -19.844 -10.471  -1.343  1.00  0.00    -0.370 N 
ATOM     59 1HE2 GLN A   2     -19.099 -10.450  -2.022  1.00  0.00     0.159 HD
ATOM     60 2HE2 GLN A   2     -20.458  -9.658  -1.290  1.00  0.00     0.159 HD
ENDBRANCH  55  56
ENDBRANCH  54  55
ENDBRANCH  41  54
ENDBRANCH  38  41
ENDBRANCH  35  37
ENDBRANCH   1  35
TORSDOF 24
BEGIN_RES ARG D 557
REMARK  4 active torsions:
REMARK  status: ('A' for Active; 'I' for Inactive)
REMARK    1  A    between atoms: CA   and  CB  
REMARK    2  A    between atoms: CB   and  CG  
REMARK    3  A    between atoms: CG   and  CD  
REMARK    4  A    between atoms: CD   and  NE  
REMARK       I    between atoms: NE   and  CZ  
REMARK       I    between atoms: CZ   and  NH1 
REMARK       I    between atoms: CZ   and  NH2 
ROOT
ATOM      1  CA  ARG D 557     -26.217   2.705 -17.014  1.00 35.49     0.159 C 
ENDROOT
BRANCH   1   2
ATOM      2  CB  ARG D 557     -26.789   1.319 -17.183  1.00 35.49     0.034 C 
BRANCH   2   3
ATOM      3  CG  ARG D 557     -25.864   0.195 -16.992  1.00 35.49     0.027 C 
BRANCH   3   4
ATOM      4  CD  ARG D 557     -26.277  -0.693 -15.882  1.00 35.49     0.116 C 
BRANCH   4   5
ATOM      5  NE  ARG D 557     -25.219  -0.895 -14.927  1.00 35.49    -0.212 N 
ATOM      6  CZ  ARG D 557     -24.910  -2.036 -14.353  1.00 35.49     0.666 C 
ATOM      7  NH1 ARG D 557     -25.572  -3.153 -14.592  1.00 35.49    -0.235 N 
ATOM      8  NH2 ARG D 557     -23.904  -2.039 -13.527  1.00 35.49    -0.235 N 
ATOM      9  HH  ARG D 557     -26.236  -3.174 -15.134  1.00 35.49     0.174 HD
ATOM     10  HH  ARG D 557     -25.323  -3.867 -14.191  1.00 35.49     0.174 HD
ATOM     11  HH  ARG D 557     -23.490  -1.305 -13.397  1.00 35.49     0.174 HD
ATOM     12  HH  ARG D 557     -23.672  -2.757 -13.140  1.00 35.49     0.174 HD
ATOM     13  HE  ARG D 557     -24.787  -0.213 -14.660  1.00 35.49     0.178 HD
ENDBRANCH   4   5
ENDBRANCH   3   4
ENDBRANCH   2   3
ENDBRANCH   1   2
END_RES ARG D 557
BEGIN_RES GLU D 570
REMARK  3 active torsions:
REMARK  status: ('A' for Active; 'I' for Inactive)
REMARK    5  A    between atoms: CA   and  CB  
REMARK    6  A    between atoms: CB   and  CG  
REMARK    7  A    between atoms: CG   and  CD  
ROOT
ATOM     14  CA  GLU D 570     -18.033  -6.348 -13.375  1.00 32.92     0.160 C 
ENDROOT
BRANCH  14  15
ATOM     15  CB  GLU D 570     -19.500  -6.345 -13.794  1.00 32.92     0.043 C 
BRANCH  15  16
ATOM     16  CG  GLU D 570     -20.449  -5.567 -12.957  1.00 32.92     0.100 C 
BRANCH  16  17
ATOM     17  CD  GLU D 570     -21.684  -5.134 -13.713  1.00 32.92     0.185 C 
ATOM     18  OE1 GLU D 570     -22.692  -4.779 -13.073  1.00 32.92    -0.647 OA
ATOM     19  OE2 GLU D 570     -21.647  -5.166 -14.959  1.00 32.92    -0.647 OA
ENDBRANCH  16  17
ENDBRANCH  15  16
ENDBRANCH  14  15
END_RES GLU D 570
ENDMDL
MODEL 7
REMARK VINA RESULT:      -7.7     12.849     18.367
REMARK  24 active torsions:
REMARK  status: ('A' for Active; 'I' for Inactive)
REMARK    1  A    between atoms: CG1_2  and  CB_3 
REMARK    2  A    between atoms: CB_3  and  CA_5 
REMARK    3  A    between atoms: CA_5  and  C_6 
REMARK    4  A    between atoms: CA_5  and  N_8 
REMARK       I    between atoms: C_6  and  N_11 
REMARK    5  A    between atoms: N_11  and  CA_12 
REMARK    6  A    between atoms: CA_12  and  CB_13 
REMARK    7  A    between atoms: CA_12  and  C_18 
REMARK    8  A    between atoms: CB_13  and  CG_14 
REMARK    9  A    between atoms: CG_14  and  CD_15 
REMARK       I    between atoms: CD_15  and  NE2_17 
REMARK       I    between atoms: C_18  and  N_23 
REMARK   10  A    between atoms: N_23  and  CA_24 
REMARK   11  A    between atoms: CA_24  and  C_26 
REMARK       I    between atoms: C_26  and  N_29 
REMARK   12  A    between atoms: N_29  and  CA_30 
REMARK   13  A    between atoms: CA_30  and  CB_31 
REMARK   14  A    between atoms: CA_30  and  C_33 
REMARK   15  A    between atoms: CB_31  and  SG_32 
REMARK       I    between atoms: C_33  and  N_37 
REMARK   16  A    between atoms: N_37  and  CA_38 
REMARK   17  A    between atoms: CA_38  and  CB_39 
REMARK   18  A    between atoms: CA_38  and  C_47 
REMARK   19  A    between atoms: CB_39  and  CG_40 
REMARK   20  A    between atoms: CG_40  and  CD_41 
REMARK   21  A    between atoms: CD_41  and  NE_42 
REMARK       I    between atoms: NE_42  and  CZ_44 
REMARK       I    between atoms: CZ_44  and  NH2_46 
REMARK       I    between atoms: C_47  and  N_54 
REMARK   22  A    between atoms: N_54  and  CA_55 
REMARK   23  A    between atoms: CA_55  and  C_56 
REMARK   24  A    between atoms: C_56  and  OXT_58 
ROOT
ATOM      1  C   ALA A   3     -18.041 -10.232  -5.414  1.00  0.00     0.240 C 
ATOM      2  O   ALA A   3     -18.184  -9.417  -6.322  1.00  0.00    -0.271 OA
ATOM      3  N   CYS A   4     -19.096 -10.903  -4.848  1.00  0.00    -0.345 N 
ATOM      4  H   CYS A   4     -18.876 -11.510  -4.059  1.00  0.00     0.163 HD
ENDROOT
BRANCH   3   5
ATOM      5  CA  CYS A   4     -20.508 -10.729  -5.138  1.00  0.00     0.185 C 
BRANCH   5   6
ATOM      6  CB  CYS A   4     -21.302 -11.985  -4.665  1.00  0.00     0.105 C 
BRANCH   6   7
ATOM      7  SG  CYS A   4     -22.450 -12.739  -5.883  1.00  0.00    -0.180 SA
ATOM      8  HG  CYS A   4     -23.584 -12.536  -5.199  1.00  0.00     0.101 HD
ENDBRANCH   6   7
ENDBRANCH   5   6
BRANCH   5   9
ATOM      9  C   CYS A   4     -21.209  -9.441  -4.497  1.00  0.00     0.241 C 
ATOM     10  O   CYS A   4     -22.236  -9.637  -3.837  1.00  0.00    -0.271 OA
ATOM     11  N   ARG A   5     -20.766  -8.142  -4.789  1.00  0.00    -0.346 N 
ATOM     12  H   ARG A   5     -19.867  -8.072  -5.253  1.00  0.00     0.163 HD
BRANCH  11  13
ATOM     13  CA  ARG A   5     -21.420  -6.765  -4.372  1.00  0.00     0.176 C 
BRANCH  13  14
ATOM     14  CB  ARG A   5     -21.084  -6.475  -2.905  1.00  0.00     0.036 C 
BRANCH  14  15
ATOM     15  CG  ARG A   5     -22.287  -6.183  -2.055  1.00  0.00     0.022 C 
BRANCH  15  16
ATOM     16  CD  ARG A   5     -22.293  -6.888  -0.710  1.00  0.00     0.122 C 
BRANCH  16  17
ATOM     17  NE  ARG A   5     -22.090  -8.288  -1.053  1.00  0.00    -0.367 N 
ATOM     18  CZ  ARG A   5     -22.804  -9.175  -0.502  1.00  0.00     0.143 C 
ATOM     19  NH1 ARG A   5     -23.770  -9.039   0.432  1.00  0.00    -0.376 N 
ATOM     20  NH2 ARG A   5     -22.622 -10.466  -0.898  1.00  0.00    -0.274 NA
ATOM     21 HH11 ARG A   5     -23.812  -8.134   0.887  1.00  0.00     0.158 HD
ATOM     22 HH12 ARG A   5     -23.957  -9.810   1.055  1.00  0.00     0.158 HD
ATOM     23 HH21 ARG A   5     -21.851 -10.516  -1.549  1.00  0.00     0.127 HD
ATOM     24 HH22 ARG A   5     -22.571 -11.173  -0.166  1.00  0.00     0.127 HD
ATOM     25  HE  ARG A   5     -21.377  -8.552  -1.733  1.00  0.00     0.162 HD
ENDBRANCH  16  17
ENDBRANCH  15  16
ENDBRANCH  14  15
ENDBRANCH  13  14
BRANCH  13  26
ATOM     26  C   ARG A   5     -21.115  -5.555  -5.476  1.00  0.00     0.240 C 
ATOM     27  O   ARG A   5     -20.202  -4.785  -5.160  1.00  0.00    -0.271 OA
ATOM     28  N   GLY A   6     -21.736  -5.340  -6.724  1.00  0.00    -0.349 N 
ATOM     29  H   GLY A   6     -22.343  -6.083  -7.035  1.00  0.00     0.163 HD
BRANCH  28  30
ATOM     30  CA  GLY A   6     -22.020  -4.028  -7.649  1.00  0.00     0.232 C 
BRANCH  30  31
ATOM     31  C   GLY A   6     -22.981  -3.745  -8.930  1.00  0.00     0.158 C 
ATOM     32  O   GLY A   6     -22.595  -3.552 -10.076  1.00  0.00    -0.649 OA
BRANCH  31  33
ATOM     33  OXT GLY A   6     -24.331  -3.669  -8.661  1.00  0.00    -0.775 OA
ATOM     34  HXT GLY A   6     -24.919  -4.090  -9.326  1.00  0.00     0.167 HD
ENDBRANCH  31  33
ENDBRANCH  30  31
ENDBRANCH  28  30
ENDBRANCH  13  26
ENDBRANCH  11  13
ENDBRANCH   5   9
ENDBRANCH   3   5
BRANCH   1  35
ATOM     35  CA  ALA A   3     -16.640 -10.574  -4.816  1.00  0.00     0.172 C 
ATOM     36  CB  ALA A   3     -15.512 -10.571  -5.849  1.00  0.00     0.042 C 
BRANCH  35  37
ATOM     37  N   ALA A   3     -16.652 -11.825  -4.040  1.00  0.00    -0.346 N 
ATOM     38  C   GLN A   2     -16.219 -11.900  -2.741  1.00  0.00     0.241 C 
ATOM     39  O   GLN A   2     -15.579 -10.984  -2.215  1.00  0.00    -0.271 OA
ATOM     40  H   ALA A   3     -17.127 -12.626  -4.459  1.00  0.00     0.163 HD
BRANCH  38  41
ATOM     41  CA  GLN A   2     -16.482 -13.188  -1.959  1.00  0.00     0.177 C 
BRANCH  41  42
ATOM     42  N   GLN A   2     -15.433 -13.202  -0.937  1.00  0.00    -0.346 N 
ATOM     43  C   ILE A   1     -14.453 -14.126  -0.704  1.00  0.00     0.251 C 
ATOM     44  O   ILE A   1     -14.177 -15.098  -1.386  1.00  0.00    -0.271 OA
ATOM     45  H   GLN A   2     -15.792 -12.752  -0.092  1.00  0.00     0.163 HD
BRANCH  43  46
ATOM     46  CA  ILE A   1     -13.576 -13.762   0.540  1.00  0.00     0.312 C 
BRANCH  46  47
ATOM     47  CB  ILE A   1     -12.426 -14.709   0.849  1.00  0.00     0.023 C 
ATOM     48  CG2 ILE A   1     -12.658 -15.616   2.079  1.00  0.00     0.012 C 
BRANCH  47  49
ATOM     49  CG1 ILE A   1     -11.232 -13.788   1.027  1.00  0.00     0.002 C 
ATOM     50  CD1 ILE A   1      -9.906 -14.462   0.826  1.00  0.00     0.005 C 
ENDBRANCH  47  49
ENDBRANCH  46  47
BRANCH  46  51
ATOM     51  N   ILE A   1     -14.539 -13.805   1.603  1.00  0.00     0.092 N 
ATOM     52  H1  ILE A   1     -14.493 -14.766   1.957  1.00  0.00     0.313 HD
ATOM     53  H2  ILE A   1     -15.478 -13.892   1.149  1.00  0.00     0.313 HD
ENDBRANCH  46  51
ENDBRANCH  43  46
ENDBRANCH  41  42
BRANCH  41  54
ATOM     54  CB  GLN A   2     -17.832 -13.344  -1.295  1.00  0.00     0.044 C 
BRANCH  54  55
ATOM     55  CG  GLN A   2     -18.135 -12.414  -0.149  1.00  0.00     0.105 C 
BRANCH  55  56
ATOM     56  CD  GLN A   2     -19.287 -11.525  -0.491  1.00  0.00     0.215 C 
ATOM     57  OE1 GLN A   2     -19.548 -11.218  -1.650  1.00  0.00    -0.274 OA
ATOM     58  NE2 GLN A   2     -20.051 -11.159   0.567  1.00  0.00    -0.370 N 
ATOM     59 1HE2 GLN A   2     -19.959 -11.585   1.477  1.00  0.00     0.159 HD
ATOM     60 2HE2 GLN A   2     -20.895 -10.618   0.381  1.00  0.00     0.159 HD
ENDBRANCH  55  56
ENDBRANCH  54  55
ENDBRANCH  41  54
ENDBRANCH  38  41
ENDBRANCH  35  37
ENDBRANCH   1  35
TORSDOF 24
BEGIN_RES ARG D 557
REMARK  4 active torsions:
REMARK  status: ('A' for Active; 'I' for Inactive)
REMARK    1  A    between atoms: CA   and  CB  
REMARK    2  A    between atoms: CB   and  CG  
REMARK    3  A    between atoms: CG   and  CD  
REMARK    4  A    between atoms: CD   and  NE  
REMARK       I    between atoms: NE   and  CZ  
REMARK       I    between atoms: CZ   and  NH1 
REMARK       I    between atoms: CZ   and  NH2 
ROOT
ATOM      1  CA  ARG D 557     -26.217   2.705 -17.014  1.00 35.49     0.159 C 
ENDROOT
BRANCH   1   2
ATOM      2  CB  ARG D 557     -26.789   1.319 -17.183  1.00 35.49     0.034 C 
BRANCH   2   3
ATOM      3  CG  ARG D 557     -25.947   0.199 -16.745  1.00 35.49     0.027 C 
BRANCH   3   4
ATOM      4  CD  ARG D 557     -26.712  -0.819 -15.989  1.00 35.49     0.116 C 
BRANCH   4   5
ATOM      5  NE  ARG D 557     -25.869  -1.592 -15.115  1.00 35.49    -0.212 N 
ATOM      6  CZ  ARG D 557     -25.974  -2.883 -14.891  1.00 35.49     0.666 C 
ATOM      7  NH1 ARG D 557     -26.907  -3.628 -15.455  1.00 35.49    -0.235 N 
ATOM      8  NH2 ARG D 557     -25.108  -3.424 -14.083  1.00 35.49    -0.235 N 
ATOM      9  HH  ARG D 557     -27.485  -3.293 -15.991  1.00 35.49     0.174 HD
ATOM     10  HH  ARG D 557     -26.924  -4.465 -15.273  1.00 35.49     0.174 HD
ATOM     11  HH  ARG D 557     -24.512  -2.920 -13.739  1.00 35.49     0.174 HD
ATOM     12  HH  ARG D 557     -25.141  -4.255 -13.917  1.00 35.49     0.174 HD
ATOM     13  HE  ARG D 557     -25.286  -1.179 -14.654  1.00 35.49     0.178 HD
ENDBRANCH   4   5
ENDBRANCH   3   4
ENDBRANCH   2   3
ENDBRANCH   1   2
END_RES ARG D 557
BEGIN_RES GLU D 570
REMARK  3 active torsions:
REMARK  status: ('A' for Active; 'I' for Inactive)
REMARK    5  A    between atoms: CA   and  CB  
REMARK    6  A    between atoms: CB   and  CG  
REMARK    7  A    between atoms: CG   and  CD  
ROOT
ATOM     14  CA  GLU D 570     -18.033  -6.348 -13.375  1.00 32.92     0.160 C 
ENDROOT
BRANCH  14  15
ATOM     15  CB  GLU D 570     -19.500  -6.345 -13.794  1.00 32.92     0.043 C 
BRANCH  15  16
ATOM     16  CG  GLU D 570     -20.440  -5.522 -12.990  1.00 32.92     0.100 C 
BRANCH  16  17
ATOM     17  CD  GLU D 570     -21.726  -5.214 -13.720  1.00 32.92     0.185 C 
ATOM     18  OE1 GLU D 570     -22.381  -4.205 -13.394  1.00 32.92    -0.647 OA
ATOM     19  OE2 GLU D 570     -22.092  -5.999 -14.617  1.00 32.92    -0.647 OA
ENDBRANCH  16  17
ENDBRANCH  15  16
ENDBRANCH  14  15
END_RES GLU D 570
ENDMDL
MODEL 8
REMARK VINA RESULT:      -7.4     11.402     17.210
REMARK  24 active torsions:
REMARK  status: ('A' for Active; 'I' for Inactive)
REMARK    1  A    between atoms: CG1_2  and  CB_3 
REMARK    2  A    between atoms: CB_3  and  CA_5 
REMARK    3  A    between atoms: CA_5  and  C_6 
REMARK    4  A    between atoms: CA_5  and  N_8 
REMARK       I    between atoms: C_6  and  N_11 
REMARK    5  A    between atoms: N_11  and  CA_12 
REMARK    6  A    between atoms: CA_12  and  CB_13 
REMARK    7  A    between atoms: CA_12  and  C_18 
REMARK    8  A    between atoms: CB_13  and  CG_14 
REMARK    9  A    between atoms: CG_14  and  CD_15 
REMARK       I    between atoms: CD_15  and  NE2_17 
REMARK       I    between atoms: C_18  and  N_23 
REMARK   10  A    between atoms: N_23  and  CA_24 
REMARK   11  A    between atoms: CA_24  and  C_26 
REMARK       I    between atoms: C_26  and  N_29 
REMARK   12  A    between atoms: N_29  and  CA_30 
REMARK   13  A    between atoms: CA_30  and  CB_31 
REMARK   14  A    between atoms: CA_30  and  C_33 
REMARK   15  A    between atoms: CB_31  and  SG_32 
REMARK       I    between atoms: C_33  and  N_37 
REMARK   16  A    between atoms: N_37  and  CA_38 
REMARK   17  A    between atoms: CA_38  and  CB_39 
REMARK   18  A    between atoms: CA_38  and  C_47 
REMARK   19  A    between atoms: CB_39  and  CG_40 
REMARK   20  A    between atoms: CG_40  and  CD_41 
REMARK   21  A    between atoms: CD_41  and  NE_42 
REMARK       I    between atoms: NE_42  and  CZ_44 
REMARK       I    between atoms: CZ_44  and  NH2_46 
REMARK       I    between atoms: C_47  and  N_54 
REMARK   22  A    between atoms: N_54  and  CA_55 
REMARK   23  A    between atoms: CA_55  and  C_56 
REMARK   24  A    between atoms: C_56  and  OXT_58 
ROOT
ATOM      1  C   ALA A   3     -18.771  -9.645  -4.879  1.00  0.00     0.240 C 
ATOM      2  O   ALA A   3     -19.414 -10.185  -5.776  1.00  0.00    -0.271 OA
ATOM      3  N   CYS A   4     -19.326  -8.738  -4.012  1.00  0.00    -0.345 N 
ATOM      4  H   CYS A   4     -18.691  -8.301  -3.344  1.00  0.00     0.163 HD
ENDROOT
BRANCH   3   5
ATOM      5  CA  CYS A   4     -20.678  -8.210  -4.036  1.00  0.00     0.185 C 
BRANCH   5   6
ATOM      6  CB  CYS A   4     -21.002  -7.525  -2.673  1.00  0.00     0.105 C 
BRANCH   6   7
ATOM      7  SG  CYS A   4     -20.941  -8.593  -1.182  1.00  0.00    -0.180 SA
ATOM      8  HG  CYS A   4     -20.774  -7.618  -0.278  1.00  0.00     0.101 HD
ENDBRANCH   6   7
ENDBRANCH   5   6
BRANCH   5   9
ATOM      9  C   CYS A   4     -21.006  -7.159  -5.197  1.00  0.00     0.241 C 
ATOM     10  O   CYS A   4     -21.266  -7.624  -6.313  1.00  0.00    -0.271 OA
ATOM     11  N   ARG A   5     -20.862  -5.776  -4.999  1.00  0.00    -0.346 N 
ATOM     12  H   ARG A   5     -20.743  -5.475  -4.038  1.00  0.00     0.163 HD
BRANCH  11  13
ATOM     13  CA  ARG A   5     -20.994  -4.613  -6.061  1.00  0.00     0.176 C 
BRANCH  13  14
ATOM     14  CB  ARG A   5     -19.763  -4.624  -6.972  1.00  0.00     0.036 C 
BRANCH  14  15
ATOM     15  CG  ARG A   5     -20.003  -5.272  -8.306  1.00  0.00     0.022 C 
BRANCH  15  16
ATOM     16  CD  ARG A   5     -19.728  -4.374  -9.499  1.00  0.00     0.122 C 
BRANCH  16  17
ATOM     17  NE  ARG A   5     -20.717  -4.792 -10.482  1.00  0.00    -0.367 N 
ATOM     18  CZ  ARG A   5     -21.097  -3.976 -11.371  1.00  0.00     0.143 C 
ATOM     19  NH1 ARG A   5     -20.737  -2.688 -11.560  1.00  0.00    -0.376 N 
ATOM     20  NH2 ARG A   5     -21.977  -4.429 -12.307  1.00  0.00    -0.274 NA
ATOM     21 HH11 ARG A   5     -20.236  -2.257 -10.792  1.00  0.00     0.158 HD
ATOM     22 HH12 ARG A   5     -21.385  -2.064 -12.017  1.00  0.00     0.158 HD
ATOM     23 HH21 ARG A   5     -22.256  -5.373 -12.082  1.00  0.00     0.127 HD
ATOM     24 HH22 ARG A   5     -22.765  -3.824 -12.534  1.00  0.00     0.127 HD
ATOM     25  HE  ARG A   5     -21.101  -5.737 -10.455  1.00  0.00     0.162 HD
ENDBRANCH  16  17
ENDBRANCH  15  16
ENDBRANCH  14  15
ENDBRANCH  13  14
BRANCH  13  26
ATOM     26  C   ARG A   5     -22.487  -4.595  -6.801  1.00  0.00     0.240 C 
ATOM     27  O   ARG A   5     -23.394  -5.124  -6.150  1.00  0.00    -0.271 OA
ATOM     28  N   GLY A   6     -22.836  -4.016  -8.040  1.00  0.00    -0.349 N 
ATOM     29  H   GLY A   6     -22.125  -3.436  -8.459  1.00  0.00     0.163 HD
BRANCH  28  30
ATOM     30  CA  GLY A   6     -23.970  -4.328  -9.169  1.00  0.00     0.232 C 
BRANCH  30  31
ATOM     31  C   GLY A   6     -24.861  -3.391 -10.154  1.00  0.00     0.158 C 
ATOM     32  O   GLY A   6     -24.464  -2.877 -11.193  1.00  0.00    -0.649 OA
BRANCH  31  33
ATOM     33  OXT GLY A   6     -26.146  -3.129  -9.731  1.00  0.00    -0.775 OA
ATOM     34  HXT GLY A   6     -26.768  -2.824 -10.428  1.00  0.00     0.167 HD
ENDBRANCH  31  33
ENDBRANCH  30  31
ENDBRANCH  28  30
ENDBRANCH  13  26
ENDBRANCH  11  13
ENDBRANCH   5   9
ENDBRANCH   3   5
BRANCH   1  35
ATOM     35  CA  ALA A   3     -17.255  -9.940  -4.648  1.00  0.00     0.172 C 
ATOM     36  CB  ALA A   3     -16.461 -10.132  -5.942  1.00  0.00     0.042 C 
BRANCH  35  37
ATOM     37  N   ALA A   3     -17.036 -11.058  -3.717  1.00  0.00    -0.346 N 
ATOM     38  C   GLN A   2     -16.314 -10.932  -2.557  1.00  0.00     0.241 C 
ATOM     39  O   GLN A   2     -15.609  -9.943  -2.336  1.00  0.00    -0.271 OA
ATOM     40  H   ALA A   3     -17.562 -11.917  -3.890  1.00  0.00     0.163 HD
BRANCH  38  41
ATOM     41  CA  GLN A   2     -16.337 -12.087  -1.555  1.00  0.00     0.177 C 
BRANCH  41  42
ATOM     42  N   GLN A   2     -15.835 -13.230  -2.321  1.00  0.00    -0.346 N 
ATOM     43  C   ILE A   1     -14.643 -13.390  -2.971  1.00  0.00     0.251 C 
ATOM     44  O   ILE A   1     -13.686 -12.636  -2.955  1.00  0.00    -0.271 OA
ATOM     45  H   GLN A   2     -16.624 -13.692  -2.776  1.00  0.00     0.163 HD
BRANCH  43  46
ATOM     46  CA  ILE A   1     -14.550 -14.765  -3.713  1.00  0.00     0.312 C 
BRANCH  46  47
ATOM     47  CB  ILE A   1     -13.261 -15.028  -4.478  1.00  0.00     0.023 C 
ATOM     48  CG2 ILE A   1     -13.399 -14.930  -6.014  1.00  0.00     0.012 C 
BRANCH  47  49
ATOM     49  CG1 ILE A   1     -12.842 -16.414  -4.020  1.00  0.00     0.002 C 
ATOM     50  CD1 ILE A   1     -11.924 -17.119  -4.975  1.00  0.00     0.005 C 
ENDBRANCH  47  49
ENDBRANCH  46  47
BRANCH  46  51
ATOM     51  N   ILE A   1     -15.650 -14.680  -4.630  1.00  0.00     0.092 N 
ATOM     52  H1  ILE A   1     -16.022 -15.634  -4.680  1.00  0.00     0.313 HD
ATOM     53  H2  ILE A   1     -15.234 -14.666  -5.591  1.00  0.00     0.313 HD
ENDBRANCH  46  51
ENDBRANCH  43  46
ENDBRANCH  41  42
BRANCH  41  54
ATOM     54  CB  GLN A   2     -15.523 -11.935  -0.289  1.00  0.00     0.044 C 
BRANCH  54  55
ATOM     55  CG  GLN A   2     -16.180 -12.369   0.995  1.00  0.00     0.105 C 
BRANCH  55  56
ATOM     56  CD  GLN A   2     -15.703 -13.729   1.391  1.00  0.00     0.215 C 
ATOM     57  OE1 GLN A   2     -15.127 -14.470   0.600  1.00  0.00    -0.274 OA
ATOM     58  NE2 GLN A   2     -15.888 -14.034   2.698  1.00  0.00    -0.370 N 
ATOM     59 1HE2 GLN A   2     -16.161 -13.346   3.383  1.00  0.00     0.159 HD
ATOM     60 2HE2 GLN A   2     -15.509 -14.917   3.040  1.00  0.00     0.159 HD
ENDBRANCH  55  56
ENDBRANCH  54  55
ENDBRANCH  41  54
ENDBRANCH  38  41
ENDBRANCH  35  37
ENDBRANCH   1  35
TORSDOF 24
BEGIN_RES ARG D 557
REMARK  4 active torsions:
REMARK  status: ('A' for Active; 'I' for Inactive)
REMARK    1  A    between atoms: CA   and  CB  
REMARK    2  A    between atoms: CB   and  CG  
REMARK    3  A    between atoms: CG   and  CD  
REMARK    4  A    between atoms: CD   and  NE  
REMARK       I    between atoms: NE   and  CZ  
REMARK       I    between atoms: CZ   and  NH1 
REMARK       I    between atoms: CZ   and  NH2 
ROOT
ATOM      1  CA  ARG D 557     -26.217   2.705 -17.014  1.00 35.49     0.159 C 
ENDROOT
BRANCH   1   2
ATOM      2  CB  ARG D 557     -26.789   1.319 -17.183  1.00 35.49     0.034 C 
BRANCH   2   3
ATOM      3  CG  ARG D 557     -28.229   1.227 -17.452  1.00 35.49     0.027 C 
BRANCH   3   4
ATOM      4  CD  ARG D 557     -28.921   0.313 -16.515  1.00 35.49     0.116 C 
BRANCH   4   5
ATOM      5  NE  ARG D 557     -29.290  -0.929 -17.141  1.00 35.49    -0.212 N 
ATOM      6  CZ  ARG D 557     -28.646  -2.069 -17.025  1.00 35.49     0.666 C 
ATOM      7  NH1 ARG D 557     -27.545  -2.191 -16.306  1.00 35.49    -0.235 N 
ATOM      8  NH2 ARG D 557     -29.136  -3.101 -17.647  1.00 35.49    -0.235 N 
ATOM      9  HH  ARG D 557     -27.206  -1.525 -15.886  1.00 35.49     0.174 HD
ATOM     10  HH  ARG D 557     -27.170  -2.960 -16.265  1.00 35.49     0.174 HD
ATOM     11  HH  ARG D 557     -29.852  -2.994 -18.098  1.00 35.49     0.174 HD
ATOM     12  HH  ARG D 557     -28.750  -3.855 -17.592  1.00 35.49     0.174 HD
ATOM     13  HE  ARG D 557     -29.947  -0.924 -17.681  1.00 35.49     0.178 HD
ENDBRANCH   4   5
ENDBRANCH   3   4
ENDBRANCH   2   3
ENDBRANCH   1   2
END_RES ARG D 557
BEGIN_RES GLU D 570
REMARK  3 active torsions:
REMARK  status: ('A' for Active; 'I' for Inactive)
REMARK    5  A    between atoms: CA   and  CB  
REMARK    6  A    between atoms: CB   and  CG  
REMARK    7  A    between atoms: CG   and  CD  
ROOT
ATOM     14  CA  GLU D 570     -18.033  -6.348 -13.375  1.00 32.92     0.160 C 
ENDROOT
BRANCH  14  15
ATOM     15  CB  GLU D 570     -19.500  -6.345 -13.794  1.00 32.92     0.043 C 
BRANCH  15  16
ATOM     16  CG  GLU D 570     -20.063  -7.613 -14.325  1.00 32.92     0.100 C 
BRANCH  16  17
ATOM     17  CD  GLU D 570     -20.761  -7.438 -15.654  1.00 32.92     0.185 C 
ATOM     18  OE1 GLU D 570     -21.519  -8.338 -16.062  1.00 32.92    -0.647 OA
ATOM     19  OE2 GLU D 570     -20.533  -6.397 -16.300  1.00 32.92    -0.647 OA
ENDBRANCH  16  17
ENDBRANCH  15  16
ENDBRANCH  14  15
END_RES GLU D 570
ENDMDL
MODEL 9
REMARK VINA RESULT:      -7.4     12.964     17.133
REMARK  24 active torsions:
REMARK  status: ('A' for Active; 'I' for Inactive)
REMARK    1  A    between atoms: CG1_2  and  CB_3 
REMARK    2  A    between atoms: CB_3  and  CA_5 
REMARK    3  A    between atoms: CA_5  and  C_6 
REMARK    4  A    between atoms: CA_5  and  N_8 
REMARK       I    between atoms: C_6  and  N_11 
REMARK    5  A    between atoms: N_11  and  CA_12 
REMARK    6  A    between atoms: CA_12  and  CB_13 
REMARK    7  A    between atoms: CA_12  and  C_18 
REMARK    8  A    between atoms: CB_13  and  CG_14 
REMARK    9  A    between atoms: CG_14  and  CD_15 
REMARK       I    between atoms: CD_15  and  NE2_17 
REMARK       I    between atoms: C_18  and  N_23 
REMARK   10  A    between atoms: N_23  and  CA_24 
REMARK   11  A    between atoms: CA_24  and  C_26 
REMARK       I    between atoms: C_26  and  N_29 
REMARK   12  A    between atoms: N_29  and  CA_30 
REMARK   13  A    between atoms: CA_30  and  CB_31 
REMARK   14  A    between atoms: CA_30  and  C_33 
REMARK   15  A    between atoms: CB_31  and  SG_32 
REMARK       I    between atoms: C_33  and  N_37 
REMARK   16  A    between atoms: N_37  and  CA_38 
REMARK   17  A    between atoms: CA_38  and  CB_39 
REMARK   18  A    between atoms: CA_38  and  C_47 
REMARK   19  A    between atoms: CB_39  and  CG_40 
REMARK   20  A    between atoms: CG_40  and  CD_41 
REMARK   21  A    between atoms: CD_41  and  NE_42 
REMARK       I    between atoms: NE_42  and  CZ_44 
REMARK       I    between atoms: CZ_44  and  NH2_46 
REMARK       I    between atoms: C_47  and  N_54 
REMARK   22  A    between atoms: N_54  and  CA_55 
REMARK   23  A    between atoms: CA_55  and  C_56 
REMARK   24  A    between atoms: C_56  and  OXT_58 
ROOT
ATOM      1  C   ALA A   3     -20.868  -9.348   0.724  1.00  0.00     0.240 C 
ATOM      2  O   ALA A   3     -20.543  -9.269   1.907  1.00  0.00    -0.271 OA
ATOM      3  N   CYS A   4     -20.616 -10.460  -0.040  1.00  0.00    -0.345 N 
ATOM      4  H   CYS A   4     -20.870 -10.399  -1.027  1.00  0.00     0.163 HD
ENDROOT
BRANCH   3   5
ATOM      5  CA  CYS A   4     -19.886 -11.651   0.352  1.00  0.00     0.185 C 
BRANCH   5   6
ATOM      6  CB  CYS A   4     -20.738 -12.919   0.037  1.00  0.00     0.105 C 
BRANCH   6   7
ATOM      7  SG  CYS A   4     -22.273 -13.142   1.018  1.00  0.00    -0.180 SA
ATOM      8  HG  CYS A   4     -22.429 -11.863   1.387  1.00  0.00     0.101 HD
ENDBRANCH   6   7
ENDBRANCH   5   6
BRANCH   5   9
ATOM      9  C   CYS A   4     -18.448 -11.854  -0.320  1.00  0.00     0.241 C 
ATOM     10  O   CYS A   4     -17.495 -12.027   0.447  1.00  0.00    -0.271 OA
ATOM     11  N   ARG A   5     -18.254 -11.697  -1.701  1.00  0.00    -0.346 N 
ATOM     12  H   ARG A   5     -19.095 -11.654  -2.267  1.00  0.00     0.163 HD
BRANCH  11  13
ATOM     13  CA  ARG A   5     -16.896 -11.711  -2.509  1.00  0.00     0.176 C 
BRANCH  13  14
ATOM     14  CB  ARG A   5     -16.165 -10.384  -2.284  1.00  0.00     0.036 C 
BRANCH  14  15
ATOM     15  CG  ARG A   5     -16.091  -9.518  -3.509  1.00  0.00     0.022 C 
BRANCH  15  16
ATOM     16  CD  ARG A   5     -15.648 -10.245  -4.767  1.00  0.00     0.122 C 
BRANCH  16  17
ATOM     17  NE  ARG A   5     -16.788 -10.112  -5.662  1.00  0.00    -0.367 N 
ATOM     18  CZ  ARG A   5     -17.363 -11.152  -6.098  1.00  0.00     0.143 C 
ATOM     19  NH1 ARG A   5     -17.064 -12.451  -5.880  1.00  0.00    -0.376 N 
ATOM     20  NH2 ARG A   5     -18.462 -10.981  -6.883  1.00  0.00    -0.274 NA
ATOM     21 HH11 ARG A   5     -16.157 -12.626  -5.462  1.00  0.00     0.158 HD
ATOM     22 HH12 ARG A   5     -17.322 -13.133  -6.577  1.00  0.00     0.158 HD
ATOM     23 HH21 ARG A   5     -18.603  -9.997  -7.062  1.00  0.00     0.127 HD
ATOM     24 HH22 ARG A   5     -18.524 -11.551  -7.726  1.00  0.00     0.127 HD
ATOM     25  HE  ARG A   5     -17.121  -9.188  -5.937  1.00  0.00     0.162 HD
ENDBRANCH  16  17
ENDBRANCH  15  16
ENDBRANCH  14  15
ENDBRANCH  13  14
BRANCH  13  26
ATOM     26  C   ARG A   5     -16.025 -13.110  -2.264  1.00  0.00     0.240 C 
ATOM     27  O   ARG A   5     -16.241 -14.005  -3.088  1.00  0.00    -0.271 OA
ATOM     28  N   GLY A   6     -15.056 -13.368  -1.272  1.00  0.00    -0.349 N 
ATOM     29  H   GLY A   6     -14.768 -12.566  -0.733  1.00  0.00     0.163 HD
BRANCH  28  30
ATOM     30  CA  GLY A   6     -14.529 -14.710  -0.509  1.00  0.00     0.232 C 
BRANCH  30  31
ATOM     31  C   GLY A   6     -13.187 -15.065   0.338  1.00  0.00     0.158 C 
ATOM     32  O   GLY A   6     -12.547 -14.272   1.017  1.00  0.00    -0.649 OA
BRANCH  31  33
ATOM     33  OXT GLY A   6     -12.730 -16.360   0.219  1.00  0.00    -0.775 OA
ATOM     34  HXT GLY A   6     -11.993 -16.491  -0.419  1.00  0.00     0.167 HD
ENDBRANCH  31  33
ENDBRANCH  30  31
ENDBRANCH  28  30
ENDBRANCH  13  26
ENDBRANCH  11  13
ENDBRANCH   5   9
ENDBRANCH   3   5
BRANCH   1  35
ATOM     35  CA  ALA A   3     -21.596  -8.183  -0.019  1.00  0.00     0.172 C 
ATOM     36  CB  ALA A   3     -23.085  -8.075   0.315  1.00  0.00     0.042 C 
BRANCH  35  37
ATOM     37  N   ALA A   3     -21.375  -8.221  -1.473  1.00  0.00    -0.346 N 
ATOM     38  C   GLN A   2     -21.499  -7.115  -2.275  1.00  0.00     0.241 C 
ATOM     39  O   GLN A   2     -22.026  -6.075  -1.869  1.00  0.00    -0.271 OA
ATOM     40  H   ALA A   3     -20.986  -9.082  -1.862  1.00  0.00     0.163 HD
BRANCH  38  41
ATOM     41  CA  GLN A   2     -21.031  -7.212  -3.728  1.00  0.00     0.177 C 
BRANCH  41  42
ATOM     42  N   GLN A   2     -21.432  -8.559  -4.140  1.00  0.00    -0.346 N 
ATOM     43  C   ILE A   1     -20.687  -9.702  -4.232  1.00  0.00     0.251 C 
ATOM     44  O   ILE A   1     -19.532  -9.862  -3.877  1.00  0.00    -0.271 OA
ATOM     45  H   GLN A   2     -22.167  -8.482  -4.845  1.00  0.00     0.163 HD
BRANCH  43  46
ATOM     46  CA  ILE A   1     -21.519 -10.912  -4.773  1.00  0.00     0.312 C 
BRANCH  46  47
ATOM     47  CB  ILE A   1     -21.116 -12.287  -4.258  1.00  0.00     0.023 C 
ATOM     48  CG2 ILE A   1     -20.832 -13.326  -5.367  1.00  0.00     0.012 C 
BRANCH  47  49
ATOM     49  CG1 ILE A   1     -22.273 -12.695  -3.365  1.00  0.00     0.002 C 
ATOM     50  CD1 ILE A   1     -22.915 -11.550  -2.637  1.00  0.00     0.005 C 
ENDBRANCH  47  49
ENDBRANCH  46  47
BRANCH  46  51
ATOM     51  N   ILE A   1     -21.273 -10.832  -6.184  1.00  0.00     0.092 N 
ATOM     52  H1  ILE A   1     -22.028 -10.241  -6.548  1.00  0.00     0.313 HD
ATOM     53  H2  ILE A   1     -21.618 -11.730  -6.597  1.00  0.00     0.313 HD
ENDBRANCH  46  51
ENDBRANCH  43  46
ENDBRANCH  41  42
BRANCH  41  54
ATOM     54  CB  GLN A   2     -21.579  -6.203  -4.712  1.00  0.00     0.044 C 
BRANCH  54  55
ATOM     55  CG  GLN A   2     -20.603  -5.201  -5.270  1.00  0.00     0.105 C 
BRANCH  55  56
ATOM     56  CD  GLN A   2     -20.575  -5.277  -6.763  1.00  0.00     0.215 C 
ATOM     57  OE1 GLN A   2     -20.737  -6.335  -7.361  1.00  0.00    -0.274 OA
ATOM     58  NE2 GLN A   2     -20.438  -4.081  -7.386  1.00  0.00    -0.370 N 
ATOM     59 1HE2 GLN A   2     -20.523  -3.202  -6.899  1.00  0.00     0.159 HD
ATOM     60 2HE2 GLN A   2     -20.493  -4.065  -8.404  1.00  0.00     0.159 HD
ENDBRANCH  55  56
ENDBRANCH  54  55
ENDBRANCH  41  54
ENDBRANCH  38  41
ENDBRANCH  35  37
ENDBRANCH   1  35
TORSDOF 24
BEGIN_RES ARG D 557
REMARK  4 active torsions:
REMARK  status: ('A' for Active; 'I' for Inactive)
REMARK    1  A    between atoms: CA   and  CB  
REMARK    2  A    between atoms: CB   and  CG  
REMARK    3  A    between atoms: CG   and  CD  
REMARK    4  A    between atoms: CD   and  NE  
REMARK       I    between atoms: NE   and  CZ  
REMARK       I    between atoms: CZ   and  NH1 
REMARK       I    between atoms: CZ   and  NH2 
ROOT
ATOM      1  CA  ARG D 557     -26.217   2.705 -17.014  1.00 35.49     0.159 C 
ENDROOT
BRANCH   1   2
ATOM      2  CB  ARG D 557     -26.789   1.319 -17.183  1.00 35.49     0.034 C 
BRANCH   2   3
ATOM      3  CG  ARG D 557     -25.871   0.194 -16.965  1.00 35.49     0.027 C 
BRANCH   3   4
ATOM      4  CD  ARG D 557     -26.311  -0.687 -15.860  1.00 35.49     0.116 C 
BRANCH   4   5
ATOM      5  NE  ARG D 557     -25.257  -0.933 -14.911  1.00 35.49    -0.212 N 
ATOM      6  CZ  ARG D 557     -24.966  -2.096 -14.370  1.00 35.49     0.666 C 
ATOM      7  NH1 ARG D 557     -25.645  -3.194 -14.643  1.00 35.49    -0.235 N 
ATOM      8  NH2 ARG D 557     -23.962  -2.139 -13.544  1.00 35.49    -0.235 N 
ATOM      9  HH  ARG D 557     -26.309  -3.190 -15.186  1.00 35.49     0.174 HD
ATOM     10  HH  ARG D 557     -25.408  -3.925 -14.263  1.00 35.49     0.174 HD
ATOM     11  HH  ARG D 557     -23.537  -1.415 -13.392  1.00 35.49     0.174 HD
ATOM     12  HH  ARG D 557     -23.742  -2.871 -13.178  1.00 35.49     0.174 HD
ATOM     13  HE  ARG D 557     -24.815  -0.266 -14.623  1.00 35.49     0.178 HD
ENDBRANCH   4   5
ENDBRANCH   3   4
ENDBRANCH   2   3
ENDBRANCH   1   2
END_RES ARG D 557
BEGIN_RES GLU D 570
REMARK  3 active torsions:
REMARK  status: ('A' for Active; 'I' for Inactive)
REMARK    5  A    between atoms: CA   and  CB  
REMARK    6  A    between atoms: CB   and  CG  
REMARK    7  A    between atoms: CG   and  CD  
ROOT
ATOM     14  CA  GLU D 570     -18.033  -6.348 -13.375  1.00 32.92     0.160 C 
ENDROOT
BRANCH  14  15
ATOM     15  CB  GLU D 570     -19.500  -6.345 -13.794  1.00 32.92     0.043 C 
BRANCH  15  16
ATOM     16  CG  GLU D 570     -20.447  -5.556 -12.965  1.00 32.92     0.100 C 
BRANCH  16  17
ATOM     17  CD  GLU D 570     -21.702  -5.167 -13.712  1.00 32.92     0.185 C 
ATOM     18  OE1 GLU D 570     -22.727  -4.882 -13.064  1.00 32.92    -0.647 OA
ATOM     19  OE2 GLU D 570     -21.663  -5.164 -14.958  1.00 32.92    -0.647 OA
ENDBRANCH  16  17
ENDBRANCH  15  16
ENDBRANCH  14  15
END_RES GLU D 570
ENDMDL
