MODEL 1
REMARK VINA RESULT:      -7.4      0.000      0.000
REMARK  14 active torsions:
REMARK  status: ('A' for Active; 'I' for Inactive)
REMARK    1  A    between atoms: C_2  and  C_3 
REMARK    2  A    between atoms: C_3  and  C_4 
REMARK    3  A    between atoms: C_4  and  C_5 
REMARK    4  A    between atoms: C_5  and  C_6 
REMARK    5  A    between atoms: C_6  and  C_7 
REMARK    6  A    between atoms: C_7  and  C_8 
REMARK    7  A    between atoms: C_8  and  C_9 
REMARK    8  A    between atoms: C_9  and  C_10 
REMARK    9  A    between atoms: C_10  and  C_11 
REMARK   10  A    between atoms: C_11  and  C_12 
REMARK       I    between atoms: C_12  and  N_14 
REMARK   11  A    between atoms: N_14  and  C_16 
REMARK   12  A    between atoms: C_16  and  C_17 
REMARK   13  A    between atoms: C_17  and  O_19 
REMARK   14  A    between atoms: O_19  and  C_20 
ROOT
HETATM    1  C   UNL     1     -20.852  -3.693  -7.668  1.00  0.00     0.103 C 
ENDROOT
BRANCH   1   2
HETATM    2  C   UNL     1     -19.988  -4.873  -7.255  1.00  0.00     0.009 C 
BRANCH   2   3
HETATM    3  C   UNL     1     -20.248  -5.249  -5.796  1.00  0.00     0.000 C 
BRANCH   3   4
HETATM    4  C   UNL     1     -20.893  -6.626  -5.717  1.00  0.00     0.000 C 
BRANCH   4   5
HETATM    5  C   UNL     1     -22.177  -6.583  -4.901  1.00  0.00     0.000 C 
BRANCH   5   6
HETATM    6  C   UNL     1     -21.855  -6.446  -3.419  1.00  0.00     0.000 C 
BRANCH   6   7
HETATM    7  C   UNL     1     -20.910  -7.552  -2.973  1.00  0.00     0.000 C 
BRANCH   7   8
HETATM    8  C   UNL     1     -21.434  -8.226  -1.712  1.00  0.00     0.000 C 
BRANCH   8   9
HETATM    9  C   UNL     1     -22.206  -7.229  -0.858  1.00  0.00    -0.000 C 
BRANCH   9  10
HETATM   10  C   UNL     1     -22.704  -7.884   0.424  1.00  0.00    -0.005 C 
HETATM   11  C   UNL     1     -21.538  -8.339   1.283  1.00  0.00     0.005 C 
ENDBRANCH   9  10
ENDBRANCH   8   9
ENDBRANCH   7   8
ENDBRANCH   6   7
ENDBRANCH   5   6
ENDBRANCH   4   5
ENDBRANCH   3   4
ENDBRANCH   2   3
ENDBRANCH   1   2
BRANCH   1  12
HETATM   12  C   UNL     1     -22.198  -4.105  -8.264  1.00  0.00     0.219 C 
HETATM   13  O   UNL     1     -23.175  -4.335  -7.575  1.00  0.00    -0.273 OA
HETATM   14  N   UNL     1     -22.227  -4.207  -9.653  1.00  0.00    -0.347 N 
HETATM   15  C   UNL     1     -21.080  -3.930 -10.507  1.00  0.00     0.153 C 
BRANCH  14  16
HETATM   16  C   UNL     1     -23.508  -4.568 -10.295  1.00  0.00     0.236 C 
BRANCH  16  17
HETATM   17  C   UNL     1     -24.505  -3.425 -10.575  1.00  0.00     0.277 C 
HETATM   18  O   UNL     1     -25.541  -3.266  -9.936  1.00  0.00    -0.263 OA
BRANCH  17  19
HETATM   19  O   UNL     1     -24.139  -2.630 -11.629  1.00  0.00    -0.316 OA
BRANCH  19  20
HETATM   20  C   UNL     1     -24.172  -3.320 -12.894  1.00  0.00     0.123 C 
HETATM   21  C   UNL     1     -25.380  -2.869 -13.712  1.00  0.00     0.040 C 
HETATM   22  C   UNL     1     -22.891  -3.031 -13.666  1.00  0.00     0.040 C 
ENDBRANCH  19  20
ENDBRANCH  17  19
ENDBRANCH  16  17
ENDBRANCH  14  16
ENDBRANCH   1  12
TORSDOF 14
BEGIN_RES ARG D 557
REMARK  4 active torsions:
REMARK  status: ('A' for Active; 'I' for Inactive)
REMARK    1  A    between atoms: CA   and  CB  
REMARK    2  A    between atoms: CB   and  CG  
REMARK    3  A    between atoms: CG   and  CD  
REMARK    4  A    between atoms: CD   and  NE  
REMARK       I    between atoms: NE   and  CZ  
REMARK       I    between atoms: CZ   and  NH1 
REMARK       I    between atoms: CZ   and  NH2 
ROOT
ATOM      1  CA  ARG D 557     -26.217   2.705 -17.014  1.00 35.49     0.159 C 
ENDROOT
BRANCH   1   2
ATOM      2  CB  ARG D 557     -26.789   1.319 -17.183  1.00 35.49     0.034 C 
BRANCH   2   3
ATOM      3  CG  ARG D 557     -28.149   1.100 -16.677  1.00 35.49     0.027 C 
BRANCH   3   4
ATOM      4  CD  ARG D 557     -28.786  -0.098 -17.272  1.00 35.49     0.116 C 
BRANCH   4   5
ATOM      5  NE  ARG D 557     -28.156  -1.318 -16.842  1.00 35.49    -0.212 N 
ATOM      6  CZ  ARG D 557     -28.626  -2.531 -17.025  1.00 35.49     0.666 C 
ATOM      7  NH1 ARG D 557     -29.775  -2.762 -17.633  1.00 35.49    -0.235 N 
ATOM      8  NH2 ARG D 557     -27.909  -3.525 -16.587  1.00 35.49    -0.235 N 
ATOM      9  HH  ARG D 557     -30.262  -2.124 -17.931  1.00 35.49     0.174 HD
ATOM     10  HH  ARG D 557     -30.030  -3.575 -17.726  1.00 35.49     0.174 HD
ATOM     11  HH  ARG D 557     -27.168  -3.346 -16.205  1.00 35.49     0.174 HD
ATOM     12  HH  ARG D 557     -28.178  -4.323 -16.690  1.00 35.49     0.174 HD
ATOM     13  HE  ARG D 557     -27.446  -1.258 -16.378  1.00 35.49     0.178 HD
ENDBRANCH   4   5
ENDBRANCH   3   4
ENDBRANCH   2   3
ENDBRANCH   1   2
END_RES ARG D 557
BEGIN_RES GLU D 570
REMARK  3 active torsions:
REMARK  status: ('A' for Active; 'I' for Inactive)
REMARK    5  A    between atoms: CA   and  CB  
REMARK    6  A    between atoms: CB   and  CG  
REMARK    7  A    between atoms: CG   and  CD  
ROOT
ATOM     14  CA  GLU D 570     -18.033  -6.348 -13.375  1.00 32.92     0.160 C 
ENDROOT
BRANCH  14  15
ATOM     15  CB  GLU D 570     -19.500  -6.345 -13.794  1.00 32.92     0.043 C 
BRANCH  15  16
ATOM     16  CG  GLU D 570     -19.803  -6.071 -15.222  1.00 32.92     0.100 C 
BRANCH  16  17
ATOM     17  CD  GLU D 570     -21.270  -5.808 -15.474  1.00 32.92     0.185 C 
ATOM     18  OE1 GLU D 570     -22.117  -6.361 -14.746  1.00 32.92    -0.647 OA
ATOM     19  OE2 GLU D 570     -21.575  -5.055 -16.419  1.00 32.92    -0.647 OA
ENDBRANCH  16  17
ENDBRANCH  15  16
ENDBRANCH  14  15
END_RES GLU D 570
ENDMDL
MODEL 2
REMARK VINA RESULT:      -7.1      1.511      2.134
REMARK  14 active torsions:
REMARK  status: ('A' for Active; 'I' for Inactive)
REMARK    1  A    between atoms: C_2  and  C_3 
REMARK    2  A    between atoms: C_3  and  C_4 
REMARK    3  A    between atoms: C_4  and  C_5 
REMARK    4  A    between atoms: C_5  and  C_6 
REMARK    5  A    between atoms: C_6  and  C_7 
REMARK    6  A    between atoms: C_7  and  C_8 
REMARK    7  A    between atoms: C_8  and  C_9 
REMARK    8  A    between atoms: C_9  and  C_10 
REMARK    9  A    between atoms: C_10  and  C_11 
REMARK   10  A    between atoms: C_11  and  C_12 
REMARK       I    between atoms: C_12  and  N_14 
REMARK   11  A    between atoms: N_14  and  C_16 
REMARK   12  A    between atoms: C_16  and  C_17 
REMARK   13  A    between atoms: C_17  and  O_19 
REMARK   14  A    between atoms: O_19  and  C_20 
ROOT
HETATM    1  C   UNL     1     -22.157  -4.393  -8.724  1.00  0.00     0.103 C 
ENDROOT
BRANCH   1   2
HETATM    2  C   UNL     1     -21.426  -3.684  -7.596  1.00  0.00     0.009 C 
BRANCH   2   3
HETATM    3  C   UNL     1     -20.251  -4.526  -7.099  1.00  0.00     0.000 C 
BRANCH   3   4
HETATM    4  C   UNL     1     -20.433  -4.861  -5.625  1.00  0.00     0.000 C 
BRANCH   4   5
HETATM    5  C   UNL     1     -20.777  -6.332  -5.437  1.00  0.00     0.000 C 
BRANCH   5   6
HETATM    6  C   UNL     1     -22.038  -6.474  -4.595  1.00  0.00     0.000 C 
BRANCH   6   7
HETATM    7  C   UNL     1     -21.699  -6.437  -3.113  1.00  0.00     0.000 C 
BRANCH   7   8
HETATM    8  C   UNL     1     -20.879  -7.659  -2.721  1.00  0.00     0.000 C 
BRANCH   8   9
HETATM    9  C   UNL     1     -21.036  -7.951  -1.235  1.00  0.00    -0.000 C 
BRANCH   9  10
HETATM   10  C   UNL     1     -22.374  -7.435  -0.719  1.00  0.00    -0.005 C 
HETATM   11  C   UNL     1     -22.651  -7.965   0.677  1.00  0.00     0.005 C 
ENDBRANCH   9  10
ENDBRANCH   8   9
ENDBRANCH   7   8
ENDBRANCH   6   7
ENDBRANCH   5   6
ENDBRANCH   4   5
ENDBRANCH   3   4
ENDBRANCH   2   3
ENDBRANCH   1   2
BRANCH   1  12
HETATM   12  C   UNL     1     -21.705  -3.947 -10.115  1.00  0.00     0.219 C 
HETATM   13  O   UNL     1     -20.542  -3.997 -10.471  1.00  0.00    -0.273 OA
HETATM   14  N   UNL     1     -22.718  -3.473 -10.946  1.00  0.00    -0.347 N 
HETATM   15  C   UNL     1     -24.120  -3.410 -10.555  1.00  0.00     0.153 C 
BRANCH  14  16
HETATM   16  C   UNL     1     -22.353  -3.058 -12.316  1.00  0.00     0.236 C 
BRANCH  16  17
HETATM   17  C   UNL     1     -22.906  -3.905 -13.481  1.00  0.00     0.277 C 
HETATM   18  O   UNL     1     -22.920  -5.133 -13.470  1.00  0.00    -0.263 OA
BRANCH  17  19
HETATM   19  O   UNL     1     -23.343  -3.155 -14.540  1.00  0.00    -0.316 OA
BRANCH  19  20
HETATM   20  C   UNL     1     -24.378  -2.218 -14.179  1.00  0.00     0.123 C 
HETATM   21  C   UNL     1     -24.318  -0.989 -15.082  1.00  0.00     0.040 C 
HETATM   22  C   UNL     1     -25.739  -2.887 -14.310  1.00  0.00     0.040 C 
ENDBRANCH  19  20
ENDBRANCH  17  19
ENDBRANCH  16  17
ENDBRANCH  14  16
ENDBRANCH   1  12
TORSDOF 14
BEGIN_RES ARG D 557
REMARK  4 active torsions:
REMARK  status: ('A' for Active; 'I' for Inactive)
REMARK    1  A    between atoms: CA   and  CB  
REMARK    2  A    between atoms: CB   and  CG  
REMARK    3  A    between atoms: CG   and  CD  
REMARK    4  A    between atoms: CD   and  NE  
REMARK       I    between atoms: NE   and  CZ  
REMARK       I    between atoms: CZ   and  NH1 
REMARK       I    between atoms: CZ   and  NH2 
ROOT
ATOM      1  CA  ARG D 557     -26.217   2.705 -17.014  1.00 35.49     0.159 C 
ENDROOT
BRANCH   1   2
ATOM      2  CB  ARG D 557     -26.789   1.319 -17.183  1.00 35.49     0.034 C 
BRANCH   2   3
ATOM      3  CG  ARG D 557     -28.101   1.067 -16.576  1.00 35.49     0.027 C 
BRANCH   3   4
ATOM      4  CD  ARG D 557     -28.844  -0.014 -17.263  1.00 35.49     0.116 C 
BRANCH   4   5
ATOM      5  NE  ARG D 557     -28.310  -1.316 -16.959  1.00 35.49    -0.212 N 
ATOM      6  CZ  ARG D 557     -28.939  -2.459 -17.117  1.00 35.49     0.666 C 
ATOM      7  NH1 ARG D 557     -30.175  -2.532 -17.575  1.00 35.49    -0.235 N 
ATOM      8  NH2 ARG D 557     -28.293  -3.547 -16.810  1.00 35.49    -0.235 N 
ATOM      9  HH  ARG D 557     -30.618  -1.829 -17.786  1.00 35.49     0.174 HD
ATOM     10  HH  ARG D 557     -30.533  -3.306 -17.660  1.00 35.49     0.174 HD
ATOM     11  HH  ARG D 557     -27.494  -3.470 -16.523  1.00 35.49     0.174 HD
ATOM     12  HH  ARG D 557     -28.664  -4.303 -16.902  1.00 35.49     0.174 HD
ATOM     13  HE  ARG D 557     -27.545  -1.358 -16.591  1.00 35.49     0.178 HD
ENDBRANCH   4   5
ENDBRANCH   3   4
ENDBRANCH   2   3
ENDBRANCH   1   2
END_RES ARG D 557
BEGIN_RES GLU D 570
REMARK  3 active torsions:
REMARK  status: ('A' for Active; 'I' for Inactive)
REMARK    5  A    between atoms: CA   and  CB  
REMARK    6  A    between atoms: CB   and  CG  
REMARK    7  A    between atoms: CG   and  CD  
ROOT
ATOM     14  CA  GLU D 570     -18.033  -6.348 -13.375  1.00 32.92     0.160 C 
ENDROOT
BRANCH  14  15
ATOM     15  CB  GLU D 570     -19.500  -6.345 -13.794  1.00 32.92     0.043 C 
BRANCH  15  16
ATOM     16  CG  GLU D 570     -20.111  -7.650 -14.156  1.00 32.92     0.100 C 
BRANCH  16  17
ATOM     17  CD  GLU D 570     -20.708  -7.656 -15.544  1.00 32.92     0.185 C 
ATOM     18  OE1 GLU D 570     -20.724  -8.721 -16.191  1.00 32.92    -0.647 OA
ATOM     19  OE2 GLU D 570     -21.148  -6.581 -15.996  1.00 32.92    -0.647 OA
ENDBRANCH  16  17
ENDBRANCH  15  16
ENDBRANCH  14  15
END_RES GLU D 570
ENDMDL
MODEL 3
REMARK VINA RESULT:      -7.0      4.093      7.102
REMARK  14 active torsions:
REMARK  status: ('A' for Active; 'I' for Inactive)
REMARK    1  A    between atoms: C_2  and  C_3 
REMARK    2  A    between atoms: C_3  and  C_4 
REMARK    3  A    between atoms: C_4  and  C_5 
REMARK    4  A    between atoms: C_5  and  C_6 
REMARK    5  A    between atoms: C_6  and  C_7 
REMARK    6  A    between atoms: C_7  and  C_8 
REMARK    7  A    between atoms: C_8  and  C_9 
REMARK    8  A    between atoms: C_9  and  C_10 
REMARK    9  A    between atoms: C_10  and  C_11 
REMARK   10  A    between atoms: C_11  and  C_12 
REMARK       I    between atoms: C_12  and  N_14 
REMARK   11  A    between atoms: N_14  and  C_16 
REMARK   12  A    between atoms: C_16  and  C_17 
REMARK   13  A    between atoms: C_17  and  O_19 
REMARK   14  A    between atoms: O_19  and  C_20 
ROOT
HETATM    1  C   UNL     1     -24.616  -5.236 -14.716  1.00  0.00     0.103 C 
ENDROOT
BRANCH   1   2
HETATM    2  C   UNL     1     -23.515  -5.950 -13.951  1.00  0.00     0.009 C 
BRANCH   2   3
HETATM    3  C   UNL     1     -23.245  -5.255 -12.616  1.00  0.00     0.000 C 
BRANCH   3   4
HETATM    4  C   UNL     1     -22.082  -4.283 -12.759  1.00  0.00     0.000 C 
BRANCH   4   5
HETATM    5  C   UNL     1     -21.928  -3.429 -11.508  1.00  0.00     0.000 C 
BRANCH   5   6
HETATM    6  C   UNL     1     -20.499  -3.511 -10.987  1.00  0.00     0.000 C 
BRANCH   6   7
HETATM    7  C   UNL     1     -20.409  -4.489  -9.826  1.00  0.00     0.000 C 
BRANCH   7   8
HETATM    8  C   UNL     1     -21.719  -4.520  -9.050  1.00  0.00     0.000 C 
BRANCH   8   9
HETATM    9  C   UNL     1     -21.566  -3.796  -7.718  1.00  0.00    -0.000 C 
BRANCH   9  10
HETATM   10  C   UNL     1     -21.363  -4.790  -6.581  1.00  0.00    -0.005 C 
HETATM   11  C   UNL     1     -19.935  -4.735  -6.069  1.00  0.00     0.005 C 
ENDBRANCH   9  10
ENDBRANCH   8   9
ENDBRANCH   7   8
ENDBRANCH   6   7
ENDBRANCH   5   6
ENDBRANCH   4   5
ENDBRANCH   3   4
ENDBRANCH   2   3
ENDBRANCH   1   2
BRANCH   1  12
HETATM   12  C   UNL     1     -25.584  -6.189 -15.419  1.00  0.00     0.219 C 
HETATM   13  O   UNL     1     -25.381  -7.387 -15.495  1.00  0.00    -0.273 OA
HETATM   14  N   UNL     1     -26.712  -5.588 -15.973  1.00  0.00    -0.347 N 
HETATM   15  C   UNL     1     -26.989  -4.160 -15.891  1.00  0.00     0.153 C 
BRANCH  14  16
HETATM   16  C   UNL     1     -27.705  -6.457 -16.638  1.00  0.00     0.236 C 
BRANCH  16  17
HETATM   17  C   UNL     1     -28.150  -6.061 -18.061  1.00  0.00     0.277 C 
HETATM   18  O   UNL     1     -27.485  -6.304 -19.064  1.00  0.00    -0.263 OA
BRANCH  17  19
HETATM   19  O   UNL     1     -29.337  -5.379 -18.090  1.00  0.00    -0.316 OA
BRANCH  19  20
HETATM   20  C   UNL     1     -30.288  -5.861 -17.120  1.00  0.00     0.123 C 
HETATM   21  C   UNL     1     -31.306  -4.773 -16.789  1.00  0.00     0.040 C 
HETATM   22  C   UNL     1     -31.005  -7.085 -17.673  1.00  0.00     0.040 C 
ENDBRANCH  19  20
ENDBRANCH  17  19
ENDBRANCH  16  17
ENDBRANCH  14  16
ENDBRANCH   1  12
TORSDOF 14
BEGIN_RES ARG D 557
REMARK  4 active torsions:
REMARK  status: ('A' for Active; 'I' for Inactive)
REMARK    1  A    between atoms: CA   and  CB  
REMARK    2  A    between atoms: CB   and  CG  
REMARK    3  A    between atoms: CG   and  CD  
REMARK    4  A    between atoms: CD   and  NE  
REMARK       I    between atoms: NE   and  CZ  
REMARK       I    between atoms: CZ   and  NH1 
REMARK       I    between atoms: CZ   and  NH2 
ROOT
ATOM      1  CA  ARG D 557     -26.217   2.705 -17.014  1.00 35.49     0.159 C 
ENDROOT
BRANCH   1   2
ATOM      2  CB  ARG D 557     -26.789   1.319 -17.183  1.00 35.49     0.034 C 
BRANCH   2   3
ATOM      3  CG  ARG D 557     -25.829   0.209 -17.230  1.00 35.49     0.027 C 
BRANCH   3   4
ATOM      4  CD  ARG D 557     -24.724   0.378 -16.259  1.00 35.49     0.116 C 
BRANCH   4   5
ATOM      5  NE  ARG D 557     -24.924  -0.403 -15.067  1.00 35.49    -0.212 N 
ATOM      6  CZ  ARG D 557     -24.164  -1.396 -14.663  1.00 35.49     0.666 C 
ATOM      7  NH1 ARG D 557     -23.107  -1.802 -15.342  1.00 35.49    -0.235 N 
ATOM      8  NH2 ARG D 557     -24.483  -1.980 -13.545  1.00 35.49    -0.235 N 
ATOM      9  HH  ARG D 557     -22.877  -1.431 -16.080  1.00 35.49     0.174 HD
ATOM     10  HH  ARG D 557     -22.647  -2.453 -15.028  1.00 35.49     0.174 HD
ATOM     11  HH  ARG D 557     -25.167  -1.691 -13.124  1.00 35.49     0.174 HD
ATOM     12  HH  ARG D 557     -24.014  -2.622 -13.249  1.00 35.49     0.174 HD
ATOM     13  HE  ARG D 557     -25.624  -0.257 -14.607  1.00 35.49     0.178 HD
ENDBRANCH   4   5
ENDBRANCH   3   4
ENDBRANCH   2   3
ENDBRANCH   1   2
END_RES ARG D 557
BEGIN_RES GLU D 570
REMARK  3 active torsions:
REMARK  status: ('A' for Active; 'I' for Inactive)
REMARK    5  A    between atoms: CA   and  CB  
REMARK    6  A    between atoms: CB   and  CG  
REMARK    7  A    between atoms: CG   and  CD  
ROOT
ATOM     14  CA  GLU D 570     -18.033  -6.348 -13.375  1.00 32.92     0.160 C 
ENDROOT
BRANCH  14  15
ATOM     15  CB  GLU D 570     -19.500  -6.345 -13.794  1.00 32.92     0.043 C 
BRANCH  15  16
ATOM     16  CG  GLU D 570     -19.797  -6.241 -15.246  1.00 32.92     0.100 C 
BRANCH  16  17
ATOM     17  CD  GLU D 570     -20.659  -7.374 -15.754  1.00 32.92     0.185 C 
ATOM     18  OE1 GLU D 570     -20.587  -8.486 -15.196  1.00 32.92    -0.647 OA
ATOM     19  OE2 GLU D 570     -21.402  -7.150 -16.730  1.00 32.92    -0.647 OA
ENDBRANCH  16  17
ENDBRANCH  15  16
ENDBRANCH  14  15
END_RES GLU D 570
ENDMDL
MODEL 4
REMARK VINA RESULT:      -6.7      1.974      2.896
REMARK  14 active torsions:
REMARK  status: ('A' for Active; 'I' for Inactive)
REMARK    1  A    between atoms: C_2  and  C_3 
REMARK    2  A    between atoms: C_3  and  C_4 
REMARK    3  A    between atoms: C_4  and  C_5 
REMARK    4  A    between atoms: C_5  and  C_6 
REMARK    5  A    between atoms: C_6  and  C_7 
REMARK    6  A    between atoms: C_7  and  C_8 
REMARK    7  A    between atoms: C_8  and  C_9 
REMARK    8  A    between atoms: C_9  and  C_10 
REMARK    9  A    between atoms: C_10  and  C_11 
REMARK   10  A    between atoms: C_11  and  C_12 
REMARK       I    between atoms: C_12  and  N_14 
REMARK   11  A    between atoms: N_14  and  C_16 
REMARK   12  A    between atoms: C_16  and  C_17 
REMARK   13  A    between atoms: C_17  and  O_19 
REMARK   14  A    between atoms: O_19  and  C_20 
ROOT
HETATM    1  C   UNL     1     -21.720  -5.609  -6.149  1.00  0.00     0.103 C 
ENDROOT
BRANCH   1   2
HETATM    2  C   UNL     1     -20.957  -5.602  -4.835  1.00  0.00     0.009 C 
BRANCH   2   3
HETATM    3  C   UNL     1     -21.285  -6.848  -4.012  1.00  0.00     0.000 C 
BRANCH   3   4
HETATM    4  C   UNL     1     -21.662  -6.452  -2.591  1.00  0.00     0.000 C 
BRANCH   4   5
HETATM    5  C   UNL     1     -21.909  -7.682  -1.728  1.00  0.00     0.000 C 
BRANCH   5   6
HETATM    6  C   UNL     1     -22.219  -7.267  -0.296  1.00  0.00     0.000 C 
BRANCH   6   7
HETATM    7  C   UNL     1     -23.132  -8.285   0.370  1.00  0.00     0.000 C 
BRANCH   7   8
HETATM    8  C   UNL     1     -22.767  -9.698  -0.069  1.00  0.00     0.000 C 
BRANCH   8   9
HETATM    9  C   UNL     1     -23.996 -10.597  -0.041  1.00  0.00    -0.000 C 
BRANCH   9  10
HETATM   10  C   UNL     1     -23.915 -11.661  -1.128  1.00  0.00    -0.005 C 
HETATM   11  C   UNL     1     -23.149 -11.141  -2.332  1.00  0.00     0.005 C 
ENDBRANCH   9  10
ENDBRANCH   8   9
ENDBRANCH   7   8
ENDBRANCH   6   7
ENDBRANCH   5   6
ENDBRANCH   4   5
ENDBRANCH   3   4
ENDBRANCH   2   3
ENDBRANCH   1   2
BRANCH   1  12
HETATM   12  C   UNL     1     -20.812  -5.573  -7.378  1.00  0.00     0.219 C 
HETATM   13  O   UNL     1     -19.864  -6.325  -7.513  1.00  0.00    -0.273 OA
HETATM   14  N   UNL     1     -21.141  -4.612  -8.332  1.00  0.00    -0.347 N 
HETATM   15  C   UNL     1     -22.272  -3.704  -8.206  1.00  0.00     0.153 C 
BRANCH  14  16
HETATM   16  C   UNL     1     -20.323  -4.546  -9.561  1.00  0.00     0.236 C 
BRANCH  16  17
HETATM   17  C   UNL     1     -20.996  -3.977 -10.827  1.00  0.00     0.277 C 
HETATM   18  O   UNL     1     -20.635  -2.936 -11.368  1.00  0.00    -0.263 OA
BRANCH  17  19
HETATM   19  O   UNL     1     -22.057  -4.725 -11.263  1.00  0.00    -0.316 OA
BRANCH  19  20
HETATM   20  C   UNL     1     -22.753  -4.125 -12.373  1.00  0.00     0.123 C 
HETATM   21  C   UNL     1     -23.077  -5.179 -13.429  1.00  0.00     0.040 C 
HETATM   22  C   UNL     1     -24.040  -3.478 -11.879  1.00  0.00     0.040 C 
ENDBRANCH  19  20
ENDBRANCH  17  19
ENDBRANCH  16  17
ENDBRANCH  14  16
ENDBRANCH   1  12
TORSDOF 14
BEGIN_RES ARG D 557
REMARK  4 active torsions:
REMARK  status: ('A' for Active; 'I' for Inactive)
REMARK    1  A    between atoms: CA   and  CB  
REMARK    2  A    between atoms: CB   and  CG  
REMARK    3  A    between atoms: CG   and  CD  
REMARK    4  A    between atoms: CD   and  NE  
REMARK       I    between atoms: NE   and  CZ  
REMARK       I    between atoms: CZ   and  NH1 
REMARK       I    between atoms: CZ   and  NH2 
ROOT
ATOM      1  CA  ARG D 557     -26.217   2.705 -17.014  1.00 35.49     0.159 C 
ENDROOT
BRANCH   1   2
ATOM      2  CB  ARG D 557     -26.789   1.319 -17.183  1.00 35.49     0.034 C 
BRANCH   2   3
ATOM      3  CG  ARG D 557     -28.215   1.151 -16.878  1.00 35.49     0.027 C 
BRANCH   3   4
ATOM      4  CD  ARG D 557     -28.567  -0.257 -16.583  1.00 35.49     0.116 C 
BRANCH   4   5
ATOM      5  NE  ARG D 557     -27.523  -0.938 -15.864  1.00 35.49    -0.212 N 
ATOM      6  CZ  ARG D 557     -27.259  -2.224 -15.927  1.00 35.49     0.666 C 
ATOM      7  NH1 ARG D 557     -27.961  -3.055 -16.675  1.00 35.49    -0.235 N 
ATOM      8  NH2 ARG D 557     -26.259  -2.667 -15.222  1.00 35.49    -0.235 N 
ATOM      9  HH  ARG D 557     -28.622  -2.785 -17.148  1.00 35.49     0.174 HD
ATOM     10  HH  ARG D 557     -27.741  -3.884 -16.678  1.00 35.49     0.174 HD
ATOM     11  HH  ARG D 557     -25.819  -2.105 -14.755  1.00 35.49     0.174 HD
ATOM     12  HH  ARG D 557     -26.056  -3.490 -15.240  1.00 35.49     0.174 HD
ATOM     13  HE  ARG D 557     -27.067  -0.490 -15.303  1.00 35.49     0.178 HD
ENDBRANCH   4   5
ENDBRANCH   3   4
ENDBRANCH   2   3
ENDBRANCH   1   2
END_RES ARG D 557
BEGIN_RES GLU D 570
REMARK  3 active torsions:
REMARK  status: ('A' for Active; 'I' for Inactive)
REMARK    5  A    between atoms: CA   and  CB  
REMARK    6  A    between atoms: CB   and  CG  
REMARK    7  A    between atoms: CG   and  CD  
ROOT
ATOM     14  CA  GLU D 570     -18.033  -6.348 -13.375  1.00 32.92     0.160 C 
ENDROOT
BRANCH  14  15
ATOM     15  CB  GLU D 570     -19.500  -6.345 -13.794  1.00 32.92     0.043 C 
BRANCH  15  16
ATOM     16  CG  GLU D 570     -20.044  -7.592 -14.390  1.00 32.92     0.100 C 
BRANCH  16  17
ATOM     17  CD  GLU D 570     -20.802  -7.350 -15.675  1.00 32.92     0.185 C 
ATOM     18  OE1 GLU D 570     -21.609  -8.211 -16.073  1.00 32.92    -0.647 OA
ATOM     19  OE2 GLU D 570     -20.574  -6.294 -16.298  1.00 32.92    -0.647 OA
ENDBRANCH  16  17
ENDBRANCH  15  16
ENDBRANCH  14  15
END_RES GLU D 570
ENDMDL
MODEL 5
REMARK VINA RESULT:      -6.6      3.461      6.318
REMARK  14 active torsions:
REMARK  status: ('A' for Active; 'I' for Inactive)
REMARK    1  A    between atoms: C_2  and  C_3 
REMARK    2  A    between atoms: C_3  and  C_4 
REMARK    3  A    between atoms: C_4  and  C_5 
REMARK    4  A    between atoms: C_5  and  C_6 
REMARK    5  A    between atoms: C_6  and  C_7 
REMARK    6  A    between atoms: C_7  and  C_8 
REMARK    7  A    between atoms: C_8  and  C_9 
REMARK    8  A    between atoms: C_9  and  C_10 
REMARK    9  A    between atoms: C_10  and  C_11 
REMARK   10  A    between atoms: C_11  and  C_12 
REMARK       I    between atoms: C_12  and  N_14 
REMARK   11  A    between atoms: N_14  and  C_16 
REMARK   12  A    between atoms: C_16  and  C_17 
REMARK   13  A    between atoms: C_17  and  O_19 
REMARK   14  A    between atoms: O_19  and  C_20 
ROOT
HETATM    1  C   UNL     1     -23.668  -5.354 -14.749  1.00  0.00     0.103 C 
ENDROOT
BRANCH   1   2
HETATM    2  C   UNL     1     -23.564  -5.022 -13.271  1.00  0.00     0.009 C 
BRANCH   2   3
HETATM    3  C   UNL     1     -22.333  -4.158 -12.996  1.00  0.00     0.000 C 
BRANCH   3   4
HETATM    4  C   UNL     1     -22.542  -3.338 -11.730  1.00  0.00     0.000 C 
BRANCH   4   5
HETATM    5  C   UNL     1     -22.041  -4.088 -10.504  1.00  0.00     0.000 C 
BRANCH   5   6
HETATM    6  C   UNL     1     -22.892  -3.740  -9.290  1.00  0.00     0.000 C 
BRANCH   6   7
HETATM    7  C   UNL     1     -22.107  -3.959  -8.006  1.00  0.00     0.000 C 
BRANCH   7   8
HETATM    8  C   UNL     1     -20.911  -4.867  -8.259  1.00  0.00     0.000 C 
BRANCH   8   9
HETATM    9  C   UNL     1     -19.731  -4.447  -7.393  1.00  0.00    -0.000 C 
BRANCH   9  10
HETATM   10  C   UNL     1     -19.965  -4.825  -5.936  1.00  0.00    -0.005 C 
HETATM   11  C   UNL     1     -20.317  -6.297  -5.814  1.00  0.00     0.005 C 
ENDBRANCH   9  10
ENDBRANCH   8   9
ENDBRANCH   7   8
ENDBRANCH   6   7
ENDBRANCH   5   6
ENDBRANCH   4   5
ENDBRANCH   3   4
ENDBRANCH   2   3
ENDBRANCH   1   2
BRANCH   1  12
HETATM   12  C   UNL     1     -25.097  -5.283 -15.289  1.00  0.00     0.219 C 
HETATM   13  O   UNL     1     -25.814  -4.315 -15.112  1.00  0.00    -0.273 OA
HETATM   14  N   UNL     1     -25.525  -6.408 -15.991  1.00  0.00    -0.347 N 
HETATM   15  C   UNL     1     -24.690  -7.577 -16.228  1.00  0.00     0.153 C 
BRANCH  14  16
HETATM   16  C   UNL     1     -26.885  -6.390 -16.567  1.00  0.00     0.236 C 
BRANCH  16  17
HETATM   17  C   UNL     1     -27.972  -7.207 -15.839  1.00  0.00     0.277 C 
HETATM   18  O   UNL     1     -28.042  -7.291 -14.616  1.00  0.00    -0.263 OA
BRANCH  17  19
HETATM   19  O   UNL     1     -28.823  -7.860 -16.690  1.00  0.00    -0.316 OA
BRANCH  19  20
HETATM   20  C   UNL     1     -29.428  -6.986 -17.664  1.00  0.00     0.123 C 
HETATM   21  C   UNL     1     -29.882  -7.784 -18.884  1.00  0.00     0.040 C 
HETATM   22  C   UNL     1     -30.622  -6.276 -17.040  1.00  0.00     0.040 C 
ENDBRANCH  19  20
ENDBRANCH  17  19
ENDBRANCH  16  17
ENDBRANCH  14  16
ENDBRANCH   1  12
TORSDOF 14
BEGIN_RES ARG D 557
REMARK  4 active torsions:
REMARK  status: ('A' for Active; 'I' for Inactive)
REMARK    1  A    between atoms: CA   and  CB  
REMARK    2  A    between atoms: CB   and  CG  
REMARK    3  A    between atoms: CG   and  CD  
REMARK    4  A    between atoms: CD   and  NE  
REMARK       I    between atoms: NE   and  CZ  
REMARK       I    between atoms: CZ   and  NH1 
REMARK       I    between atoms: CZ   and  NH2 
ROOT
ATOM      1  CA  ARG D 557     -26.217   2.705 -17.014  1.00 35.49     0.159 C 
ENDROOT
BRANCH   1   2
ATOM      2  CB  ARG D 557     -26.789   1.319 -17.183  1.00 35.49     0.034 C 
BRANCH   2   3
ATOM      3  CG  ARG D 557     -28.233   1.226 -17.431  1.00 35.49     0.027 C 
BRANCH   3   4
ATOM      4  CD  ARG D 557     -28.907   0.295 -16.497  1.00 35.49     0.116 C 
BRANCH   4   5
ATOM      5  NE  ARG D 557     -29.263  -0.947 -17.132  1.00 35.49    -0.212 N 
ATOM      6  CZ  ARG D 557     -28.610  -2.081 -17.018  1.00 35.49     0.666 C 
ATOM      7  NH1 ARG D 557     -27.511  -2.198 -16.295  1.00 35.49    -0.235 N 
ATOM      8  NH2 ARG D 557     -29.089  -3.115 -17.648  1.00 35.49    -0.235 N 
ATOM      9  HH  ARG D 557     -27.180  -1.532 -15.871  1.00 35.49     0.174 HD
ATOM     10  HH  ARG D 557     -27.129  -2.964 -16.256  1.00 35.49     0.174 HD
ATOM     11  HH  ARG D 557     -29.804  -3.012 -18.101  1.00 35.49     0.174 HD
ATOM     12  HH  ARG D 557     -28.697  -3.865 -17.596  1.00 35.49     0.174 HD
ATOM     13  HE  ARG D 557     -29.917  -0.945 -17.675  1.00 35.49     0.178 HD
ENDBRANCH   4   5
ENDBRANCH   3   4
ENDBRANCH   2   3
ENDBRANCH   1   2
END_RES ARG D 557
BEGIN_RES GLU D 570
REMARK  3 active torsions:
REMARK  status: ('A' for Active; 'I' for Inactive)
REMARK    5  A    between atoms: CA   and  CB  
REMARK    6  A    between atoms: CB   and  CG  
REMARK    7  A    between atoms: CG   and  CD  
ROOT
ATOM     14  CA  GLU D 570     -18.033  -6.348 -13.375  1.00 32.92     0.160 C 
ENDROOT
BRANCH  14  15
ATOM     15  CB  GLU D 570     -19.500  -6.345 -13.794  1.00 32.92     0.043 C 
BRANCH  15  16
ATOM     16  CG  GLU D 570     -19.800  -6.130 -15.233  1.00 32.92     0.100 C 
BRANCH  16  17
ATOM     17  CD  GLU D 570     -20.641  -7.234 -15.831  1.00 32.92     0.185 C 
ATOM     18  OE1 GLU D 570     -21.274  -7.012 -16.881  1.00 32.92    -0.647 OA
ATOM     19  OE2 GLU D 570     -20.679  -8.328 -15.235  1.00 32.92    -0.647 OA
ENDBRANCH  16  17
ENDBRANCH  15  16
ENDBRANCH  14  15
END_RES GLU D 570
ENDMDL
MODEL 6
REMARK VINA RESULT:      -6.6      2.654      8.103
REMARK  14 active torsions:
REMARK  status: ('A' for Active; 'I' for Inactive)
REMARK    1  A    between atoms: C_2  and  C_3 
REMARK    2  A    between atoms: C_3  and  C_4 
REMARK    3  A    between atoms: C_4  and  C_5 
REMARK    4  A    between atoms: C_5  and  C_6 
REMARK    5  A    between atoms: C_6  and  C_7 
REMARK    6  A    between atoms: C_7  and  C_8 
REMARK    7  A    between atoms: C_8  and  C_9 
REMARK    8  A    between atoms: C_9  and  C_10 
REMARK    9  A    between atoms: C_10  and  C_11 
REMARK   10  A    between atoms: C_11  and  C_12 
REMARK       I    between atoms: C_12  and  N_14 
REMARK   11  A    between atoms: N_14  and  C_16 
REMARK   12  A    between atoms: C_16  and  C_17 
REMARK   13  A    between atoms: C_17  and  O_19 
REMARK   14  A    between atoms: O_19  and  C_20 
ROOT
HETATM    1  C   UNL     1     -21.704  -6.228  -5.730  1.00  0.00     0.103 C 
ENDROOT
BRANCH   1   2
HETATM    2  C   UNL     1     -20.620  -5.169  -5.835  1.00  0.00     0.009 C 
BRANCH   2   3
HETATM    3  C   UNL     1     -19.642  -5.504  -6.961  1.00  0.00     0.000 C 
BRANCH   3   4
HETATM    4  C   UNL     1     -19.455  -4.297  -7.869  1.00  0.00     0.000 C 
BRANCH   4   5
HETATM    5  C   UNL     1     -20.722  -4.006  -8.660  1.00  0.00     0.000 C 
BRANCH   5   6
HETATM    6  C   UNL     1     -20.607  -4.577 -10.067  1.00  0.00     0.000 C 
BRANCH   6   7
HETATM    7  C   UNL     1     -20.817  -3.486 -11.106  1.00  0.00     0.000 C 
BRANCH   7   8
HETATM    8  C   UNL     1     -21.865  -3.912 -12.125  1.00  0.00     0.000 C 
BRANCH   8   9
HETATM    9  C   UNL     1     -23.098  -4.464 -11.420  1.00  0.00    -0.000 C 
BRANCH   9  10
HETATM   10  C   UNL     1     -24.084  -3.348 -11.098  1.00  0.00    -0.005 C 
HETATM   11  C   UNL     1     -24.487  -3.394  -9.635  1.00  0.00     0.005 C 
ENDBRANCH   9  10
ENDBRANCH   8   9
ENDBRANCH   7   8
ENDBRANCH   6   7
ENDBRANCH   5   6
ENDBRANCH   4   5
ENDBRANCH   3   4
ENDBRANCH   2   3
ENDBRANCH   1   2
BRANCH   1  12
HETATM   12  C   UNL     1     -21.866  -6.794  -4.319  1.00  0.00     0.219 C 
HETATM   13  O   UNL     1     -22.284  -6.126  -3.391  1.00  0.00    -0.273 OA
HETATM   14  N   UNL     1     -21.494  -8.128  -4.167  1.00  0.00    -0.347 N 
HETATM   15  C   UNL     1     -20.999  -8.958  -5.258  1.00  0.00     0.153 C 
BRANCH  14  16
HETATM   16  C   UNL     1     -21.658  -8.747  -2.836  1.00  0.00     0.236 C 
BRANCH  16  17
HETATM   17  C   UNL     1     -20.508  -8.560  -1.824  1.00  0.00     0.277 C 
HETATM   18  O   UNL     1     -19.377  -9.004  -2.004  1.00  0.00    -0.263 OA
BRANCH  17  19
HETATM   19  O   UNL     1     -20.883  -7.887  -0.692  1.00  0.00    -0.316 OA
BRANCH  19  20
HETATM   20  C   UNL     1     -21.644  -8.701   0.222  1.00  0.00     0.123 C 
HETATM   21  C   UNL     1     -20.896  -8.856   1.544  1.00  0.00     0.040 C 
HETATM   22  C   UNL     1     -23.001  -8.055   0.472  1.00  0.00     0.040 C 
ENDBRANCH  19  20
ENDBRANCH  17  19
ENDBRANCH  16  17
ENDBRANCH  14  16
ENDBRANCH   1  12
TORSDOF 14
BEGIN_RES ARG D 557
REMARK  4 active torsions:
REMARK  status: ('A' for Active; 'I' for Inactive)
REMARK    1  A    between atoms: CA   and  CB  
REMARK    2  A    between atoms: CB   and  CG  
REMARK    3  A    between atoms: CG   and  CD  
REMARK    4  A    between atoms: CD   and  NE  
REMARK       I    between atoms: NE   and  CZ  
REMARK       I    between atoms: CZ   and  NH1 
REMARK       I    between atoms: CZ   and  NH2 
ROOT
ATOM      1  CA  ARG D 557     -26.217   2.705 -17.014  1.00 35.49     0.159 C 
ENDROOT
BRANCH   1   2
ATOM      2  CB  ARG D 557     -26.789   1.319 -17.183  1.00 35.49     0.034 C 
BRANCH   2   3
ATOM      3  CG  ARG D 557     -28.228   1.227 -17.459  1.00 35.49     0.027 C 
BRANCH   3   4
ATOM      4  CD  ARG D 557     -28.920   0.292 -16.543  1.00 35.49     0.116 C 
BRANCH   4   5
ATOM      5  NE  ARG D 557     -28.126  -0.873 -16.255  1.00 35.49    -0.212 N 
ATOM      6  CZ  ARG D 557     -28.349  -2.086 -16.710  1.00 35.49     0.666 C 
ATOM      7  NH1 ARG D 557     -29.371  -2.372 -17.495  1.00 35.49    -0.235 N 
ATOM      8  NH2 ARG D 557     -27.511  -3.020 -16.363  1.00 35.49    -0.235 N 
ATOM      9  HH  ARG D 557     -29.933  -1.772 -17.737  1.00 35.49     0.174 HD
ATOM     10  HH  ARG D 557     -29.464  -3.181 -17.762  1.00 35.49     0.174 HD
ATOM     11  HH  ARG D 557     -26.856  -2.804 -15.861  1.00 35.49     0.174 HD
ATOM     12  HH  ARG D 557     -27.620  -3.814 -16.640  1.00 35.49     0.174 HD
ATOM     13  HE  ARG D 557     -27.488  -0.794 -15.698  1.00 35.49     0.178 HD
ENDBRANCH   4   5
ENDBRANCH   3   4
ENDBRANCH   2   3
ENDBRANCH   1   2
END_RES ARG D 557
BEGIN_RES GLU D 570
REMARK  3 active torsions:
REMARK  status: ('A' for Active; 'I' for Inactive)
REMARK    5  A    between atoms: CA   and  CB  
REMARK    6  A    between atoms: CB   and  CG  
REMARK    7  A    between atoms: CG   and  CD  
ROOT
ATOM     14  CA  GLU D 570     -18.033  -6.348 -13.375  1.00 32.92     0.160 C 
ENDROOT
BRANCH  14  15
ATOM     15  CB  GLU D 570     -19.500  -6.345 -13.794  1.00 32.92     0.043 C 
BRANCH  15  16
ATOM     16  CG  GLU D 570     -19.806  -6.031 -15.214  1.00 32.92     0.100 C 
BRANCH  16  17
ATOM     17  CD  GLU D 570     -21.266  -5.723 -15.448  1.00 32.92     0.185 C 
ATOM     18  OE1 GLU D 570     -21.574  -4.699 -16.087  1.00 32.92    -0.647 OA
ATOM     19  OE2 GLU D 570     -22.112  -6.506 -14.973  1.00 32.92    -0.647 OA
ENDBRANCH  16  17
ENDBRANCH  15  16
ENDBRANCH  14  15
END_RES GLU D 570
ENDMDL
MODEL 7
REMARK VINA RESULT:      -6.5      4.033      8.942
REMARK  14 active torsions:
REMARK  status: ('A' for Active; 'I' for Inactive)
REMARK    1  A    between atoms: C_2  and  C_3 
REMARK    2  A    between atoms: C_3  and  C_4 
REMARK    3  A    between atoms: C_4  and  C_5 
REMARK    4  A    between atoms: C_5  and  C_6 
REMARK    5  A    between atoms: C_6  and  C_7 
REMARK    6  A    between atoms: C_7  and  C_8 
REMARK    7  A    between atoms: C_8  and  C_9 
REMARK    8  A    between atoms: C_9  and  C_10 
REMARK    9  A    between atoms: C_10  and  C_11 
REMARK   10  A    between atoms: C_11  and  C_12 
REMARK       I    between atoms: C_12  and  N_14 
REMARK   11  A    between atoms: N_14  and  C_16 
REMARK   12  A    between atoms: C_16  and  C_17 
REMARK   13  A    between atoms: C_17  and  O_19 
REMARK   14  A    between atoms: O_19  and  C_20 
ROOT
HETATM    1  C   UNL     1     -21.928  -6.528  -2.195  1.00  0.00     0.103 C 
ENDROOT
BRANCH   1   2
HETATM    2  C   UNL     1     -21.401  -6.102  -3.554  1.00  0.00     0.009 C 
BRANCH   2   3
HETATM    3  C   UNL     1     -22.066  -6.909  -4.670  1.00  0.00     0.000 C 
BRANCH   3   4
HETATM    4  C   UNL     1     -21.201  -6.880  -5.923  1.00  0.00     0.000 C 
BRANCH   4   5
HETATM    5  C   UNL     1     -20.208  -5.728  -5.875  1.00  0.00     0.000 C 
BRANCH   5   6
HETATM    6  C   UNL     1     -20.201  -4.983  -7.204  1.00  0.00     0.000 C 
BRANCH   6   7
HETATM    7  C   UNL     1     -21.088  -3.750  -7.130  1.00  0.00     0.000 C 
BRANCH   7   8
HETATM    8  C   UNL     1     -22.368  -3.964  -7.926  1.00  0.00     0.000 C 
BRANCH   8   9
HETATM    9  C   UNL     1     -22.046  -4.472  -9.325  1.00  0.00    -0.000 C 
BRANCH   9  10
HETATM   10  C   UNL     1     -23.255  -4.339 -10.243  1.00  0.00    -0.005 C 
HETATM   11  C   UNL     1     -24.338  -3.501  -9.586  1.00  0.00     0.005 C 
ENDBRANCH   9  10
ENDBRANCH   8   9
ENDBRANCH   7   8
ENDBRANCH   6   7
ENDBRANCH   5   6
ENDBRANCH   4   5
ENDBRANCH   3   4
ENDBRANCH   2   3
ENDBRANCH   1   2
BRANCH   1  12
HETATM   12  C   UNL     1     -21.097  -7.632  -1.541  1.00  0.00     0.219 C 
HETATM   13  O   UNL     1     -20.018  -7.986  -1.981  1.00  0.00    -0.273 OA
HETATM   14  N   UNL     1     -21.665  -8.212  -0.408  1.00  0.00    -0.347 N 
HETATM   15  C   UNL     1     -22.947  -7.807   0.150  1.00  0.00     0.153 C 
BRANCH  14  16
HETATM   16  C   UNL     1     -20.897  -9.263   0.292  1.00  0.00     0.236 C 
BRANCH  16  17
HETATM   17  C   UNL     1     -21.128 -10.722  -0.154  1.00  0.00     0.277 C 
HETATM   18  O   UNL     1     -20.809 -11.143  -1.262  1.00  0.00    -0.263 OA
BRANCH  17  19
HETATM   19  O   UNL     1     -21.758 -11.486   0.792  1.00  0.00    -0.316 OA
BRANCH  19  20
HETATM   20  C   UNL     1     -22.846 -12.263   0.256  1.00  0.00     0.123 C 
HETATM   21  C   UNL     1     -23.302 -13.310   1.271  1.00  0.00     0.040 C 
HETATM   22  C   UNL     1     -24.009 -11.342  -0.090  1.00  0.00     0.040 C 
ENDBRANCH  19  20
ENDBRANCH  17  19
ENDBRANCH  16  17
ENDBRANCH  14  16
ENDBRANCH   1  12
TORSDOF 14
BEGIN_RES ARG D 557
REMARK  4 active torsions:
REMARK  status: ('A' for Active; 'I' for Inactive)
REMARK    1  A    between atoms: CA   and  CB  
REMARK    2  A    between atoms: CB   and  CG  
REMARK    3  A    between atoms: CG   and  CD  
REMARK    4  A    between atoms: CD   and  NE  
REMARK       I    between atoms: NE   and  CZ  
REMARK       I    between atoms: CZ   and  NH1 
REMARK       I    between atoms: CZ   and  NH2 
ROOT
ATOM      1  CA  ARG D 557     -26.217   2.705 -17.014  1.00 35.49     0.159 C 
ENDROOT
BRANCH   1   2
ATOM      2  CB  ARG D 557     -26.789   1.319 -17.183  1.00 35.49     0.034 C 
BRANCH   2   3
ATOM      3  CG  ARG D 557     -25.863   0.195 -17.000  1.00 35.49     0.027 C 
BRANCH   3   4
ATOM      4  CD  ARG D 557     -26.336  -0.765 -15.977  1.00 35.49     0.116 C 
BRANCH   4   5
ATOM      5  NE  ARG D 557     -25.367  -0.966 -14.932  1.00 35.49    -0.212 N 
ATOM      6  CZ  ARG D 557     -25.126  -2.101 -14.315  1.00 35.49     0.666 C 
ATOM      7  NH1 ARG D 557     -25.784  -3.212 -14.592  1.00 35.49    -0.235 N 
ATOM      8  NH2 ARG D 557     -24.195  -2.105 -13.406  1.00 35.49    -0.235 N 
ATOM      9  HH  ARG D 557     -26.399  -3.233 -15.188  1.00 35.49     0.174 HD
ATOM     10  HH  ARG D 557     -25.582  -3.923 -14.160  1.00 35.49     0.174 HD
ATOM     11  HH  ARG D 557     -23.781  -1.375 -13.254  1.00 35.49     0.174 HD
ATOM     12  HH  ARG D 557     -24.009  -2.820 -12.990  1.00 35.49     0.174 HD
ATOM     13  HE  ARG D 557     -24.948  -0.286 -14.640  1.00 35.49     0.178 HD
ENDBRANCH   4   5
ENDBRANCH   3   4
ENDBRANCH   2   3
ENDBRANCH   1   2
END_RES ARG D 557
BEGIN_RES GLU D 570
REMARK  3 active torsions:
REMARK  status: ('A' for Active; 'I' for Inactive)
REMARK    5  A    between atoms: CA   and  CB  
REMARK    6  A    between atoms: CB   and  CG  
REMARK    7  A    between atoms: CG   and  CD  
ROOT
ATOM     14  CA  GLU D 570     -18.033  -6.348 -13.375  1.00 32.92     0.160 C 
ENDROOT
BRANCH  14  15
ATOM     15  CB  GLU D 570     -19.500  -6.345 -13.794  1.00 32.92     0.043 C 
BRANCH  15  16
ATOM     16  CG  GLU D 570     -20.442  -5.534 -12.981  1.00 32.92     0.100 C 
BRANCH  16  17
ATOM     17  CD  GLU D 570     -21.744  -5.250 -13.695  1.00 32.92     0.185 C 
ATOM     18  OE1 GLU D 570     -22.248  -4.114 -13.607  1.00 32.92    -0.647 OA
ATOM     19  OE2 GLU D 570     -22.273  -6.180 -14.336  1.00 32.92    -0.647 OA
ENDBRANCH  16  17
ENDBRANCH  15  16
ENDBRANCH  14  15
END_RES GLU D 570
ENDMDL
MODEL 8
REMARK VINA RESULT:      -6.4      2.809      8.469
REMARK  14 active torsions:
REMARK  status: ('A' for Active; 'I' for Inactive)
REMARK    1  A    between atoms: C_2  and  C_3 
REMARK    2  A    between atoms: C_3  and  C_4 
REMARK    3  A    between atoms: C_4  and  C_5 
REMARK    4  A    between atoms: C_5  and  C_6 
REMARK    5  A    between atoms: C_6  and  C_7 
REMARK    6  A    between atoms: C_7  and  C_8 
REMARK    7  A    between atoms: C_8  and  C_9 
REMARK    8  A    between atoms: C_9  and  C_10 
REMARK    9  A    between atoms: C_10  and  C_11 
REMARK   10  A    between atoms: C_11  and  C_12 
REMARK       I    between atoms: C_12  and  N_14 
REMARK   11  A    between atoms: N_14  and  C_16 
REMARK   12  A    between atoms: C_16  and  C_17 
REMARK   13  A    between atoms: C_17  and  O_19 
REMARK   14  A    between atoms: O_19  and  C_20 
ROOT
HETATM    1  C   UNL     1     -21.853  -5.905  -5.634  1.00  0.00     0.103 C 
ENDROOT
BRANCH   1   2
HETATM    2  C   UNL     1     -20.877  -5.017  -6.387  1.00  0.00     0.009 C 
BRANCH   2   3
HETATM    3  C   UNL     1     -21.190  -5.018  -7.884  1.00  0.00     0.000 C 
BRANCH   3   4
HETATM    4  C   UNL     1     -20.107  -4.265  -8.645  1.00  0.00     0.000 C 
BRANCH   4   5
HETATM    5  C   UNL     1     -20.179  -4.562 -10.136  1.00  0.00     0.000 C 
BRANCH   5   6
HETATM    6  C   UNL     1     -21.563  -4.225 -10.674  1.00  0.00     0.000 C 
BRANCH   6   7
HETATM    7  C   UNL     1     -21.511  -2.974 -11.538  1.00  0.00     0.000 C 
BRANCH   7   8
HETATM    8  C   UNL     1     -22.886  -2.664 -12.114  1.00  0.00     0.000 C 
BRANCH   8   9
HETATM    9  C   UNL     1     -22.952  -3.067 -13.581  1.00  0.00    -0.000 C 
BRANCH   9  10
HETATM   10  C   UNL     1     -23.942  -4.207 -13.787  1.00  0.00    -0.005 C 
HETATM   11  C   UNL     1     -23.226  -5.545 -13.795  1.00  0.00     0.005 C 
ENDBRANCH   9  10
ENDBRANCH   8   9
ENDBRANCH   7   8
ENDBRANCH   6   7
ENDBRANCH   5   6
ENDBRANCH   4   5
ENDBRANCH   3   4
ENDBRANCH   2   3
ENDBRANCH   1   2
BRANCH   1  12
HETATM   12  C   UNL     1     -21.218  -7.187  -5.096  1.00  0.00     0.219 C 
HETATM   13  O   UNL     1     -20.796  -8.064  -5.828  1.00  0.00    -0.273 OA
HETATM   14  N   UNL     1     -21.161  -7.286  -3.708  1.00  0.00    -0.347 N 
HETATM   15  C   UNL     1     -21.647  -6.252  -2.805  1.00  0.00     0.153 C 
BRANCH  14  16
HETATM   16  C   UNL     1     -20.528  -8.486  -3.123  1.00  0.00     0.236 C 
BRANCH  16  17
HETATM   17  C   UNL     1     -21.461  -9.628  -2.673  1.00  0.00     0.277 C 
HETATM   18  O   UNL     1     -22.172 -10.260  -3.450  1.00  0.00    -0.263 OA
BRANCH  17  19
HETATM   19  O   UNL     1     -21.448  -9.841  -1.320  1.00  0.00    -0.316 OA
BRANCH  19  20
HETATM   20  C   UNL     1     -22.540  -9.196  -0.636  1.00  0.00     0.123 C 
HETATM   21  C   UNL     1     -23.550 -10.234  -0.153  1.00  0.00     0.040 C 
HETATM   22  C   UNL     1     -22.005  -8.408   0.551  1.00  0.00     0.040 C 
ENDBRANCH  19  20
ENDBRANCH  17  19
ENDBRANCH  16  17
ENDBRANCH  14  16
ENDBRANCH   1  12
TORSDOF 14
BEGIN_RES ARG D 557
REMARK  4 active torsions:
REMARK  status: ('A' for Active; 'I' for Inactive)
REMARK    1  A    between atoms: CA   and  CB  
REMARK    2  A    between atoms: CB   and  CG  
REMARK    3  A    between atoms: CG   and  CD  
REMARK    4  A    between atoms: CD   and  NE  
REMARK       I    between atoms: NE   and  CZ  
REMARK       I    between atoms: CZ   and  NH1 
REMARK       I    between atoms: CZ   and  NH2 
ROOT
ATOM      1  CA  ARG D 557     -26.217   2.705 -17.014  1.00 35.49     0.159 C 
ENDROOT
BRANCH   1   2
ATOM      2  CB  ARG D 557     -26.789   1.319 -17.183  1.00 35.49     0.034 C 
BRANCH   2   3
ATOM      3  CG  ARG D 557     -28.232   1.226 -17.437  1.00 35.49     0.027 C 
BRANCH   3   4
ATOM      4  CD  ARG D 557     -28.911   0.300 -16.503  1.00 35.49     0.116 C 
BRANCH   4   5
ATOM      5  NE  ARG D 557     -29.310  -0.924 -17.146  1.00 35.49    -0.212 N 
ATOM      6  CZ  ARG D 557     -28.695  -2.081 -17.045  1.00 35.49     0.666 C 
ATOM      7  NH1 ARG D 557     -27.599  -2.241 -16.326  1.00 35.49    -0.235 N 
ATOM      8  NH2 ARG D 557     -29.209  -3.093 -17.681  1.00 35.49    -0.235 N 
ATOM      9  HH  ARG D 557     -27.244  -1.590 -15.897  1.00 35.49     0.174 HD
ATOM     10  HH  ARG D 557     -27.243  -3.020 -16.294  1.00 35.49     0.174 HD
ATOM     11  HH  ARG D 557     -29.922  -2.961 -18.132  1.00 35.49     0.174 HD
ATOM     12  HH  ARG D 557     -28.843  -3.856 -17.637  1.00 35.49     0.174 HD
ATOM     13  HE  ARG D 557     -29.965  -0.896 -17.688  1.00 35.49     0.178 HD
ENDBRANCH   4   5
ENDBRANCH   3   4
ENDBRANCH   2   3
ENDBRANCH   1   2
END_RES ARG D 557
BEGIN_RES GLU D 570
REMARK  3 active torsions:
REMARK  status: ('A' for Active; 'I' for Inactive)
REMARK    5  A    between atoms: CA   and  CB  
REMARK    6  A    between atoms: CB   and  CG  
REMARK    7  A    between atoms: CG   and  CD  
ROOT
ATOM     14  CA  GLU D 570     -18.033  -6.348 -13.375  1.00 32.92     0.160 C 
ENDROOT
BRANCH  14  15
ATOM     15  CB  GLU D 570     -19.500  -6.345 -13.794  1.00 32.92     0.043 C 
BRANCH  15  16
ATOM     16  CG  GLU D 570     -20.092  -7.639 -14.222  1.00 32.92     0.100 C 
BRANCH  16  17
ATOM     17  CD  GLU D 570     -20.658  -7.594 -15.622  1.00 32.92     0.185 C 
ATOM     18  OE1 GLU D 570     -21.170  -8.623 -16.101  1.00 32.92    -0.647 OA
ATOM     19  OE2 GLU D 570     -20.574  -6.521 -16.252  1.00 32.92    -0.647 OA
ENDBRANCH  16  17
ENDBRANCH  15  16
ENDBRANCH  14  15
END_RES GLU D 570
ENDMDL
MODEL 9
REMARK VINA RESULT:      -6.3      2.841      5.348
REMARK  14 active torsions:
REMARK  status: ('A' for Active; 'I' for Inactive)
REMARK    1  A    between atoms: C_2  and  C_3 
REMARK    2  A    between atoms: C_3  and  C_4 
REMARK    3  A    between atoms: C_4  and  C_5 
REMARK    4  A    between atoms: C_5  and  C_6 
REMARK    5  A    between atoms: C_6  and  C_7 
REMARK    6  A    between atoms: C_7  and  C_8 
REMARK    7  A    between atoms: C_8  and  C_9 
REMARK    8  A    between atoms: C_9  and  C_10 
REMARK    9  A    between atoms: C_10  and  C_11 
REMARK   10  A    between atoms: C_11  and  C_12 
REMARK       I    between atoms: C_12  and  N_14 
REMARK   11  A    between atoms: N_14  and  C_16 
REMARK   12  A    between atoms: C_16  and  C_17 
REMARK   13  A    between atoms: C_17  and  O_19 
REMARK   14  A    between atoms: O_19  and  C_20 
ROOT
HETATM    1  C   UNL     1     -21.340  -7.388  -2.049  1.00  0.00     0.103 C 
ENDROOT
BRANCH   1   2
HETATM    2  C   UNL     1     -22.275  -6.814  -0.998  1.00  0.00     0.009 C 
BRANCH   2   3
HETATM    3  C   UNL     1     -22.691  -7.893   0.003  1.00  0.00     0.000 C 
BRANCH   3   4
HETATM    4  C   UNL     1     -21.559  -8.893   0.196  1.00  0.00     0.000 C 
BRANCH   4   5
HETATM    5  C   UNL     1     -22.073 -10.323   0.110  1.00  0.00     0.000 C 
BRANCH   5   6
HETATM    6  C   UNL     1     -23.574 -10.329  -0.144  1.00  0.00     0.000 C 
BRANCH   6   7
HETATM    7  C   UNL     1     -23.920 -11.274  -1.284  1.00  0.00     0.000 C 
BRANCH   7   8
HETATM    8  C   UNL     1     -22.676 -11.606  -2.099  1.00  0.00     0.000 C 
BRANCH   8   9
HETATM    9  C   UNL     1     -22.748 -10.948  -3.471  1.00  0.00    -0.000 C 
BRANCH   9  10
HETATM   10  C   UNL     1     -22.437 -11.953  -4.572  1.00  0.00    -0.005 C 
HETATM   11  C   UNL     1     -22.423 -13.367  -4.020  1.00  0.00     0.005 C 
ENDBRANCH   9  10
ENDBRANCH   8   9
ENDBRANCH   7   8
ENDBRANCH   6   7
ENDBRANCH   5   6
ENDBRANCH   4   5
ENDBRANCH   3   4
ENDBRANCH   2   3
ENDBRANCH   1   2
BRANCH   1  12
HETATM   12  C   UNL     1     -21.700  -6.970  -3.475  1.00  0.00     0.219 C 
HETATM   13  O   UNL     1     -22.591  -6.177  -3.718  1.00  0.00    -0.273 OA
HETATM   14  N   UNL     1     -20.939  -7.566  -4.479  1.00  0.00    -0.347 N 
HETATM   15  C   UNL     1     -19.860  -8.509  -4.222  1.00  0.00     0.153 C 
BRANCH  14  16
HETATM   16  C   UNL     1     -21.214  -7.179  -5.878  1.00  0.00     0.236 C 
BRANCH  16  17
HETATM   17  C   UNL     1     -20.487  -5.931  -6.421  1.00  0.00     0.277 C 
HETATM   18  O   UNL     1     -19.849  -5.163  -5.707  1.00  0.00    -0.263 OA
BRANCH  17  19
HETATM   19  O   UNL     1     -20.657  -5.745  -7.768  1.00  0.00    -0.316 OA
BRANCH  19  20
HETATM   20  C   UNL     1     -20.822  -4.360  -8.129  1.00  0.00     0.123 C 
HETATM   21  C   UNL     1     -20.367  -4.129  -9.568  1.00  0.00     0.040 C 
HETATM   22  C   UNL     1     -22.286  -3.966  -7.983  1.00  0.00     0.040 C 
ENDBRANCH  19  20
ENDBRANCH  17  19
ENDBRANCH  16  17
ENDBRANCH  14  16
ENDBRANCH   1  12
TORSDOF 14
BEGIN_RES ARG D 557
REMARK  4 active torsions:
REMARK  status: ('A' for Active; 'I' for Inactive)
REMARK    1  A    between atoms: CA   and  CB  
REMARK    2  A    between atoms: CB   and  CG  
REMARK    3  A    between atoms: CG   and  CD  
REMARK    4  A    between atoms: CD   and  NE  
REMARK       I    between atoms: NE   and  CZ  
REMARK       I    between atoms: CZ   and  NH1 
REMARK       I    between atoms: CZ   and  NH2 
ROOT
ATOM      1  CA  ARG D 557     -26.217   2.705 -17.014  1.00 35.49     0.159 C 
ENDROOT
BRANCH   1   2
ATOM      2  CB  ARG D 557     -26.789   1.319 -17.183  1.00 35.49     0.034 C 
BRANCH   2   3
ATOM      3  CG  ARG D 557     -25.923   0.196 -16.803  1.00 35.49     0.027 C 
BRANCH   3   4
ATOM      4  CD  ARG D 557     -26.661  -0.866 -16.082  1.00 35.49     0.116 C 
BRANCH   4   5
ATOM      5  NE  ARG D 557     -25.846  -1.512 -15.086  1.00 35.49    -0.212 N 
ATOM      6  CZ  ARG D 557     -25.887  -2.786 -14.768  1.00 35.49     0.666 C 
ATOM      7  NH1 ARG D 557     -26.721  -3.633 -15.342  1.00 35.49    -0.235 N 
ATOM      8  NH2 ARG D 557     -25.060  -3.204 -13.855  1.00 35.49    -0.235 N 
ATOM      9  HH  ARG D 557     -27.273  -3.381 -15.947  1.00 35.49     0.174 HD
ATOM     10  HH  ARG D 557     -26.701  -4.454 -15.096  1.00 35.49     0.174 HD
ATOM     11  HH  ARG D 557     -24.527  -2.636 -13.507  1.00 35.49     0.174 HD
ATOM     12  HH  ARG D 557     -25.054  -4.020 -13.626  1.00 35.49     0.174 HD
ATOM     13  HE  ARG D 557     -25.330  -1.026 -14.616  1.00 35.49     0.178 HD
ENDBRANCH   4   5
ENDBRANCH   3   4
ENDBRANCH   2   3
ENDBRANCH   1   2
END_RES ARG D 557
BEGIN_RES GLU D 570
REMARK  3 active torsions:
REMARK  status: ('A' for Active; 'I' for Inactive)
REMARK    5  A    between atoms: CA   and  CB  
REMARK    6  A    between atoms: CB   and  CG  
REMARK    7  A    between atoms: CG   and  CD  
ROOT
ATOM     14  CA  GLU D 570     -18.033  -6.348 -13.375  1.00 32.92     0.160 C 
ENDROOT
BRANCH  14  15
ATOM     15  CB  GLU D 570     -19.500  -6.345 -13.794  1.00 32.92     0.043 C 
BRANCH  15  16
ATOM     16  CG  GLU D 570     -20.442  -5.531 -12.983  1.00 32.92     0.100 C 
BRANCH  16  17
ATOM     17  CD  GLU D 570     -21.731  -5.223 -13.709  1.00 32.92     0.185 C 
ATOM     18  OE1 GLU D 570     -22.358  -4.188 -13.416  1.00 32.92    -0.647 OA
ATOM     19  OE2 GLU D 570     -22.125  -6.035 -14.569  1.00 32.92    -0.647 OA
ENDBRANCH  16  17
ENDBRANCH  15  16
ENDBRANCH  14  15
END_RES GLU D 570
ENDMDL
