MODEL 1
REMARK VINA RESULT:      -6.3      0.000      0.000
REMARK  7 active torsions:
REMARK  status: ('A' for Active; 'I' for Inactive)
REMARK    1  A    between atoms: C_2  and  C_3 
REMARK    2  A    between atoms: C_3  and  C_4 
REMARK    3  A    between atoms: C_4  and  C_5 
REMARK    4  A    between atoms: C_5  and  C_6 
REMARK    5  A    between atoms: C_6  and  C_7 
REMARK    6  A    between atoms: C_7  and  C_8 
REMARK       I    between atoms: C_8  and  N_10 
REMARK    7  A    between atoms: N_10  and  O_11 
ROOT
HETATM    1  C   UNL     1     -24.110  -3.353 -13.862  1.00  0.00     0.105 C 
ENDROOT
BRANCH   1   2
HETATM    2  C   UNL     1     -22.822  -2.915 -13.169  1.00  0.00     0.009 C 
BRANCH   2   3
HETATM    3  C   UNL     1     -22.218  -4.034 -12.328  1.00  0.00     0.000 C 
BRANCH   3   4
HETATM    4  C   UNL     1     -21.661  -3.475 -11.021  1.00  0.00     0.000 C 
BRANCH   4   5
HETATM    5  C   UNL     1     -22.275  -4.189  -9.821  1.00  0.00    -0.000 C 
BRANCH   5   6
HETATM    6  C   UNL     1     -23.746  -4.508 -10.068  1.00  0.00    -0.005 C 
HETATM    7  C   UNL     1     -24.629  -3.367  -9.596  1.00  0.00     0.005 C 
ENDBRANCH   5   6
ENDBRANCH   4   5
ENDBRANCH   3   4
ENDBRANCH   2   3
ENDBRANCH   1   2
BRANCH   1   8
HETATM    8  C   UNL     1     -24.862  -2.162 -14.415  1.00  0.00     0.240 C 
HETATM    9  O   UNL     1     -26.020  -2.201 -14.816  1.00  0.00    -0.271 OA
HETATM   10  N   UNL     1     -24.136  -1.003 -14.438  1.00  0.00    -0.237 N 
HETATM   11  H   UNL     1     -23.179  -0.893 -14.125  1.00  0.00     0.197 HD
BRANCH  10  12
HETATM   12  O   UNL     1     -24.794   0.141 -14.946  1.00  0.00    -0.287 OA
HETATM   13  H   UNL     1     -24.784   0.748 -14.172  1.00  0.00     0.244 HD
ENDBRANCH  10  12
ENDBRANCH   1   8
TORSDOF 7
BEGIN_RES ARG D 557
REMARK  4 active torsions:
REMARK  status: ('A' for Active; 'I' for Inactive)
REMARK    1  A    between atoms: CA   and  CB  
REMARK    2  A    between atoms: CB   and  CG  
REMARK    3  A    between atoms: CG   and  CD  
REMARK    4  A    between atoms: CD   and  NE  
REMARK       I    between atoms: NE   and  CZ  
REMARK       I    between atoms: CZ   and  NH1 
REMARK       I    between atoms: CZ   and  NH2 
ROOT
ATOM      1  CA  ARG D 557     -26.217   2.705 -17.014  1.00 35.49     0.159 C 
ENDROOT
BRANCH   1   2
ATOM      2  CB  ARG D 557     -26.789   1.319 -17.183  1.00 35.49     0.034 C 
BRANCH   2   3
ATOM      3  CG  ARG D 557     -28.134   1.089 -16.643  1.00 35.49     0.027 C 
BRANCH   3   4
ATOM      4  CD  ARG D 557     -28.796  -0.085 -17.257  1.00 35.49     0.116 C 
BRANCH   4   5
ATOM      5  NE  ARG D 557     -28.186  -1.324 -16.852  1.00 35.49    -0.212 N 
ATOM      6  CZ  ARG D 557     -28.684  -2.525 -17.048  1.00 35.49     0.666 C 
ATOM      7  NH1 ARG D 557     -29.843  -2.723 -17.647  1.00 35.49    -0.235 N 
ATOM      8  NH2 ARG D 557     -27.983  -3.540 -16.633  1.00 35.49    -0.235 N 
ATOM      9  HH  ARG D 557     -30.320  -2.070 -17.930  1.00 35.49     0.174 HD
ATOM     10  HH  ARG D 557     -30.116  -3.529 -17.750  1.00 35.49     0.174 HD
ATOM     11  HH  ARG D 557     -27.234  -3.382 -16.257  1.00 35.49     0.174 HD
ATOM     12  HH  ARG D 557     -28.269  -4.330 -16.745  1.00 35.49     0.174 HD
ATOM     13  HE  ARG D 557     -27.471  -1.286 -16.395  1.00 35.49     0.178 HD
ENDBRANCH   4   5
ENDBRANCH   3   4
ENDBRANCH   2   3
ENDBRANCH   1   2
END_RES ARG D 557
BEGIN_RES GLU D 570
REMARK  3 active torsions:
REMARK  status: ('A' for Active; 'I' for Inactive)
REMARK    5  A    between atoms: CA   and  CB  
REMARK    6  A    between atoms: CB   and  CG  
REMARK    7  A    between atoms: CG   and  CD  
ROOT
ATOM     14  CA  GLU D 570     -18.033  -6.348 -13.375  1.00 32.92     0.160 C 
ENDROOT
BRANCH  14  15
ATOM     15  CB  GLU D 570     -19.500  -6.345 -13.794  1.00 32.92     0.043 C 
BRANCH  15  16
ATOM     16  CG  GLU D 570     -19.810  -5.970 -15.198  1.00 32.92     0.100 C 
BRANCH  16  17
ATOM     17  CD  GLU D 570     -21.280  -5.702 -15.425  1.00 32.92     0.185 C 
ATOM     18  OE1 GLU D 570     -21.618  -4.691 -16.070  1.00 32.92    -0.647 OA
ATOM     19  OE2 GLU D 570     -22.102  -6.503 -14.939  1.00 32.92    -0.647 OA
ENDBRANCH  16  17
ENDBRANCH  15  16
ENDBRANCH  14  15
END_RES GLU D 570
ENDMDL
MODEL 2
REMARK VINA RESULT:      -6.2      3.104      4.555
REMARK  7 active torsions:
REMARK  status: ('A' for Active; 'I' for Inactive)
REMARK    1  A    between atoms: C_2  and  C_3 
REMARK    2  A    between atoms: C_3  and  C_4 
REMARK    3  A    between atoms: C_4  and  C_5 
REMARK    4  A    between atoms: C_5  and  C_6 
REMARK    5  A    between atoms: C_6  and  C_7 
REMARK    6  A    between atoms: C_7  and  C_8 
REMARK       I    between atoms: C_8  and  N_10 
REMARK    7  A    between atoms: N_10  and  O_11 
ROOT
HETATM    1  C   UNL     1     -22.566  -4.484  -9.160  1.00  0.00     0.105 C 
ENDROOT
BRANCH   1   2
HETATM    2  C   UNL     1     -21.228  -4.082  -9.775  1.00  0.00     0.009 C 
BRANCH   2   3
HETATM    3  C   UNL     1     -20.086  -4.179  -8.769  1.00  0.00     0.000 C 
BRANCH   3   4
HETATM    4  C   UNL     1     -20.600  -3.916  -7.356  1.00  0.00     0.000 C 
BRANCH   4   5
HETATM    5  C   UNL     1     -19.820  -4.737  -6.334  1.00  0.00    -0.000 C 
BRANCH   5   6
HETATM    6  C   UNL     1     -20.418  -6.131  -6.181  1.00  0.00    -0.005 C 
HETATM    7  C   UNL     1     -21.823  -6.054  -5.612  1.00  0.00     0.005 C 
ENDBRANCH   5   6
ENDBRANCH   4   5
ENDBRANCH   3   4
ENDBRANCH   2   3
ENDBRANCH   1   2
BRANCH   1   8
HETATM    8  C   UNL     1     -23.711  -3.750  -9.825  1.00  0.00     0.240 C 
HETATM    9  O   UNL     1     -23.601  -3.075 -10.842  1.00  0.00    -0.271 OA
HETATM   10  N   UNL     1     -24.913  -3.897  -9.189  1.00  0.00    -0.237 N 
HETATM   11  H   UNL     1     -25.081  -4.436  -8.349  1.00  0.00     0.197 HD
BRANCH  10  12
HETATM   12  O   UNL     1     -26.016  -3.230  -9.771  1.00  0.00    -0.287 OA
HETATM   13  H   UNL     1     -26.432  -3.944 -10.305  1.00  0.00     0.244 HD
ENDBRANCH  10  12
ENDBRANCH   1   8
TORSDOF 7
BEGIN_RES ARG D 557
REMARK  4 active torsions:
REMARK  status: ('A' for Active; 'I' for Inactive)
REMARK    1  A    between atoms: CA   and  CB  
REMARK    2  A    between atoms: CB   and  CG  
REMARK    3  A    between atoms: CG   and  CD  
REMARK    4  A    between atoms: CD   and  NE  
REMARK       I    between atoms: NE   and  CZ  
REMARK       I    between atoms: CZ   and  NH1 
REMARK       I    between atoms: CZ   and  NH2 
ROOT
ATOM      1  CA  ARG D 557     -26.217   2.705 -17.014  1.00 35.49     0.159 C 
ENDROOT
BRANCH   1   2
ATOM      2  CB  ARG D 557     -26.789   1.319 -17.183  1.00 35.49     0.034 C 
BRANCH   2   3
ATOM      3  CG  ARG D 557     -25.836   0.203 -17.154  1.00 35.49     0.027 C 
BRANCH   3   4
ATOM      4  CD  ARG D 557     -24.752   0.412 -16.167  1.00 35.49     0.116 C 
BRANCH   4   5
ATOM      5  NE  ARG D 557     -24.899  -0.435 -15.013  1.00 35.49    -0.212 N 
ATOM      6  CZ  ARG D 557     -24.087  -1.409 -14.667  1.00 35.49     0.666 C 
ATOM      7  NH1 ARG D 557     -23.022  -1.731 -15.377  1.00 35.49    -0.235 N 
ATOM      8  NH2 ARG D 557     -24.363  -2.061 -13.575  1.00 35.49    -0.235 N 
ATOM      9  HH  ARG D 557     -22.820  -1.314 -16.098  1.00 35.49     0.174 HD
ATOM     10  HH  ARG D 557     -22.527  -2.373 -15.101  1.00 35.49     0.174 HD
ATOM     11  HH  ARG D 557     -25.053  -1.827 -13.132  1.00 35.49     0.174 HD
ATOM     12  HH  ARG D 557     -23.860  -2.693 -13.317  1.00 35.49     0.174 HD
ATOM     13  HE  ARG D 557     -25.598  -0.345 -14.538  1.00 35.49     0.178 HD
ENDBRANCH   4   5
ENDBRANCH   3   4
ENDBRANCH   2   3
ENDBRANCH   1   2
END_RES ARG D 557
BEGIN_RES GLU D 570
REMARK  3 active torsions:
REMARK  status: ('A' for Active; 'I' for Inactive)
REMARK    5  A    between atoms: CA   and  CB  
REMARK    6  A    between atoms: CB   and  CG  
REMARK    7  A    between atoms: CG   and  CD  
ROOT
ATOM     14  CA  GLU D 570     -18.033  -6.348 -13.375  1.00 32.92     0.160 C 
ENDROOT
BRANCH  14  15
ATOM     15  CB  GLU D 570     -19.500  -6.345 -13.794  1.00 32.92     0.043 C 
BRANCH  15  16
ATOM     16  CG  GLU D 570     -20.440  -5.523 -12.989  1.00 32.92     0.100 C 
BRANCH  16  17
ATOM     17  CD  GLU D 570     -21.742  -5.246 -13.704  1.00 32.92     0.185 C 
ATOM     18  OE1 GLU D 570     -22.267  -4.122 -13.591  1.00 32.92    -0.647 OA
ATOM     19  OE2 GLU D 570     -22.250  -6.168 -14.372  1.00 32.92    -0.647 OA
ENDBRANCH  16  17
ENDBRANCH  15  16
ENDBRANCH  14  15
END_RES GLU D 570
ENDMDL
MODEL 3
REMARK VINA RESULT:      -6.0      6.291      8.213
REMARK  7 active torsions:
REMARK  status: ('A' for Active; 'I' for Inactive)
REMARK    1  A    between atoms: C_2  and  C_3 
REMARK    2  A    between atoms: C_3  and  C_4 
REMARK    3  A    between atoms: C_4  and  C_5 
REMARK    4  A    between atoms: C_5  and  C_6 
REMARK    5  A    between atoms: C_6  and  C_7 
REMARK    6  A    between atoms: C_7  and  C_8 
REMARK       I    between atoms: C_8  and  N_10 
REMARK    7  A    between atoms: N_10  and  O_11 
ROOT
HETATM    1  C   UNL     1     -35.238  -1.738 -11.794  1.00  0.00     0.105 C 
ENDROOT
BRANCH   1   2
HETATM    2  C   UNL     1     -33.920  -1.927 -11.047  1.00  0.00     0.009 C 
BRANCH   2   3
HETATM    3  C   UNL     1     -33.777  -3.340 -10.492  1.00  0.00     0.000 C 
BRANCH   3   4
HETATM    4  C   UNL     1     -33.100  -4.246 -11.517  1.00  0.00     0.000 C 
BRANCH   4   5
HETATM    5  C   UNL     1     -33.371  -5.714 -11.205  1.00  0.00    -0.000 C 
BRANCH   5   6
HETATM    6  C   UNL     1     -34.601  -5.866 -10.315  1.00  0.00    -0.005 C 
HETATM    7  C   UNL     1     -34.787  -7.315  -9.900  1.00  0.00     0.005 C 
ENDBRANCH   5   6
ENDBRANCH   4   5
ENDBRANCH   3   4
ENDBRANCH   2   3
ENDBRANCH   1   2
BRANCH   1   8
HETATM    8  C   UNL     1     -34.994  -1.396 -13.248  1.00  0.00     0.240 C 
HETATM    9  O   UNL     1     -34.960  -2.220 -14.155  1.00  0.00    -0.271 OA
HETATM   10  N   UNL     1     -34.806  -0.062 -13.486  1.00  0.00    -0.237 N 
HETATM   11  H   UNL     1     -34.820   0.675 -12.791  1.00  0.00     0.197 HD
BRANCH  10  12
HETATM   12  O   UNL     1     -34.574   0.309 -14.830  1.00  0.00    -0.287 OA
HETATM   13  H   UNL     1     -34.731   1.280 -14.807  1.00  0.00     0.244 HD
ENDBRANCH  10  12
ENDBRANCH   1   8
TORSDOF 7
BEGIN_RES ARG D 557
REMARK  4 active torsions:
REMARK  status: ('A' for Active; 'I' for Inactive)
REMARK    1  A    between atoms: CA   and  CB  
REMARK    2  A    between atoms: CB   and  CG  
REMARK    3  A    between atoms: CG   and  CD  
REMARK    4  A    between atoms: CD   and  NE  
REMARK       I    between atoms: NE   and  CZ  
REMARK       I    between atoms: CZ   and  NH1 
REMARK       I    between atoms: CZ   and  NH2 
ROOT
ATOM      1  CA  ARG D 557     -26.217   2.705 -17.014  1.00 35.49     0.159 C 
ENDROOT
BRANCH   1   2
ATOM      2  CB  ARG D 557     -26.789   1.319 -17.183  1.00 35.49     0.034 C 
BRANCH   2   3
ATOM      3  CG  ARG D 557     -25.862   0.195 -17.002  1.00 35.49     0.027 C 
BRANCH   3   4
ATOM      4  CD  ARG D 557     -26.281  -0.711 -15.908  1.00 35.49     0.116 C 
BRANCH   4   5
ATOM      5  NE  ARG D 557     -25.237  -0.907 -14.937  1.00 35.49    -0.212 N 
ATOM      6  CZ  ARG D 557     -24.933  -2.046 -14.355  1.00 35.49     0.666 C 
ATOM      7  NH1 ARG D 557     -25.589  -3.165 -14.601  1.00 35.49    -0.235 N 
ATOM      8  NH2 ARG D 557     -23.940  -2.044 -13.514  1.00 35.49    -0.235 N 
ATOM      9  HH  ARG D 557     -26.244  -3.189 -15.153  1.00 35.49     0.174 HD
ATOM     10  HH  ARG D 557     -25.344  -3.878 -14.194  1.00 35.49     0.174 HD
ATOM     11  HH  ARG D 557     -23.530  -1.308 -13.380  1.00 35.49     0.174 HD
ATOM     12  HH  ARG D 557     -23.712  -2.761 -13.122  1.00 35.49     0.174 HD
ATOM     13  HE  ARG D 557     -24.810  -0.223 -14.665  1.00 35.49     0.178 HD
ENDBRANCH   4   5
ENDBRANCH   3   4
ENDBRANCH   2   3
ENDBRANCH   1   2
END_RES ARG D 557
BEGIN_RES GLU D 570
REMARK  3 active torsions:
REMARK  status: ('A' for Active; 'I' for Inactive)
REMARK    5  A    between atoms: CA   and  CB  
REMARK    6  A    between atoms: CB   and  CG  
REMARK    7  A    between atoms: CG   and  CD  
ROOT
ATOM     14  CA  GLU D 570     -18.033  -6.348 -13.375  1.00 32.92     0.160 C 
ENDROOT
BRANCH  14  15
ATOM     15  CB  GLU D 570     -19.500  -6.345 -13.794  1.00 32.92     0.043 C 
BRANCH  15  16
ATOM     16  CG  GLU D 570     -20.449  -5.566 -12.958  1.00 32.92     0.100 C 
BRANCH  16  17
ATOM     17  CD  GLU D 570     -21.682  -5.131 -13.715  1.00 32.92     0.185 C 
ATOM     18  OE1 GLU D 570     -22.694  -4.783 -13.076  1.00 32.92    -0.647 OA
ATOM     19  OE2 GLU D 570     -21.642  -5.156 -14.961  1.00 32.92    -0.647 OA
ENDBRANCH  16  17
ENDBRANCH  15  16
ENDBRANCH  14  15
END_RES GLU D 570
ENDMDL
MODEL 4
REMARK VINA RESULT:      -6.0      1.326      1.634
REMARK  7 active torsions:
REMARK  status: ('A' for Active; 'I' for Inactive)
REMARK    1  A    between atoms: C_2  and  C_3 
REMARK    2  A    between atoms: C_3  and  C_4 
REMARK    3  A    between atoms: C_4  and  C_5 
REMARK    4  A    between atoms: C_5  and  C_6 
REMARK    5  A    between atoms: C_6  and  C_7 
REMARK    6  A    between atoms: C_7  and  C_8 
REMARK       I    between atoms: C_8  and  N_10 
REMARK    7  A    between atoms: N_10  and  O_11 
ROOT
HETATM    1  C   UNL     1     -22.820  -3.410 -13.351  1.00  0.00     0.105 C 
ENDROOT
BRANCH   1   2
HETATM    2  C   UNL     1     -22.457  -2.771 -12.013  1.00  0.00     0.009 C 
BRANCH   2   3
HETATM    3  C   UNL     1     -22.274  -3.813 -10.914  1.00  0.00     0.000 C 
BRANCH   3   4
HETATM    4  C   UNL     1     -20.820  -4.275 -10.857  1.00  0.00     0.000 C 
BRANCH   4   5
HETATM    5  C   UNL     1     -20.285  -4.204  -9.431  1.00  0.00    -0.000 C 
BRANCH   5   6
HETATM    6  C   UNL     1     -21.356  -4.609  -8.423  1.00  0.00    -0.005 C 
HETATM    7  C   UNL     1     -21.379  -3.647  -7.249  1.00  0.00     0.005 C 
ENDBRANCH   5   6
ENDBRANCH   4   5
ENDBRANCH   3   4
ENDBRANCH   2   3
ENDBRANCH   1   2
BRANCH   1   8
HETATM    8  C   UNL     1     -23.393  -2.385 -14.305  1.00  0.00     0.240 C 
HETATM    9  O   UNL     1     -22.877  -2.069 -15.371  1.00  0.00    -0.271 OA
HETATM   10  N   UNL     1     -24.563  -1.817 -13.880  1.00  0.00    -0.237 N 
HETATM   11  H   UNL     1     -25.047  -2.026 -13.015  1.00  0.00     0.197 HD
BRANCH  10  12
HETATM   12  O   UNL     1     -25.140  -0.851 -14.736  1.00  0.00    -0.287 OA
HETATM   13  H   UNL     1     -26.084  -0.868 -14.462  1.00  0.00     0.244 HD
ENDBRANCH  10  12
ENDBRANCH   1   8
TORSDOF 7
BEGIN_RES ARG D 557
REMARK  4 active torsions:
REMARK  status: ('A' for Active; 'I' for Inactive)
REMARK    1  A    between atoms: CA   and  CB  
REMARK    2  A    between atoms: CB   and  CG  
REMARK    3  A    between atoms: CG   and  CD  
REMARK    4  A    between atoms: CD   and  NE  
REMARK       I    between atoms: NE   and  CZ  
REMARK       I    between atoms: CZ   and  NH1 
REMARK       I    between atoms: CZ   and  NH2 
ROOT
ATOM      1  CA  ARG D 557     -26.217   2.705 -17.014  1.00 35.49     0.159 C 
ENDROOT
BRANCH   1   2
ATOM      2  CB  ARG D 557     -26.789   1.319 -17.183  1.00 35.49     0.034 C 
BRANCH   2   3
ATOM      3  CG  ARG D 557     -28.238   1.224 -17.399  1.00 35.49     0.027 C 
BRANCH   3   4
ATOM      4  CD  ARG D 557     -28.876   0.222 -16.515  1.00 35.49     0.116 C 
BRANCH   4   5
ATOM      5  NE  ARG D 557     -27.961  -0.818 -16.126  1.00 35.49    -0.212 N 
ATOM      6  CZ  ARG D 557     -28.008  -2.070 -16.524  1.00 35.49     0.666 C 
ATOM      7  NH1 ARG D 557     -28.941  -2.520 -17.341  1.00 35.49    -0.235 N 
ATOM      8  NH2 ARG D 557     -27.082  -2.874 -16.086  1.00 35.49    -0.235 N 
ATOM      9  HH  ARG D 557     -29.559  -2.008 -17.643  1.00 35.49     0.174 HD
ATOM     10  HH  ARG D 557     -28.919  -3.346 -17.569  1.00 35.49     0.174 HD
ATOM     11  HH  ARG D 557     -26.488  -2.554 -15.565  1.00 35.49     0.174 HD
ATOM     12  HH  ARG D 557     -27.077  -3.687 -16.324  1.00 35.49     0.174 HD
ATOM     13  HE  ARG D 557     -27.370  -0.633 -15.543  1.00 35.49     0.178 HD
ENDBRANCH   4   5
ENDBRANCH   3   4
ENDBRANCH   2   3
ENDBRANCH   1   2
END_RES ARG D 557
BEGIN_RES GLU D 570
REMARK  3 active torsions:
REMARK  status: ('A' for Active; 'I' for Inactive)
REMARK    5  A    between atoms: CA   and  CB  
REMARK    6  A    between atoms: CB   and  CG  
REMARK    7  A    between atoms: CG   and  CD  
ROOT
ATOM     14  CA  GLU D 570     -18.033  -6.348 -13.375  1.00 32.92     0.160 C 
ENDROOT
BRANCH  14  15
ATOM     15  CB  GLU D 570     -19.500  -6.345 -13.794  1.00 32.92     0.043 C 
BRANCH  15  16
ATOM     16  CG  GLU D 570     -19.797  -6.229 -15.245  1.00 32.92     0.100 C 
BRANCH  16  17
ATOM     17  CD  GLU D 570     -21.245  -5.902 -15.526  1.00 32.92     0.185 C 
ATOM     18  OE1 GLU D 570     -21.515  -4.988 -16.329  1.00 32.92    -0.647 OA
ATOM     19  OE2 GLU D 570     -22.120  -6.556 -14.923  1.00 32.92    -0.647 OA
ENDBRANCH  16  17
ENDBRANCH  15  16
ENDBRANCH  14  15
END_RES GLU D 570
ENDMDL
MODEL 5
REMARK VINA RESULT:      -6.0      2.601      3.460
REMARK  7 active torsions:
REMARK  status: ('A' for Active; 'I' for Inactive)
REMARK    1  A    between atoms: C_2  and  C_3 
REMARK    2  A    between atoms: C_3  and  C_4 
REMARK    3  A    between atoms: C_4  and  C_5 
REMARK    4  A    between atoms: C_5  and  C_6 
REMARK    5  A    between atoms: C_6  and  C_7 
REMARK    6  A    between atoms: C_7  and  C_8 
REMARK       I    between atoms: C_8  and  N_10 
REMARK    7  A    between atoms: N_10  and  O_11 
ROOT
HETATM    1  C   UNL     1     -23.391  -3.735  -9.149  1.00  0.00     0.105 C 
ENDROOT
BRANCH   1   2
HETATM    2  C   UNL     1     -22.177  -4.418  -9.774  1.00  0.00     0.009 C 
BRANCH   2   3
HETATM    3  C   UNL     1     -20.993  -4.465  -8.814  1.00  0.00     0.000 C 
BRANCH   3   4
HETATM    4  C   UNL     1     -21.343  -3.763  -7.504  1.00  0.00     0.000 C 
BRANCH   4   5
HETATM    5  C   UNL     1     -20.605  -4.403  -6.333  1.00  0.00    -0.000 C 
BRANCH   5   6
HETATM    6  C   UNL     1     -19.984  -5.736  -6.740  1.00  0.00    -0.005 C 
HETATM    7  C   UNL     1     -20.515  -6.863  -5.873  1.00  0.00     0.005 C 
ENDBRANCH   5   6
ENDBRANCH   4   5
ENDBRANCH   3   4
ENDBRANCH   2   3
ENDBRANCH   1   2
BRANCH   1   8
HETATM    8  C   UNL     1     -24.385  -3.317 -10.211  1.00  0.00     0.240 C 
HETATM    9  O   UNL     1     -25.593  -3.224 -10.028  1.00  0.00    -0.271 OA
HETATM   10  N   UNL     1     -23.822  -3.042 -11.427  1.00  0.00    -0.237 N 
HETATM   11  H   UNL     1     -22.836  -3.096 -11.654  1.00  0.00     0.197 HD
BRANCH  10  12
HETATM   12  O   UNL     1     -24.709  -2.647 -12.454  1.00  0.00    -0.287 OA
HETATM   13  H   UNL     1     -24.212  -1.918 -12.889  1.00  0.00     0.244 HD
ENDBRANCH  10  12
ENDBRANCH   1   8
TORSDOF 7
BEGIN_RES ARG D 557
REMARK  4 active torsions:
REMARK  status: ('A' for Active; 'I' for Inactive)
REMARK    1  A    between atoms: CA   and  CB  
REMARK    2  A    between atoms: CB   and  CG  
REMARK    3  A    between atoms: CG   and  CD  
REMARK    4  A    between atoms: CD   and  NE  
REMARK       I    between atoms: NE   and  CZ  
REMARK       I    between atoms: CZ   and  NH1 
REMARK       I    between atoms: CZ   and  NH2 
ROOT
ATOM      1  CA  ARG D 557     -26.217   2.705 -17.014  1.00 35.49     0.159 C 
ENDROOT
BRANCH   1   2
ATOM      2  CB  ARG D 557     -26.789   1.319 -17.183  1.00 35.49     0.034 C 
BRANCH   2   3
ATOM      3  CG  ARG D 557     -28.220   1.156 -16.900  1.00 35.49     0.027 C 
BRANCH   3   4
ATOM      4  CD  ARG D 557     -28.575  -0.244 -16.574  1.00 35.49     0.116 C 
BRANCH   4   5
ATOM      5  NE  ARG D 557     -27.519  -0.921 -15.868  1.00 35.49    -0.212 N 
ATOM      6  CZ  ARG D 557     -27.259  -2.208 -15.925  1.00 35.49     0.666 C 
ATOM      7  NH1 ARG D 557     -27.976  -3.045 -16.652  1.00 35.49    -0.235 N 
ATOM      8  NH2 ARG D 557     -26.246  -2.647 -15.235  1.00 35.49    -0.235 N 
ATOM      9  HH  ARG D 557     -28.645  -2.778 -17.115  1.00 35.49     0.174 HD
ATOM     10  HH  ARG D 557     -27.758  -3.874 -16.652  1.00 35.49     0.174 HD
ATOM     11  HH  ARG D 557     -25.797  -2.082 -14.781  1.00 35.49     0.174 HD
ATOM     12  HH  ARG D 557     -26.045  -3.471 -15.249  1.00 35.49     0.174 HD
ATOM     13  HE  ARG D 557     -27.052  -0.469 -15.319  1.00 35.49     0.178 HD
ENDBRANCH   4   5
ENDBRANCH   3   4
ENDBRANCH   2   3
ENDBRANCH   1   2
END_RES ARG D 557
BEGIN_RES GLU D 570
REMARK  3 active torsions:
REMARK  status: ('A' for Active; 'I' for Inactive)
REMARK    5  A    between atoms: CA   and  CB  
REMARK    6  A    between atoms: CB   and  CG  
REMARK    7  A    between atoms: CG   and  CD  
ROOT
ATOM     14  CA  GLU D 570     -18.033  -6.348 -13.375  1.00 32.92     0.160 C 
ENDROOT
BRANCH  14  15
ATOM     15  CB  GLU D 570     -19.500  -6.345 -13.794  1.00 32.92     0.043 C 
BRANCH  15  16
ATOM     16  CG  GLU D 570     -20.439  -5.519 -12.992  1.00 32.92     0.100 C 
BRANCH  16  17
ATOM     17  CD  GLU D 570     -21.752  -5.267 -13.697  1.00 32.92     0.185 C 
ATOM     18  OE1 GLU D 570     -22.306  -4.159 -13.566  1.00 32.92    -0.647 OA
ATOM     19  OE2 GLU D 570     -22.238  -6.193 -14.375  1.00 32.92    -0.647 OA
ENDBRANCH  16  17
ENDBRANCH  15  16
ENDBRANCH  14  15
END_RES GLU D 570
ENDMDL
MODEL 6
REMARK VINA RESULT:      -5.9      1.814      2.401
REMARK  7 active torsions:
REMARK  status: ('A' for Active; 'I' for Inactive)
REMARK    1  A    between atoms: C_2  and  C_3 
REMARK    2  A    between atoms: C_3  and  C_4 
REMARK    3  A    between atoms: C_4  and  C_5 
REMARK    4  A    between atoms: C_5  and  C_6 
REMARK    5  A    between atoms: C_6  and  C_7 
REMARK    6  A    between atoms: C_7  and  C_8 
REMARK       I    between atoms: C_8  and  N_10 
REMARK    7  A    between atoms: N_10  and  O_11 
ROOT
HETATM    1  C   UNL     1     -23.023  -3.415 -11.449  1.00  0.00     0.105 C 
ENDROOT
BRANCH   1   2
HETATM    2  C   UNL     1     -21.535  -3.103 -11.316  1.00  0.00     0.009 C 
BRANCH   2   3
HETATM    3  C   UNL     1     -20.727  -4.333 -10.915  1.00  0.00     0.000 C 
BRANCH   3   4
HETATM    4  C   UNL     1     -20.184  -4.172  -9.497  1.00  0.00     0.000 C 
BRANCH   4   5
HETATM    5  C   UNL     1     -21.219  -4.612  -8.467  1.00  0.00    -0.000 C 
BRANCH   5   6
HETATM    6  C   UNL     1     -21.113  -3.778  -7.195  1.00  0.00    -0.005 C 
HETATM    7  C   UNL     1     -20.397  -4.553  -6.103  1.00  0.00     0.005 C 
ENDBRANCH   5   6
ENDBRANCH   4   5
ENDBRANCH   3   4
ENDBRANCH   2   3
ENDBRANCH   1   2
BRANCH   1   8
HETATM    8  C   UNL     1     -23.557  -2.958 -12.789  1.00  0.00     0.240 C 
HETATM    9  O   UNL     1     -24.731  -2.678 -13.006  1.00  0.00    -0.271 OA
HETATM   10  N   UNL     1     -22.609  -2.878 -13.772  1.00  0.00    -0.237 N 
HETATM   11  H   UNL     1     -21.624  -3.092 -13.668  1.00  0.00     0.197 HD
BRANCH  10  12
HETATM   12  O   UNL     1     -23.057  -2.455 -15.044  1.00  0.00    -0.287 OA
HETATM   13  H   UNL     1     -23.914  -2.930 -15.131  1.00  0.00     0.244 HD
ENDBRANCH  10  12
ENDBRANCH   1   8
TORSDOF 7
BEGIN_RES ARG D 557
REMARK  4 active torsions:
REMARK  status: ('A' for Active; 'I' for Inactive)
REMARK    1  A    between atoms: CA   and  CB  
REMARK    2  A    between atoms: CB   and  CG  
REMARK    3  A    between atoms: CG   and  CD  
REMARK    4  A    between atoms: CD   and  NE  
REMARK       I    between atoms: NE   and  CZ  
REMARK       I    between atoms: CZ   and  NH1 
REMARK       I    between atoms: CZ   and  NH2 
ROOT
ATOM      1  CA  ARG D 557     -26.217   2.705 -17.014  1.00 35.49     0.159 C 
ENDROOT
BRANCH   1   2
ATOM      2  CB  ARG D 557     -26.789   1.319 -17.183  1.00 35.49     0.034 C 
BRANCH   2   3
ATOM      3  CG  ARG D 557     -28.238   1.175 -16.998  1.00 35.49     0.027 C 
BRANCH   3   4
ATOM      4  CD  ARG D 557     -28.628  -0.211 -16.650  1.00 35.49     0.116 C 
BRANCH   4   5
ATOM      5  NE  ARG D 557     -27.584  -0.906 -15.944  1.00 35.49    -0.212 N 
ATOM      6  CZ  ARG D 557     -27.336  -2.195 -16.015  1.00 35.49     0.666 C 
ATOM      7  NH1 ARG D 557     -28.055  -3.016 -16.759  1.00 35.49    -0.235 N 
ATOM      8  NH2 ARG D 557     -26.334  -2.653 -15.322  1.00 35.49    -0.235 N 
ATOM      9  HH  ARG D 557     -28.717  -2.736 -17.225  1.00 35.49     0.174 HD
ATOM     10  HH  ARG D 557     -27.844  -3.846 -16.768  1.00 35.49     0.174 HD
ATOM     11  HH  ARG D 557     -25.883  -2.098 -14.857  1.00 35.49     0.174 HD
ATOM     12  HH  ARG D 557     -26.141  -3.478 -15.345  1.00 35.49     0.174 HD
ATOM     13  HE  ARG D 557     -27.118  -0.466 -15.385  1.00 35.49     0.178 HD
ENDBRANCH   4   5
ENDBRANCH   3   4
ENDBRANCH   2   3
ENDBRANCH   1   2
END_RES ARG D 557
BEGIN_RES GLU D 570
REMARK  3 active torsions:
REMARK  status: ('A' for Active; 'I' for Inactive)
REMARK    5  A    between atoms: CA   and  CB  
REMARK    6  A    between atoms: CB   and  CG  
REMARK    7  A    between atoms: CG   and  CD  
ROOT
ATOM     14  CA  GLU D 570     -18.033  -6.348 -13.375  1.00 32.92     0.160 C 
ENDROOT
BRANCH  14  15
ATOM     15  CB  GLU D 570     -19.500  -6.345 -13.794  1.00 32.92     0.043 C 
BRANCH  15  16
ATOM     16  CG  GLU D 570     -19.810  -5.974 -15.199  1.00 32.92     0.100 C 
BRANCH  16  17
ATOM     17  CD  GLU D 570     -21.230  -5.492 -15.382  1.00 32.92     0.185 C 
ATOM     18  OE1 GLU D 570     -22.049  -5.656 -14.456  1.00 32.92    -0.647 OA
ATOM     19  OE2 GLU D 570     -21.532  -4.961 -16.468  1.00 32.92    -0.647 OA
ENDBRANCH  16  17
ENDBRANCH  15  16
ENDBRANCH  14  15
END_RES GLU D 570
ENDMDL
MODEL 7
REMARK VINA RESULT:      -5.4      2.635      3.438
REMARK  7 active torsions:
REMARK  status: ('A' for Active; 'I' for Inactive)
REMARK    1  A    between atoms: C_2  and  C_3 
REMARK    2  A    between atoms: C_3  and  C_4 
REMARK    3  A    between atoms: C_4  and  C_5 
REMARK    4  A    between atoms: C_5  and  C_6 
REMARK    5  A    between atoms: C_6  and  C_7 
REMARK    6  A    between atoms: C_7  and  C_8 
REMARK       I    between atoms: C_8  and  N_10 
REMARK    7  A    between atoms: N_10  and  O_11 
ROOT
HETATM    1  C   UNL     1     -24.364  -5.505 -14.701  1.00  0.00     0.105 C 
ENDROOT
BRANCH   1   2
HETATM    2  C   UNL     1     -23.361  -5.873 -13.611  1.00  0.00     0.009 C 
BRANCH   2   3
HETATM    3  C   UNL     1     -22.791  -4.639 -12.920  1.00  0.00     0.000 C 
BRANCH   3   4
HETATM    4  C   UNL     1     -23.378  -4.496 -11.518  1.00  0.00     0.000 C 
BRANCH   4   5
HETATM    5  C   UNL     1     -22.530  -3.555 -10.669  1.00  0.00    -0.000 C 
BRANCH   5   6
HETATM    6  C   UNL     1     -21.637  -4.336  -9.710  1.00  0.00    -0.005 C 
HETATM    7  C   UNL     1     -20.239  -4.487 -10.281  1.00  0.00     0.005 C 
ENDBRANCH   5   6
ENDBRANCH   4   5
ENDBRANCH   3   4
ENDBRANCH   2   3
ENDBRANCH   1   2
BRANCH   1   8
HETATM    8  C   UNL     1     -24.681  -6.700 -15.574  1.00  0.00     0.240 C 
HETATM    9  O   UNL     1     -25.616  -7.469 -15.378  1.00  0.00    -0.271 OA
HETATM   10  N   UNL     1     -23.825  -6.867 -16.627  1.00  0.00    -0.237 N 
HETATM   11  H   UNL     1     -23.035  -6.275 -16.852  1.00  0.00     0.197 HD
BRANCH  10  12
HETATM   12  O   UNL     1     -24.079  -7.971 -17.473  1.00  0.00    -0.287 OA
HETATM   13  H   UNL     1     -23.915  -8.734 -16.875  1.00  0.00     0.244 HD
ENDBRANCH  10  12
ENDBRANCH   1   8
TORSDOF 7
BEGIN_RES ARG D 557
REMARK  4 active torsions:
REMARK  status: ('A' for Active; 'I' for Inactive)
REMARK    1  A    between atoms: CA   and  CB  
REMARK    2  A    between atoms: CB   and  CG  
REMARK    3  A    between atoms: CG   and  CD  
REMARK    4  A    between atoms: CD   and  NE  
REMARK       I    between atoms: NE   and  CZ  
REMARK       I    between atoms: CZ   and  NH1 
REMARK       I    between atoms: CZ   and  NH2 
ROOT
ATOM      1  CA  ARG D 557     -26.217   2.705 -17.014  1.00 35.49     0.159 C 
ENDROOT
BRANCH   1   2
ATOM      2  CB  ARG D 557     -26.789   1.319 -17.183  1.00 35.49     0.034 C 
BRANCH   2   3
ATOM      3  CG  ARG D 557     -28.240   1.177 -17.008  1.00 35.49     0.027 C 
BRANCH   3   4
ATOM      4  CD  ARG D 557     -28.636  -0.213 -16.685  1.00 35.49     0.116 C 
BRANCH   4   5
ATOM      5  NE  ARG D 557     -27.607  -0.917 -15.966  1.00 35.49    -0.212 N 
ATOM      6  CZ  ARG D 557     -27.374  -2.209 -16.027  1.00 35.49     0.666 C 
ATOM      7  NH1 ARG D 557     -28.097  -3.025 -16.771  1.00 35.49    -0.235 N 
ATOM      8  NH2 ARG D 557     -26.384  -2.674 -15.322  1.00 35.49    -0.235 N 
ATOM      9  HH  ARG D 557     -28.752  -2.740 -17.245  1.00 35.49     0.174 HD
ATOM     10  HH  ARG D 557     -27.897  -3.858 -16.774  1.00 35.49     0.174 HD
ATOM     11  HH  ARG D 557     -25.930  -2.122 -14.857  1.00 35.49     0.174 HD
ATOM     12  HH  ARG D 557     -26.201  -3.502 -15.339  1.00 35.49     0.174 HD
ATOM     13  HE  ARG D 557     -27.140  -0.479 -15.406  1.00 35.49     0.178 HD
ENDBRANCH   4   5
ENDBRANCH   3   4
ENDBRANCH   2   3
ENDBRANCH   1   2
END_RES ARG D 557
BEGIN_RES GLU D 570
REMARK  3 active torsions:
REMARK  status: ('A' for Active; 'I' for Inactive)
REMARK    5  A    between atoms: CA   and  CB  
REMARK    6  A    between atoms: CB   and  CG  
REMARK    7  A    between atoms: CG   and  CD  
ROOT
ATOM     14  CA  GLU D 570     -18.033  -6.348 -13.375  1.00 32.92     0.160 C 
ENDROOT
BRANCH  14  15
ATOM     15  CB  GLU D 570     -19.500  -6.345 -13.794  1.00 32.92     0.043 C 
BRANCH  15  16
ATOM     16  CG  GLU D 570     -20.083  -7.632 -14.254  1.00 32.92     0.100 C 
BRANCH  16  17
ATOM     17  CD  GLU D 570     -20.753  -7.526 -15.604  1.00 32.92     0.185 C 
ATOM     18  OE1 GLU D 570     -21.364  -8.514 -16.056  1.00 32.92    -0.647 OA
ATOM     19  OE2 GLU D 570     -20.652  -6.449 -16.224  1.00 32.92    -0.647 OA
ENDBRANCH  16  17
ENDBRANCH  15  16
ENDBRANCH  14  15
END_RES GLU D 570
ENDMDL
MODEL 8
REMARK VINA RESULT:      -5.4      2.274      3.293
REMARK  7 active torsions:
REMARK  status: ('A' for Active; 'I' for Inactive)
REMARK    1  A    between atoms: C_2  and  C_3 
REMARK    2  A    between atoms: C_3  and  C_4 
REMARK    3  A    between atoms: C_4  and  C_5 
REMARK    4  A    between atoms: C_5  and  C_6 
REMARK    5  A    between atoms: C_6  and  C_7 
REMARK    6  A    between atoms: C_7  and  C_8 
REMARK       I    between atoms: C_8  and  N_10 
REMARK    7  A    between atoms: N_10  and  O_11 
ROOT
HETATM    1  C   UNL     1     -22.475  -4.430 -11.547  1.00  0.00     0.105 C 
ENDROOT
BRANCH   1   2
HETATM    2  C   UNL     1     -23.701  -4.857 -10.745  1.00  0.00     0.009 C 
BRANCH   2   3
HETATM    3  C   UNL     1     -23.686  -4.284  -9.332  1.00  0.00     0.000 C 
BRANCH   3   4
HETATM    4  C   UNL     1     -22.324  -3.669  -9.022  1.00  0.00     0.000 C 
BRANCH   4   5
HETATM    5  C   UNL     1     -21.704  -4.318  -7.789  1.00  0.00    -0.000 C 
BRANCH   5   6
HETATM    6  C   UNL     1     -20.429  -5.074  -8.150  1.00  0.00    -0.005 C 
HETATM    7  C   UNL     1     -19.303  -4.712  -7.198  1.00  0.00     0.005 C 
ENDBRANCH   5   6
ENDBRANCH   4   5
ENDBRANCH   3   4
ENDBRANCH   2   3
ENDBRANCH   1   2
BRANCH   1   8
HETATM    8  C   UNL     1     -22.723  -4.568 -13.034  1.00  0.00     0.240 C 
HETATM    9  O   UNL     1     -23.484  -5.389 -13.533  1.00  0.00    -0.271 OA
HETATM   10  N   UNL     1     -22.017  -3.686 -13.804  1.00  0.00    -0.237 N 
HETATM   11  H   UNL     1     -21.372  -2.982 -13.464  1.00  0.00     0.197 HD
BRANCH  10  12
HETATM   12  O   UNL     1     -22.213  -3.774 -15.201  1.00  0.00    -0.287 OA
HETATM   13  H   UNL     1     -21.332  -3.513 -15.552  1.00  0.00     0.244 HD
ENDBRANCH  10  12
ENDBRANCH   1   8
TORSDOF 7
BEGIN_RES ARG D 557
REMARK  4 active torsions:
REMARK  status: ('A' for Active; 'I' for Inactive)
REMARK    1  A    between atoms: CA   and  CB  
REMARK    2  A    between atoms: CB   and  CG  
REMARK    3  A    between atoms: CG   and  CD  
REMARK    4  A    between atoms: CD   and  NE  
REMARK       I    between atoms: NE   and  CZ  
REMARK       I    between atoms: CZ   and  NH1 
REMARK       I    between atoms: CZ   and  NH2 
ROOT
ATOM      1  CA  ARG D 557     -26.217   2.705 -17.014  1.00 35.49     0.159 C 
ENDROOT
BRANCH   1   2
ATOM      2  CB  ARG D 557     -26.789   1.319 -17.183  1.00 35.49     0.034 C 
BRANCH   2   3
ATOM      3  CG  ARG D 557     -25.961   0.201 -16.715  1.00 35.49     0.027 C 
BRANCH   3   4
ATOM      4  CD  ARG D 557     -26.773  -0.941 -16.237  1.00 35.49     0.116 C 
BRANCH   4   5
ATOM      5  NE  ARG D 557     -26.245  -1.513 -15.027  1.00 35.49    -0.212 N 
ATOM      6  CZ  ARG D 557     -26.234  -2.792 -14.722  1.00 35.49     0.666 C 
ATOM      7  NH1 ARG D 557     -26.737  -3.715 -15.520  1.00 35.49    -0.235 N 
ATOM      8  NH2 ARG D 557     -25.694  -3.134 -13.588  1.00 35.49    -0.235 N 
ATOM      9  HH  ARG D 557     -27.095  -3.513 -16.272  1.00 35.49     0.174 HD
ATOM     10  HH  ARG D 557     -26.699  -4.534 -15.270  1.00 35.49     0.174 HD
ATOM     11  HH  ARG D 557     -25.371  -2.517 -13.097  1.00 35.49     0.174 HD
ATOM     12  HH  ARG D 557     -25.665  -3.950 -13.359  1.00 35.49     0.174 HD
ATOM     13  HE  ARG D 557     -25.966  -0.983 -14.423  1.00 35.49     0.178 HD
ENDBRANCH   4   5
ENDBRANCH   3   4
ENDBRANCH   2   3
ENDBRANCH   1   2
END_RES ARG D 557
BEGIN_RES GLU D 570
REMARK  3 active torsions:
REMARK  status: ('A' for Active; 'I' for Inactive)
REMARK    5  A    between atoms: CA   and  CB  
REMARK    6  A    between atoms: CB   and  CG  
REMARK    7  A    between atoms: CG   and  CD  
ROOT
ATOM     14  CA  GLU D 570     -18.033  -6.348 -13.375  1.00 32.92     0.160 C 
ENDROOT
BRANCH  14  15
ATOM     15  CB  GLU D 570     -19.500  -6.345 -13.794  1.00 32.92     0.043 C 
BRANCH  15  16
ATOM     16  CG  GLU D 570     -19.797  -6.270 -15.248  1.00 32.92     0.100 C 
BRANCH  16  17
ATOM     17  CD  GLU D 570     -20.919  -7.190 -15.669  1.00 32.92     0.185 C 
ATOM     18  OE1 GLU D 570     -21.973  -6.695 -16.113  1.00 32.92    -0.647 OA
ATOM     19  OE2 GLU D 570     -20.748  -8.418 -15.537  1.00 32.92    -0.647 OA
ENDBRANCH  16  17
ENDBRANCH  15  16
ENDBRANCH  14  15
END_RES GLU D 570
ENDMDL
MODEL 9
REMARK VINA RESULT:      -5.4      4.849      6.313
REMARK  7 active torsions:
REMARK  status: ('A' for Active; 'I' for Inactive)
REMARK    1  A    between atoms: C_2  and  C_3 
REMARK    2  A    between atoms: C_3  and  C_4 
REMARK    3  A    between atoms: C_4  and  C_5 
REMARK    4  A    between atoms: C_5  and  C_6 
REMARK    5  A    between atoms: C_6  and  C_7 
REMARK    6  A    between atoms: C_7  and  C_8 
REMARK       I    between atoms: C_8  and  N_10 
REMARK    7  A    between atoms: N_10  and  O_11 
ROOT
HETATM    1  C   UNL     1     -21.103  -4.699  -7.195  1.00  0.00     0.105 C 
ENDROOT
BRANCH   1   2
HETATM    2  C   UNL     1     -20.737  -5.158  -5.786  1.00  0.00     0.009 C 
BRANCH   2   3
HETATM    3  C   UNL     1     -20.546  -6.669  -5.711  1.00  0.00     0.000 C 
BRANCH   3   4
HETATM    4  C   UNL     1     -20.722  -7.156  -4.274  1.00  0.00     0.000 C 
BRANCH   4   5
HETATM    5  C   UNL     1     -22.049  -6.671  -3.698  1.00  0.00    -0.000 C 
BRANCH   5   6
HETATM    6  C   UNL     1     -21.855  -6.073  -2.308  1.00  0.00    -0.005 C 
HETATM    7  C   UNL     1     -22.120  -7.113  -1.234  1.00  0.00     0.005 C 
ENDBRANCH   5   6
ENDBRANCH   4   5
ENDBRANCH   3   4
ENDBRANCH   2   3
ENDBRANCH   1   2
BRANCH   1   8
HETATM    8  C   UNL     1     -22.590  -4.452  -7.318  1.00  0.00     0.240 C 
HETATM    9  O   UNL     1     -23.419  -4.797  -6.482  1.00  0.00    -0.271 OA
HETATM   10  N   UNL     1     -22.957  -3.798  -8.462  1.00  0.00    -0.237 N 
HETATM   11  H   UNL     1     -22.333  -3.482  -9.194  1.00  0.00     0.197 HD
BRANCH  10  12
HETATM   12  O   UNL     1     -24.338  -3.542  -8.624  1.00  0.00    -0.287 OA
HETATM   13  H   UNL     1     -24.458  -3.658  -9.593  1.00  0.00     0.244 HD
ENDBRANCH  10  12
ENDBRANCH   1   8
TORSDOF 7
BEGIN_RES ARG D 557
REMARK  4 active torsions:
REMARK  status: ('A' for Active; 'I' for Inactive)
REMARK    1  A    between atoms: CA   and  CB  
REMARK    2  A    between atoms: CB   and  CG  
REMARK    3  A    between atoms: CG   and  CD  
REMARK    4  A    between atoms: CD   and  NE  
REMARK       I    between atoms: NE   and  CZ  
REMARK       I    between atoms: CZ   and  NH1 
REMARK       I    between atoms: CZ   and  NH2 
ROOT
ATOM      1  CA  ARG D 557     -26.217   2.705 -17.014  1.00 35.49     0.159 C 
ENDROOT
BRANCH   1   2
ATOM      2  CB  ARG D 557     -26.789   1.319 -17.183  1.00 35.49     0.034 C 
BRANCH   2   3
ATOM      3  CG  ARG D 557     -25.834   0.204 -17.169  1.00 35.49     0.027 C 
BRANCH   3   4
ATOM      4  CD  ARG D 557     -24.763   0.391 -16.164  1.00 35.49     0.116 C 
BRANCH   4   5
ATOM      5  NE  ARG D 557     -24.942  -0.460 -15.017  1.00 35.49    -0.212 N 
ATOM      6  CZ  ARG D 557     -24.145  -1.440 -14.655  1.00 35.49     0.666 C 
ATOM      7  NH1 ARG D 557     -23.065  -1.766 -15.342  1.00 35.49    -0.235 N 
ATOM      8  NH2 ARG D 557     -24.450  -2.094 -13.573  1.00 35.49    -0.235 N 
ATOM      9  HH  ARG D 557     -22.844  -1.348 -16.057  1.00 35.49     0.174 HD
ATOM     10  HH  ARG D 557     -22.582  -2.413 -15.057  1.00 35.49     0.174 HD
ATOM     11  HH  ARG D 557     -25.149  -1.857 -13.145  1.00 35.49     0.174 HD
ATOM     12  HH  ARG D 557     -23.958  -2.731 -13.306  1.00 35.49     0.174 HD
ATOM     13  HE  ARG D 557     -25.652  -0.367 -14.558  1.00 35.49     0.178 HD
ENDBRANCH   4   5
ENDBRANCH   3   4
ENDBRANCH   2   3
ENDBRANCH   1   2
END_RES ARG D 557
BEGIN_RES GLU D 570
REMARK  3 active torsions:
REMARK  status: ('A' for Active; 'I' for Inactive)
REMARK    5  A    between atoms: CA   and  CB  
REMARK    6  A    between atoms: CB   and  CG  
REMARK    7  A    between atoms: CG   and  CD  
ROOT
ATOM     14  CA  GLU D 570     -18.033  -6.348 -13.375  1.00 32.92     0.160 C 
ENDROOT
BRANCH  14  15
ATOM     15  CB  GLU D 570     -19.500  -6.345 -13.794  1.00 32.92     0.043 C 
BRANCH  15  16
ATOM     16  CG  GLU D 570     -20.443  -5.538 -12.977  1.00 32.92     0.100 C 
BRANCH  16  17
ATOM     17  CD  GLU D 570     -21.642  -5.059 -13.763  1.00 32.92     0.185 C 
ATOM     18  OE1 GLU D 570     -21.869  -5.556 -14.883  1.00 32.92    -0.647 OA
ATOM     19  OE2 GLU D 570     -22.351  -4.165 -13.260  1.00 32.92    -0.647 OA
ENDBRANCH  16  17
ENDBRANCH  15  16
ENDBRANCH  14  15
END_RES GLU D 570
ENDMDL
