MODEL 1
REMARK VINA RESULT:     -10.0      0.000      0.000
REMARK  5 active torsions:
REMARK  status: ('A' for Active; 'I' for Inactive)
REMARK    1  A    between atoms: C_5  and  C_6 
REMARK    2  A    between atoms: C_5  and  C_14 
REMARK    3  A    between atoms: C_9  and  N_12 
REMARK    4  A    between atoms: C_17  and  N_20 
REMARK    5  A    between atoms: N_25  and  H_31 
ROOT
HETATM    1  C   UNL     1     -20.611  -9.867   0.236  1.00  0.00     0.050 C 
HETATM    2  C   UNL     1     -21.097  -8.838  -0.741  1.00  0.00    -0.035 C 
HETATM    3  C   UNL     1     -20.587  -8.729  -1.984  1.00  0.00     0.021 C 
HETATM    4  C   UNL     1     -21.063  -7.727  -2.947  1.00  0.00    -0.024 C 
HETATM    5  C   UNL     1     -20.757  -7.825  -4.278  1.00  0.00    -0.005 C 
HETATM    6  C   UNL     1     -21.810  -6.592  -2.387  1.00  0.00     0.014 C 
HETATM    7  C   UNL     1     -22.348  -6.649  -1.150  1.00  0.00     0.030 C 
HETATM    8  C   UNL     1     -22.208  -7.910  -0.385  1.00  0.00     0.032 C 
HETATM    9  N   UNL     1     -23.086  -8.210   0.509  1.00  0.00    -0.387 N 
HETATM   10  H   UNL     1     -23.920  -7.655   0.663  1.00  0.00     0.157 HD
ENDROOT
BRANCH   5  11
HETATM   11  C   UNL     1     -21.125  -6.740  -5.233  1.00  0.00    -0.024 A 
HETATM   12  C   UNL     1     -20.126  -6.090  -5.970  1.00  0.00     0.021 A 
HETATM   13  C   UNL     1     -20.433  -5.032  -6.846  1.00  0.00    -0.040 A 
HETATM   14  C   UNL     1     -21.775  -4.662  -7.039  1.00  0.00     0.011 A 
HETATM   15  C   UNL     1     -19.310  -4.331  -7.563  1.00  0.00     0.050 C 
HETATM   16  C   UNL     1     -22.768  -5.308  -6.291  1.00  0.00     0.024 A 
HETATM   17  C   UNL     1     -22.453  -6.347  -5.406  1.00  0.00     0.014 A 
BRANCH  14  18
HETATM   18  N   UNL     1     -22.120  -3.512  -7.770  1.00  0.00    -0.302 NA
HETATM   19  H   UNL     1     -23.101  -3.453  -8.018  1.00  0.00     0.124 HD
HETATM   20  H   UNL     1     -21.779  -2.650  -7.355  1.00  0.00     0.124 HD
ENDBRANCH  14  18
ENDBRANCH   5  11
BRANCH   5  21
HETATM   21  C   UNL     1     -20.105  -9.057  -4.812  1.00  0.00    -0.024 A 
HETATM   22  C   UNL     1     -18.709  -9.161  -4.907  1.00  0.00     0.021 A 
HETATM   23  C   UNL     1     -18.101 -10.324  -5.429  1.00  0.00    -0.040 A 
HETATM   24  C   UNL     1     -18.904 -11.407  -5.826  1.00  0.00     0.011 A 
HETATM   25  C   UNL     1     -16.600 -10.382  -5.530  1.00  0.00     0.050 C 
HETATM   26  C   UNL     1     -20.296 -11.282  -5.759  1.00  0.00     0.024 A 
HETATM   27  C   UNL     1     -20.893 -10.128  -5.239  1.00  0.00     0.014 A 
BRANCH  24  28
HETATM   28  N   UNL     1     -18.363 -12.514  -6.502  1.00  0.00    -0.302 NA
HETATM   29  H   UNL     1     -19.001 -12.962  -7.150  1.00  0.00     0.124 HD
HETATM   30  H   UNL     1     -17.456 -12.332  -6.921  1.00  0.00     0.124 HD
ENDBRANCH  24  28
ENDBRANCH   5  21
BRANCH   9  31
HETATM   31  H   UNL     1     -23.227  -9.209   0.732  1.00  0.00     0.269 HD
HETATM   32 CL   UNL     2     -24.020 -10.819  -0.806  1.00  0.00    -0.127 Cl
ENDBRANCH   9  31
TORSDOF 5
BEGIN_RES ARG D 557
REMARK  4 active torsions:
REMARK  status: ('A' for Active; 'I' for Inactive)
REMARK    1  A    between atoms: CA   and  CB  
REMARK    2  A    between atoms: CB   and  CG  
REMARK    3  A    between atoms: CG   and  CD  
REMARK    4  A    between atoms: CD   and  NE  
REMARK       I    between atoms: NE   and  CZ  
REMARK       I    between atoms: CZ   and  NH1 
REMARK       I    between atoms: CZ   and  NH2 
ROOT
ATOM      1  CA  ARG D 557     -26.217   2.705 -17.014  1.00 35.49     0.159 C 
ENDROOT
BRANCH   1   2
ATOM      2  CB  ARG D 557     -26.789   1.319 -17.183  1.00 35.49     0.034 C 
BRANCH   2   3
ATOM      3  CG  ARG D 557     -25.838   0.202 -17.139  1.00 35.49     0.027 C 
BRANCH   3   4
ATOM      4  CD  ARG D 557     -24.754   0.422 -16.154  1.00 35.49     0.116 C 
BRANCH   4   5
ATOM      5  NE  ARG D 557     -24.888  -0.429 -15.002  1.00 35.49    -0.212 N 
ATOM      6  CZ  ARG D 557     -24.070  -1.402 -14.666  1.00 35.49     0.666 C 
ATOM      7  NH1 ARG D 557     -23.010  -1.718 -15.387  1.00 35.49    -0.235 N 
ATOM      8  NH2 ARG D 557     -24.334  -2.058 -13.573  1.00 35.49    -0.235 N 
ATOM      9  HH  ARG D 557     -22.816  -1.298 -16.108  1.00 35.49     0.174 HD
ATOM     10  HH  ARG D 557     -22.511  -2.360 -15.117  1.00 35.49     0.174 HD
ATOM     11  HH  ARG D 557     -25.021  -1.827 -13.124  1.00 35.49     0.174 HD
ATOM     12  HH  ARG D 557     -23.827  -2.690 -13.322  1.00 35.49     0.174 HD
ATOM     13  HE  ARG D 557     -25.583  -0.343 -14.520  1.00 35.49     0.178 HD
ENDBRANCH   4   5
ENDBRANCH   3   4
ENDBRANCH   2   3
ENDBRANCH   1   2
END_RES ARG D 557
BEGIN_RES GLU D 570
REMARK  3 active torsions:
REMARK  status: ('A' for Active; 'I' for Inactive)
REMARK    5  A    between atoms: CA   and  CB  
REMARK    6  A    between atoms: CB   and  CG  
REMARK    7  A    between atoms: CG   and  CD  
ROOT
ATOM     14  CA  GLU D 570     -18.033  -6.348 -13.375  1.00 32.92     0.160 C 
ENDROOT
BRANCH  14  15
ATOM     15  CB  GLU D 570     -19.500  -6.345 -13.794  1.00 32.92     0.043 C 
BRANCH  15  16
ATOM     16  CG  GLU D 570     -20.446  -5.549 -12.970  1.00 32.92     0.100 C 
BRANCH  16  17
ATOM     17  CD  GLU D 570     -21.727  -5.217 -13.698  1.00 32.92     0.185 C 
ATOM     18  OE1 GLU D 570     -22.281  -4.123 -13.480  1.00 32.92    -0.647 OA
ATOM     19  OE2 GLU D 570     -22.191  -6.068 -14.483  1.00 32.92    -0.647 OA
ENDBRANCH  16  17
ENDBRANCH  15  16
ENDBRANCH  14  15
END_RES GLU D 570
ENDMDL
MODEL 2
REMARK VINA RESULT:      -9.7      1.664      1.965
REMARK  5 active torsions:
REMARK  status: ('A' for Active; 'I' for Inactive)
REMARK    1  A    between atoms: C_5  and  C_6 
REMARK    2  A    between atoms: C_5  and  C_14 
REMARK    3  A    between atoms: C_9  and  N_12 
REMARK    4  A    between atoms: C_17  and  N_20 
REMARK    5  A    between atoms: N_25  and  H_31 
ROOT
HETATM    1  C   UNL     1     -20.631  -9.884   0.251  1.00  0.00     0.050 C 
HETATM    2  C   UNL     1     -21.116  -8.854  -0.726  1.00  0.00    -0.035 C 
HETATM    3  C   UNL     1     -20.606  -8.746  -1.969  1.00  0.00     0.021 C 
HETATM    4  C   UNL     1     -21.079  -7.744  -2.933  1.00  0.00    -0.024 C 
HETATM    5  C   UNL     1     -20.775  -7.844  -4.264  1.00  0.00    -0.005 C 
HETATM    6  C   UNL     1     -21.823  -6.606  -2.373  1.00  0.00     0.014 C 
HETATM    7  C   UNL     1     -22.360  -6.661  -1.135  1.00  0.00     0.030 C 
HETATM    8  C   UNL     1     -22.224  -7.922  -0.370  1.00  0.00     0.032 C 
HETATM    9  N   UNL     1     -23.102  -8.219   0.525  1.00  0.00    -0.387 N 
HETATM   10  H   UNL     1     -23.933  -7.662   0.679  1.00  0.00     0.157 HD
ENDROOT
BRANCH   5  11
HETATM   11  C   UNL     1     -21.140  -6.758  -5.220  1.00  0.00    -0.024 A 
HETATM   12  C   UNL     1     -20.139  -6.108  -5.954  1.00  0.00     0.021 A 
HETATM   13  C   UNL     1     -20.444  -5.050  -6.830  1.00  0.00    -0.040 A 
HETATM   14  C   UNL     1     -21.785  -4.678  -7.025  1.00  0.00     0.011 A 
HETATM   15  C   UNL     1     -19.319  -4.349  -7.545  1.00  0.00     0.050 C 
HETATM   16  C   UNL     1     -22.780  -5.324  -6.280  1.00  0.00     0.024 A 
HETATM   17  C   UNL     1     -22.468  -6.364  -5.395  1.00  0.00     0.014 A 
BRANCH  14  18
HETATM   18  N   UNL     1     -22.128  -3.528  -7.757  1.00  0.00    -0.302 NA
HETATM   19  H   UNL     1     -21.480  -2.756  -7.652  1.00  0.00     0.124 HD
HETATM   20  H   UNL     1     -22.342  -3.717  -8.732  1.00  0.00     0.124 HD
ENDBRANCH  14  18
ENDBRANCH   5  11
BRANCH   5  21
HETATM   21  C   UNL     1     -20.126  -9.078  -4.798  1.00  0.00    -0.024 A 
HETATM   22  C   UNL     1     -18.731  -9.190  -4.883  1.00  0.00     0.021 A 
HETATM   23  C   UNL     1     -18.126 -10.355  -5.405  1.00  0.00    -0.040 A 
HETATM   24  C   UNL     1     -18.933 -11.431  -5.812  1.00  0.00     0.011 A 
HETATM   25  C   UNL     1     -16.625 -10.423  -5.494  1.00  0.00     0.050 C 
HETATM   26  C   UNL     1     -20.325 -11.298  -5.755  1.00  0.00     0.024 A 
HETATM   27  C   UNL     1     -20.918 -10.141  -5.235  1.00  0.00     0.014 A 
BRANCH  24  28
HETATM   28  N   UNL     1     -18.394 -12.539  -6.488  1.00  0.00    -0.302 NA
HETATM   29  H   UNL     1     -19.085 -13.138  -6.927  1.00  0.00     0.124 HD
HETATM   30  H   UNL     1     -17.636 -12.302  -7.119  1.00  0.00     0.124 HD
ENDBRANCH  24  28
ENDBRANCH   5  21
BRANCH   9  31
HETATM   31  H   UNL     1     -23.246  -9.218   0.748  1.00  0.00     0.269 HD
HETATM   32 CL   UNL     2     -24.035 -10.828  -0.791  1.00  0.00    -0.127 Cl
ENDBRANCH   9  31
TORSDOF 5
BEGIN_RES ARG D 557
REMARK  4 active torsions:
REMARK  status: ('A' for Active; 'I' for Inactive)
REMARK    1  A    between atoms: CA   and  CB  
REMARK    2  A    between atoms: CB   and  CG  
REMARK    3  A    between atoms: CG   and  CD  
REMARK    4  A    between atoms: CD   and  NE  
REMARK       I    between atoms: NE   and  CZ  
REMARK       I    between atoms: CZ   and  NH1 
REMARK       I    between atoms: CZ   and  NH2 
ROOT
ATOM      1  CA  ARG D 557     -26.217   2.705 -17.014  1.00 35.49     0.159 C 
ENDROOT
BRANCH   1   2
ATOM      2  CB  ARG D 557     -26.789   1.319 -17.183  1.00 35.49     0.034 C 
BRANCH   2   3
ATOM      3  CG  ARG D 557     -28.236   1.225 -17.408  1.00 35.49     0.027 C 
BRANCH   3   4
ATOM      4  CD  ARG D 557     -28.893   0.283 -16.473  1.00 35.49     0.116 C 
BRANCH   4   5
ATOM      5  NE  ARG D 557     -29.273  -0.946 -17.117  1.00 35.49    -0.212 N 
ATOM      6  CZ  ARG D 557     -28.639  -2.092 -17.021  1.00 35.49     0.666 C 
ATOM      7  NH1 ARG D 557     -27.538  -2.235 -16.306  1.00 35.49    -0.235 N 
ATOM      8  NH2 ARG D 557     -29.139  -3.111 -17.658  1.00 35.49    -0.235 N 
ATOM      9  HH  ARG D 557     -27.192  -1.579 -15.877  1.00 35.49     0.174 HD
ATOM     10  HH  ARG D 557     -27.168  -3.008 -16.278  1.00 35.49     0.174 HD
ATOM     11  HH  ARG D 557     -29.855  -2.991 -18.105  1.00 35.49     0.174 HD
ATOM     12  HH  ARG D 557     -28.759  -3.868 -17.616  1.00 35.49     0.174 HD
ATOM     13  HE  ARG D 557     -29.931  -0.927 -17.656  1.00 35.49     0.178 HD
ENDBRANCH   4   5
ENDBRANCH   3   4
ENDBRANCH   2   3
ENDBRANCH   1   2
END_RES ARG D 557
BEGIN_RES GLU D 570
REMARK  3 active torsions:
REMARK  status: ('A' for Active; 'I' for Inactive)
REMARK    5  A    between atoms: CA   and  CB  
REMARK    6  A    between atoms: CB   and  CG  
REMARK    7  A    between atoms: CG   and  CD  
ROOT
ATOM     14  CA  GLU D 570     -18.033  -6.348 -13.375  1.00 32.92     0.160 C 
ENDROOT
BRANCH  14  15
ATOM     15  CB  GLU D 570     -19.500  -6.345 -13.794  1.00 32.92     0.043 C 
BRANCH  15  16
ATOM     16  CG  GLU D 570     -20.449  -5.567 -12.957  1.00 32.92     0.100 C 
BRANCH  16  17
ATOM     17  CD  GLU D 570     -21.700  -5.164 -13.704  1.00 32.92     0.185 C 
ATOM     18  OE1 GLU D 570     -22.653  -4.674 -13.068  1.00 32.92    -0.647 OA
ATOM     19  OE2 GLU D 570     -21.732  -5.355 -14.935  1.00 32.92    -0.647 OA
ENDBRANCH  16  17
ENDBRANCH  15  16
ENDBRANCH  14  15
END_RES GLU D 570
ENDMDL
MODEL 3
REMARK VINA RESULT:      -8.4      2.070      4.489
REMARK  5 active torsions:
REMARK  status: ('A' for Active; 'I' for Inactive)
REMARK    1  A    between atoms: C_5  and  C_6 
REMARK    2  A    between atoms: C_5  and  C_14 
REMARK    3  A    between atoms: C_9  and  N_12 
REMARK    4  A    between atoms: C_17  and  N_20 
REMARK    5  A    between atoms: N_25  and  H_31 
ROOT
HETATM    1  C   UNL     1     -17.910 -11.771  -2.750  1.00  0.00     0.050 C 
HETATM    2  C   UNL     1     -18.221 -10.626  -3.668  1.00  0.00    -0.035 C 
HETATM    3  C   UNL     1     -19.364  -9.919  -3.574  1.00  0.00     0.021 C 
HETATM    4  C   UNL     1     -19.672  -8.793  -4.466  1.00  0.00    -0.024 C 
HETATM    5  C   UNL     1     -20.674  -7.909  -4.169  1.00  0.00    -0.005 C 
HETATM    6  C   UNL     1     -18.900  -8.726  -5.715  1.00  0.00     0.014 C 
HETATM    7  C   UNL     1     -17.745  -9.409  -5.863  1.00  0.00     0.030 C 
HETATM    8  C   UNL     1     -17.246 -10.194  -4.710  1.00  0.00     0.032 C 
HETATM    9  N   UNL     1     -15.982 -10.418  -4.593  1.00  0.00    -0.387 N 
HETATM   10  H   UNL     1     -15.297 -10.012  -5.220  1.00  0.00     0.157 HD
ENDROOT
BRANCH   5  11
HETATM   11  C   UNL     1     -21.076  -6.848  -5.138  1.00  0.00    -0.024 A 
HETATM   12  C   UNL     1     -20.093  -6.147  -5.850  1.00  0.00     0.021 A 
HETATM   13  C   UNL     1     -20.435  -5.110  -6.739  1.00  0.00    -0.040 A 
HETATM   14  C   UNL     1     -21.789  -4.813  -6.969  1.00  0.00     0.011 A 
HETATM   15  C   UNL     1     -19.333  -4.350  -7.430  1.00  0.00     0.050 C 
HETATM   16  C   UNL     1     -22.765  -5.511  -6.245  1.00  0.00     0.024 A 
HETATM   17  C   UNL     1     -22.418  -6.528  -5.348  1.00  0.00     0.014 A 
BRANCH  14  18
HETATM   18  N   UNL     1     -22.177  -3.687  -7.714  1.00  0.00    -0.302 NA
HETATM   19  H   UNL     1     -21.413  -3.070  -7.968  1.00  0.00     0.124 HD
HETATM   20  H   UNL     1     -22.767  -3.910  -8.510  1.00  0.00     0.124 HD
ENDBRANCH  14  18
ENDBRANCH   5  11
BRANCH   5  21
HETATM   21  C   UNL     1     -21.342  -7.948  -2.834  1.00  0.00    -0.024 A 
HETATM   22  C   UNL     1     -21.755  -9.160  -2.260  1.00  0.00     0.021 A 
HETATM   23  C   UNL     1     -22.401  -9.186  -1.005  1.00  0.00    -0.040 A 
HETATM   24  C   UNL     1     -22.602  -7.985  -0.304  1.00  0.00     0.011 A 
HETATM   25  C   UNL     1     -22.844 -10.508  -0.438  1.00  0.00     0.050 C 
HETATM   26  C   UNL     1     -22.218  -6.778  -0.898  1.00  0.00     0.024 A 
HETATM   27  C   UNL     1     -21.576  -6.759  -2.142  1.00  0.00     0.014 A 
BRANCH  24  28
HETATM   28  N   UNL     1     -23.383  -7.937   0.864  1.00  0.00    -0.302 NA
HETATM   29  H   UNL     1     -22.946  -8.357   1.677  1.00  0.00     0.124 HD
HETATM   30  H   UNL     1     -23.760  -7.017   1.064  1.00  0.00     0.124 HD
ENDBRANCH  24  28
ENDBRANCH   5  21
BRANCH   9  31
HETATM   31  H   UNL     1     -15.605 -10.583  -3.646  1.00  0.00     0.269 HD
HETATM   32 CL   UNL     2     -14.395 -12.511  -3.009  1.00  0.00    -0.127 Cl
ENDBRANCH   9  31
TORSDOF 5
BEGIN_RES ARG D 557
REMARK  4 active torsions:
REMARK  status: ('A' for Active; 'I' for Inactive)
REMARK    1  A    between atoms: CA   and  CB  
REMARK    2  A    between atoms: CB   and  CG  
REMARK    3  A    between atoms: CG   and  CD  
REMARK    4  A    between atoms: CD   and  NE  
REMARK       I    between atoms: NE   and  CZ  
REMARK       I    between atoms: CZ   and  NH1 
REMARK       I    between atoms: CZ   and  NH2 
ROOT
ATOM      1  CA  ARG D 557     -26.217   2.705 -17.014  1.00 35.49     0.159 C 
ENDROOT
BRANCH   1   2
ATOM      2  CB  ARG D 557     -26.789   1.319 -17.183  1.00 35.49     0.034 C 
BRANCH   2   3
ATOM      3  CG  ARG D 557     -25.863   0.195 -16.999  1.00 35.49     0.027 C 
BRANCH   3   4
ATOM      4  CD  ARG D 557     -26.257  -0.683 -15.874  1.00 35.49     0.116 C 
BRANCH   4   5
ATOM      5  NE  ARG D 557     -25.183  -0.879 -14.937  1.00 35.49    -0.212 N 
ATOM      6  CZ  ARG D 557     -24.862  -2.017 -14.363  1.00 35.49     0.666 C 
ATOM      7  NH1 ARG D 557     -25.525  -3.136 -14.587  1.00 35.49    -0.235 N 
ATOM      8  NH2 ARG D 557     -23.843  -2.014 -13.554  1.00 35.49    -0.235 N 
ATOM      9  HH  ARG D 557     -26.197  -3.161 -15.118  1.00 35.49     0.174 HD
ATOM     10  HH  ARG D 557     -25.268  -3.849 -14.187  1.00 35.49     0.174 HD
ATOM     11  HH  ARG D 557     -23.429  -1.278 -13.434  1.00 35.49     0.174 HD
ATOM     12  HH  ARG D 557     -23.603  -2.730 -13.168  1.00 35.49     0.174 HD
ATOM     13  HE  ARG D 557     -24.748  -0.195 -14.679  1.00 35.49     0.178 HD
ENDBRANCH   4   5
ENDBRANCH   3   4
ENDBRANCH   2   3
ENDBRANCH   1   2
END_RES ARG D 557
BEGIN_RES GLU D 570
REMARK  3 active torsions:
REMARK  status: ('A' for Active; 'I' for Inactive)
REMARK    5  A    between atoms: CA   and  CB  
REMARK    6  A    between atoms: CB   and  CG  
REMARK    7  A    between atoms: CG   and  CD  
ROOT
ATOM     14  CA  GLU D 570     -18.033  -6.348 -13.375  1.00 32.92     0.160 C 
ENDROOT
BRANCH  14  15
ATOM     15  CB  GLU D 570     -19.500  -6.345 -13.794  1.00 32.92     0.043 C 
BRANCH  15  16
ATOM     16  CG  GLU D 570     -20.448  -5.559 -12.963  1.00 32.92     0.100 C 
BRANCH  16  17
ATOM     17  CD  GLU D 570     -21.692  -5.148 -13.716  1.00 32.92     0.185 C 
ATOM     18  OE1 GLU D 570     -22.721  -4.863 -13.074  1.00 32.92    -0.647 OA
ATOM     19  OE2 GLU D 570     -21.641  -5.128 -14.961  1.00 32.92    -0.647 OA
ENDBRANCH  16  17
ENDBRANCH  15  16
ENDBRANCH  14  15
END_RES GLU D 570
ENDMDL
MODEL 4
REMARK VINA RESULT:      -7.9      3.168      6.741
REMARK  5 active torsions:
REMARK  status: ('A' for Active; 'I' for Inactive)
REMARK    1  A    between atoms: C_5  and  C_6 
REMARK    2  A    between atoms: C_5  and  C_14 
REMARK    3  A    between atoms: C_9  and  N_12 
REMARK    4  A    between atoms: C_17  and  N_20 
REMARK    5  A    between atoms: N_25  and  H_31 
ROOT
HETATM    1  C   UNL     1     -16.241  -9.602  -2.773  1.00  0.00     0.050 C 
HETATM    2  C   UNL     1     -17.289 -10.654  -2.553  1.00  0.00    -0.035 C 
HETATM    3  C   UNL     1     -18.479 -10.375  -1.987  1.00  0.00     0.021 C 
HETATM    4  C   UNL     1     -19.511 -11.398  -1.774  1.00  0.00    -0.024 C 
HETATM    5  C   UNL     1     -20.804 -11.050  -1.485  1.00  0.00    -0.005 C 
HETATM    6  C   UNL     1     -19.056 -12.795  -1.813  1.00  0.00     0.014 C 
HETATM    7  C   UNL     1     -17.875 -13.133  -2.373  1.00  0.00     0.030 C 
HETATM    8  C   UNL     1     -17.066 -12.060  -2.996  1.00  0.00     0.032 C 
HETATM    9  N   UNL     1     -16.252 -12.352  -3.951  1.00  0.00    -0.387 N 
HETATM   10  H   UNL     1     -16.194 -13.280  -4.353  1.00  0.00     0.157 HD
ENDROOT
BRANCH   5  11
HETATM   11  C   UNL     1     -21.819 -12.086  -1.137  1.00  0.00    -0.024 A 
HETATM   12  C   UNL     1     -22.043 -12.419   0.206  1.00  0.00     0.021 A 
HETATM   13  C   UNL     1     -22.961 -13.423   0.567  1.00  0.00    -0.040 A 
HETATM   14  C   UNL     1     -23.718 -14.060  -0.431  1.00  0.00     0.011 A 
HETATM   15  C   UNL     1     -23.114 -13.781   2.022  1.00  0.00     0.050 C 
HETATM   16  C   UNL     1     -23.482 -13.729  -1.772  1.00  0.00     0.024 A 
HETATM   17  C   UNL     1     -22.552 -12.743  -2.126  1.00  0.00     0.014 A 
BRANCH  14  18
HETATM   18  N   UNL     1     -24.522 -15.175  -0.142  1.00  0.00    -0.302 NA
HETATM   19  H   UNL     1     -25.513 -15.029  -0.299  1.00  0.00     0.124 HD
HETATM   20  H   UNL     1     -24.191 -16.036  -0.569  1.00  0.00     0.124 HD
ENDBRANCH  14  18
ENDBRANCH   5  11
BRANCH   5  21
HETATM   21  C   UNL     1     -21.239  -9.625  -1.580  1.00  0.00    -0.024 A 
HETATM   22  C   UNL     1     -21.324  -8.969  -2.817  1.00  0.00     0.021 A 
HETATM   23  C   UNL     1     -21.721  -7.616  -2.895  1.00  0.00    -0.040 A 
HETATM   24  C   UNL     1     -22.069  -6.927  -1.721  1.00  0.00     0.011 A 
HETATM   25  C   UNL     1     -21.780  -6.948  -4.243  1.00  0.00     0.050 C 
HETATM   26  C   UNL     1     -21.949  -7.579  -0.488  1.00  0.00     0.024 A 
HETATM   27  C   UNL     1     -21.557  -8.921  -0.418  1.00  0.00     0.014 A 
BRANCH  24  28
HETATM   28  N   UNL     1     -22.308  -5.542  -1.725  1.00  0.00    -0.302 NA
HETATM   29  H   UNL     1     -22.366  -5.124  -0.803  1.00  0.00     0.124 HD
HETATM   30  H   UNL     1     -21.691  -5.024  -2.342  1.00  0.00     0.124 HD
ENDBRANCH  24  28
ENDBRANCH   5  21
BRANCH   9  31
HETATM   31  H   UNL     1     -16.016 -11.610  -4.630  1.00  0.00     0.269 HD
HETATM   32 CL   UNL     2     -17.525 -10.730  -6.222  1.00  0.00    -0.127 Cl
ENDBRANCH   9  31
TORSDOF 5
BEGIN_RES ARG D 557
REMARK  4 active torsions:
REMARK  status: ('A' for Active; 'I' for Inactive)
REMARK    1  A    between atoms: CA   and  CB  
REMARK    2  A    between atoms: CB   and  CG  
REMARK    3  A    between atoms: CG   and  CD  
REMARK    4  A    between atoms: CD   and  NE  
REMARK       I    between atoms: NE   and  CZ  
REMARK       I    between atoms: CZ   and  NH1 
REMARK       I    between atoms: CZ   and  NH2 
ROOT
ATOM      1  CA  ARG D 557     -26.217   2.705 -17.014  1.00 35.49     0.159 C 
ENDROOT
BRANCH   1   2
ATOM      2  CB  ARG D 557     -26.789   1.319 -17.183  1.00 35.49     0.034 C 
BRANCH   2   3
ATOM      3  CG  ARG D 557     -25.836   0.203 -17.154  1.00 35.49     0.027 C 
BRANCH   3   4
ATOM      4  CD  ARG D 557     -24.759   0.407 -16.159  1.00 35.49     0.116 C 
BRANCH   4   5
ATOM      5  NE  ARG D 557     -24.911  -0.450 -15.012  1.00 35.49    -0.212 N 
ATOM      6  CZ  ARG D 557     -24.096  -1.422 -14.666  1.00 35.49     0.666 C 
ATOM      7  NH1 ARG D 557     -23.023  -1.732 -15.369  1.00 35.49    -0.235 N 
ATOM      8  NH2 ARG D 557     -24.378  -2.083 -13.581  1.00 35.49    -0.235 N 
ATOM      9  HH  ARG D 557     -22.817  -1.308 -16.085  1.00 35.49     0.174 HD
ATOM     10  HH  ARG D 557     -22.527  -2.374 -15.093  1.00 35.49     0.174 HD
ATOM     11  HH  ARG D 557     -25.074  -1.856 -13.143  1.00 35.49     0.174 HD
ATOM     12  HH  ARG D 557     -23.874  -2.714 -13.324  1.00 35.49     0.174 HD
ATOM     13  HE  ARG D 557     -25.615  -0.367 -14.543  1.00 35.49     0.178 HD
ENDBRANCH   4   5
ENDBRANCH   3   4
ENDBRANCH   2   3
ENDBRANCH   1   2
END_RES ARG D 557
BEGIN_RES GLU D 570
REMARK  3 active torsions:
REMARK  status: ('A' for Active; 'I' for Inactive)
REMARK    5  A    between atoms: CA   and  CB  
REMARK    6  A    between atoms: CB   and  CG  
REMARK    7  A    between atoms: CG   and  CD  
ROOT
ATOM     14  CA  GLU D 570     -18.033  -6.348 -13.375  1.00 32.92     0.160 C 
ENDROOT
BRANCH  14  15
ATOM     15  CB  GLU D 570     -19.500  -6.345 -13.794  1.00 32.92     0.043 C 
BRANCH  15  16
ATOM     16  CG  GLU D 570     -20.442  -5.529 -12.984  1.00 32.92     0.100 C 
BRANCH  16  17
ATOM     17  CD  GLU D 570     -21.735  -5.232 -13.706  1.00 32.92     0.185 C 
ATOM     18  OE1 GLU D 570     -22.298  -4.137 -13.513  1.00 32.92    -0.647 OA
ATOM     19  OE2 GLU D 570     -22.198  -6.109 -14.461  1.00 32.92    -0.647 OA
ENDBRANCH  16  17
ENDBRANCH  15  16
ENDBRANCH  14  15
END_RES GLU D 570
ENDMDL
MODEL 5
REMARK VINA RESULT:      -7.9      2.998      5.063
REMARK  5 active torsions:
REMARK  status: ('A' for Active; 'I' for Inactive)
REMARK    1  A    between atoms: C_5  and  C_6 
REMARK    2  A    between atoms: C_5  and  C_14 
REMARK    3  A    between atoms: C_9  and  N_12 
REMARK    4  A    between atoms: C_17  and  N_20 
REMARK    5  A    between atoms: N_25  and  H_31 
ROOT
HETATM    1  C   UNL     1     -16.056 -13.030  -5.386  1.00  0.00     0.050 C 
HETATM    2  C   UNL     1     -16.663 -11.881  -4.636  1.00  0.00    -0.035 C 
HETATM    3  C   UNL     1     -17.942 -11.498  -4.821  1.00  0.00     0.021 C 
HETATM    4  C   UNL     1     -18.545 -10.378  -4.086  1.00  0.00    -0.024 C 
HETATM    5  C   UNL     1     -19.902 -10.199  -4.058  1.00  0.00    -0.005 C 
HETATM    6  C   UNL     1     -17.607  -9.435  -3.460  1.00  0.00     0.014 C 
HETATM    7  C   UNL     1     -16.317  -9.767  -3.245  1.00  0.00     0.030 C 
HETATM    8  C   UNL     1     -15.877 -11.133  -3.615  1.00  0.00     0.032 C 
HETATM    9  N   UNL     1     -14.882 -11.668  -2.995  1.00  0.00    -0.387 N 
HETATM   10  H   UNL     1     -14.429 -11.224  -2.206  1.00  0.00     0.157 HD
ENDROOT
BRANCH   5  11
HETATM   11  C   UNL     1     -20.505  -8.989  -3.427  1.00  0.00    -0.024 A 
HETATM   12  C   UNL     1     -20.816  -8.997  -2.061  1.00  0.00     0.021 A 
HETATM   13  C   UNL     1     -21.426  -7.889  -1.443  1.00  0.00    -0.040 A 
HETATM   14  C   UNL     1     -21.669  -6.726  -2.193  1.00  0.00     0.011 A 
HETATM   15  C   UNL     1     -21.794  -7.978   0.014  1.00  0.00     0.050 C 
HETATM   16  C   UNL     1     -21.365  -6.728  -3.561  1.00  0.00     0.024 A 
HETATM   17  C   UNL     1     -20.775  -7.841  -4.174  1.00  0.00     0.014 A 
BRANCH  14  18
HETATM   18  N   UNL     1     -22.420  -5.660  -1.670  1.00  0.00    -0.302 NA
HETATM   19  H   UNL     1     -22.852  -5.069  -2.371  1.00  0.00     0.124 HD
HETATM   20  H   UNL     1     -23.079  -5.942  -0.951  1.00  0.00     0.124 HD
ENDBRANCH  14  18
ENDBRANCH   5  11
BRANCH   5  21
HETATM   21  C   UNL     1     -20.812 -11.250  -4.604  1.00  0.00    -0.024 A 
HETATM   22  C   UNL     1     -21.353 -12.246  -3.778  1.00  0.00     0.021 A 
HETATM   23  C   UNL     1     -22.199 -13.246  -4.306  1.00  0.00    -0.040 A 
HETATM   24  C   UNL     1     -22.533 -13.222  -5.671  1.00  0.00     0.011 A 
HETATM   25  C   UNL     1     -22.741 -14.307  -3.386  1.00  0.00     0.050 C 
HETATM   26  C   UNL     1     -21.962 -12.244  -6.494  1.00  0.00     0.024 A 
HETATM   27  C   UNL     1     -21.126 -11.254  -5.964  1.00  0.00     0.014 A 
BRANCH  24  28
HETATM   28  N   UNL     1     -23.232 -14.280  -6.276  1.00  0.00    -0.302 NA
HETATM   29  H   UNL     1     -23.264 -15.130  -5.724  1.00  0.00     0.124 HD
HETATM   30  H   UNL     1     -24.147 -14.017  -6.627  1.00  0.00     0.124 HD
ENDBRANCH  24  28
ENDBRANCH   5  21
BRANCH   9  31
HETATM   31  H   UNL     1     -14.839 -12.700  -2.950  1.00  0.00     0.269 HD
HETATM   32 CL   UNL     2     -12.884 -13.971  -3.335  1.00  0.00    -0.127 Cl
ENDBRANCH   9  31
TORSDOF 5
BEGIN_RES ARG D 557
REMARK  4 active torsions:
REMARK  status: ('A' for Active; 'I' for Inactive)
REMARK    1  A    between atoms: CA   and  CB  
REMARK    2  A    between atoms: CB   and  CG  
REMARK    3  A    between atoms: CG   and  CD  
REMARK    4  A    between atoms: CD   and  NE  
REMARK       I    between atoms: NE   and  CZ  
REMARK       I    between atoms: CZ   and  NH1 
REMARK       I    between atoms: CZ   and  NH2 
ROOT
ATOM      1  CA  ARG D 557     -26.217   2.705 -17.014  1.00 35.49     0.159 C 
ENDROOT
BRANCH   1   2
ATOM      2  CB  ARG D 557     -26.789   1.319 -17.183  1.00 35.49     0.034 C 
BRANCH   2   3
ATOM      3  CG  ARG D 557     -25.838   0.202 -17.141  1.00 35.49     0.027 C 
BRANCH   3   4
ATOM      4  CD  ARG D 557     -24.756   0.419 -16.153  1.00 35.49     0.116 C 
BRANCH   4   5
ATOM      5  NE  ARG D 557     -24.892  -0.435 -15.003  1.00 35.49    -0.212 N 
ATOM      6  CZ  ARG D 557     -24.070  -1.403 -14.663  1.00 35.49     0.666 C 
ATOM      7  NH1 ARG D 557     -23.004  -1.711 -15.377  1.00 35.49    -0.235 N 
ATOM      8  NH2 ARG D 557     -24.338  -2.063 -13.574  1.00 35.49    -0.235 N 
ATOM      9  HH  ARG D 557     -22.807  -1.289 -16.097  1.00 35.49     0.174 HD
ATOM     10  HH  ARG D 557     -22.502  -2.350 -15.105  1.00 35.49     0.174 HD
ATOM     11  HH  ARG D 557     -25.030  -1.837 -13.129  1.00 35.49     0.174 HD
ATOM     12  HH  ARG D 557     -23.829  -2.692 -13.320  1.00 35.49     0.174 HD
ATOM     13  HE  ARG D 557     -25.592  -0.354 -14.526  1.00 35.49     0.178 HD
ENDBRANCH   4   5
ENDBRANCH   3   4
ENDBRANCH   2   3
ENDBRANCH   1   2
END_RES ARG D 557
BEGIN_RES GLU D 570
REMARK  3 active torsions:
REMARK  status: ('A' for Active; 'I' for Inactive)
REMARK    5  A    between atoms: CA   and  CB  
REMARK    6  A    between atoms: CB   and  CG  
REMARK    7  A    between atoms: CG   and  CD  
ROOT
ATOM     14  CA  GLU D 570     -18.033  -6.348 -13.375  1.00 32.92     0.160 C 
ENDROOT
BRANCH  14  15
ATOM     15  CB  GLU D 570     -19.500  -6.345 -13.794  1.00 32.92     0.043 C 
BRANCH  15  16
ATOM     16  CG  GLU D 570     -20.446  -5.549 -12.969  1.00 32.92     0.100 C 
BRANCH  16  17
ATOM     17  CD  GLU D 570     -21.733  -5.230 -13.693  1.00 32.92     0.185 C 
ATOM     18  OE1 GLU D 570     -22.214  -6.073 -14.474  1.00 32.92    -0.647 OA
ATOM     19  OE2 GLU D 570     -22.258  -4.117 -13.488  1.00 32.92    -0.647 OA
ENDBRANCH  16  17
ENDBRANCH  15  16
ENDBRANCH  14  15
END_RES GLU D 570
ENDMDL
MODEL 6
REMARK VINA RESULT:      -7.7      3.114      6.602
REMARK  5 active torsions:
REMARK  status: ('A' for Active; 'I' for Inactive)
REMARK    1  A    between atoms: C_5  and  C_6 
REMARK    2  A    between atoms: C_5  and  C_14 
REMARK    3  A    between atoms: C_9  and  N_12 
REMARK    4  A    between atoms: C_17  and  N_20 
REMARK    5  A    between atoms: N_25  and  H_31 
ROOT
HETATM    1  C   UNL     1     -15.691  -9.574  -4.440  1.00  0.00     0.050 C 
HETATM    2  C   UNL     1     -16.583 -10.454  -3.615  1.00  0.00    -0.035 C 
HETATM    3  C   UNL     1     -17.754 -10.018  -3.110  1.00  0.00     0.021 C 
HETATM    4  C   UNL     1     -18.635 -10.877  -2.306  1.00  0.00    -0.024 C 
HETATM    5  C   UNL     1     -19.936 -10.525  -2.064  1.00  0.00    -0.005 C 
HETATM    6  C   UNL     1     -18.016 -12.076  -1.725  1.00  0.00     0.014 C 
HETATM    7  C   UNL     1     -16.846 -12.560  -2.194  1.00  0.00     0.030 C 
HETATM    8  C   UNL     1     -16.222 -11.876  -3.351  1.00  0.00     0.032 C 
HETATM    9  N   UNL     1     -15.450 -12.540  -4.140  1.00  0.00    -0.387 N 
HETATM   10  H   UNL     1     -15.309 -13.539  -4.050  1.00  0.00     0.157 HD
ENDROOT
BRANCH   5  11
HETATM   11  C   UNL     1     -20.789 -11.326  -1.138  1.00  0.00    -0.024 A 
HETATM   12  C   UNL     1     -21.778 -12.173  -1.658  1.00  0.00     0.021 A 
HETATM   13  C   UNL     1     -22.629 -12.908  -0.812  1.00  0.00    -0.040 A 
HETATM   14  C   UNL     1     -22.443 -12.847   0.579  1.00  0.00     0.011 A 
HETATM   15  C   UNL     1     -23.714 -13.753  -1.426  1.00  0.00     0.050 C 
HETATM   16  C   UNL     1     -21.460 -11.991   1.093  1.00  0.00     0.024 A 
HETATM   17  C   UNL     1     -20.629 -11.247   0.246  1.00  0.00     0.014 A 
BRANCH  14  18
HETATM   18  N   UNL     1     -23.364 -13.428   1.468  1.00  0.00    -0.302 NA
HETATM   19  H   UNL     1     -24.332 -13.193   1.281  1.00  0.00     0.124 HD
HETATM   20  H   UNL     1     -23.231 -14.427   1.594  1.00  0.00     0.124 HD
ENDBRANCH  14  18
ENDBRANCH   5  11
BRANCH   5  21
HETATM   21  C   UNL     1     -20.548  -9.365  -2.777  1.00  0.00    -0.024 A 
HETATM   22  C   UNL     1     -20.968  -8.221  -2.083  1.00  0.00     0.021 A 
HETATM   23  C   UNL     1     -21.561  -7.136  -2.763  1.00  0.00    -0.040 A 
HETATM   24  C   UNL     1     -21.700  -7.186  -4.161  1.00  0.00     0.011 A 
HETATM   25  C   UNL     1     -22.015  -5.937  -1.974  1.00  0.00     0.050 C 
HETATM   26  C   UNL     1     -21.309  -8.345  -4.842  1.00  0.00     0.024 A 
HETATM   27  C   UNL     1     -20.720  -9.417  -4.161  1.00  0.00     0.014 A 
BRANCH  24  28
HETATM   28  N   UNL     1     -22.429  -6.212  -4.864  1.00  0.00    -0.302 NA
HETATM   29  H   UNL     1     -23.287  -5.921  -4.408  1.00  0.00     0.124 HD
HETATM   30  H   UNL     1     -21.868  -5.421  -5.164  1.00  0.00     0.124 HD
ENDBRANCH  24  28
ENDBRANCH   5  21
BRANCH   9  31
HETATM   31  H   UNL     1     -15.357 -12.212  -5.115  1.00  0.00     0.269 HD
HETATM   32 CL   UNL     2     -13.445 -12.555  -6.462  1.00  0.00    -0.127 Cl
ENDBRANCH   9  31
TORSDOF 5
BEGIN_RES ARG D 557
REMARK  4 active torsions:
REMARK  status: ('A' for Active; 'I' for Inactive)
REMARK    1  A    between atoms: CA   and  CB  
REMARK    2  A    between atoms: CB   and  CG  
REMARK    3  A    between atoms: CG   and  CD  
REMARK    4  A    between atoms: CD   and  NE  
REMARK       I    between atoms: NE   and  CZ  
REMARK       I    between atoms: CZ   and  NH1 
REMARK       I    between atoms: CZ   and  NH2 
ROOT
ATOM      1  CA  ARG D 557     -26.217   2.705 -17.014  1.00 35.49     0.159 C 
ENDROOT
BRANCH   1   2
ATOM      2  CB  ARG D 557     -26.789   1.319 -17.183  1.00 35.49     0.034 C 
BRANCH   2   3
ATOM      3  CG  ARG D 557     -25.837   0.202 -17.149  1.00 35.49     0.027 C 
BRANCH   3   4
ATOM      4  CD  ARG D 557     -24.761   0.409 -16.152  1.00 35.49     0.116 C 
BRANCH   4   5
ATOM      5  NE  ARG D 557     -24.911  -0.450 -15.007  1.00 35.49    -0.212 N 
ATOM      6  CZ  ARG D 557     -24.096  -1.422 -14.663  1.00 35.49     0.666 C 
ATOM      7  NH1 ARG D 557     -23.023  -1.730 -15.368  1.00 35.49    -0.235 N 
ATOM      8  NH2 ARG D 557     -24.376  -2.086 -13.580  1.00 35.49    -0.235 N 
ATOM      9  HH  ARG D 557     -22.818  -1.305 -16.084  1.00 35.49     0.174 HD
ATOM     10  HH  ARG D 557     -22.526  -2.372 -15.094  1.00 35.49     0.174 HD
ATOM     11  HH  ARG D 557     -25.071  -1.860 -13.140  1.00 35.49     0.174 HD
ATOM     12  HH  ARG D 557     -23.871  -2.717 -13.324  1.00 35.49     0.174 HD
ATOM     13  HE  ARG D 557     -25.615  -0.370 -14.536  1.00 35.49     0.178 HD
ENDBRANCH   4   5
ENDBRANCH   3   4
ENDBRANCH   2   3
ENDBRANCH   1   2
END_RES ARG D 557
BEGIN_RES GLU D 570
REMARK  3 active torsions:
REMARK  status: ('A' for Active; 'I' for Inactive)
REMARK    5  A    between atoms: CA   and  CB  
REMARK    6  A    between atoms: CB   and  CG  
REMARK    7  A    between atoms: CG   and  CD  
ROOT
ATOM     14  CA  GLU D 570     -18.033  -6.348 -13.375  1.00 32.92     0.160 C 
ENDROOT
BRANCH  14  15
ATOM     15  CB  GLU D 570     -19.500  -6.345 -13.794  1.00 32.92     0.043 C 
BRANCH  15  16
ATOM     16  CG  GLU D 570     -20.442  -5.531 -12.983  1.00 32.92     0.100 C 
BRANCH  16  17
ATOM     17  CD  GLU D 570     -21.736  -5.234 -13.704  1.00 32.92     0.185 C 
ATOM     18  OE1 GLU D 570     -22.207  -6.089 -14.479  1.00 32.92    -0.647 OA
ATOM     19  OE2 GLU D 570     -22.276  -4.128 -13.505  1.00 32.92    -0.647 OA
ENDBRANCH  16  17
ENDBRANCH  15  16
ENDBRANCH  14  15
END_RES GLU D 570
ENDMDL
MODEL 7
REMARK VINA RESULT:      -7.5      2.510      5.090
REMARK  5 active torsions:
REMARK  status: ('A' for Active; 'I' for Inactive)
REMARK    1  A    between atoms: C_5  and  C_6 
REMARK    2  A    between atoms: C_5  and  C_14 
REMARK    3  A    between atoms: C_9  and  N_12 
REMARK    4  A    between atoms: C_17  and  N_20 
REMARK    5  A    between atoms: N_25  and  H_31 
ROOT
HETATM    1  C   UNL     1     -19.456  -5.935  -7.768  1.00  0.00     0.050 C 
HETATM    2  C   UNL     1     -20.314  -6.354  -6.612  1.00  0.00    -0.035 C 
HETATM    3  C   UNL     1     -20.161  -7.543  -5.996  1.00  0.00     0.021 C 
HETATM    4  C   UNL     1     -20.994  -7.957  -4.860  1.00  0.00    -0.024 C 
HETATM    5  C   UNL     1     -20.633  -9.013  -4.065  1.00  0.00    -0.005 C 
HETATM    6  C   UNL     1     -22.257  -7.226  -4.681  1.00  0.00     0.014 C 
HETATM    7  C   UNL     1     -22.463  -6.028  -5.269  1.00  0.00     0.030 C 
HETATM    8  C   UNL     1     -21.359  -5.442  -6.064  1.00  0.00     0.032 C 
HETATM    9  N   UNL     1     -21.283  -4.162  -6.197  1.00  0.00    -0.387 N 
HETATM   10  H   UNL     1     -21.906  -3.526  -5.715  1.00  0.00     0.157 HD
ENDROOT
BRANCH   5  11
HETATM   11  C   UNL     1     -21.544  -9.517  -2.996  1.00  0.00    -0.024 A 
HETATM   12  C   UNL     1     -21.631  -8.834  -1.775  1.00  0.00     0.021 A 
HETATM   13  C   UNL     1     -22.446  -9.307  -0.730  1.00  0.00    -0.040 A 
HETATM   14  C   UNL     1     -23.240 -10.449  -0.934  1.00  0.00     0.011 A 
HETATM   15  C   UNL     1     -22.452  -8.567   0.581  1.00  0.00     0.050 C 
HETATM   16  C   UNL     1     -23.139 -11.133  -2.153  1.00  0.00     0.024 A 
HETATM   17  C   UNL     1     -22.312 -10.667  -3.182  1.00  0.00     0.014 A 
BRANCH  14  18
HETATM   18  N   UNL     1     -23.940 -11.054   0.124  1.00  0.00    -0.302 NA
HETATM   19  H   UNL     1     -23.348 -11.438   0.852  1.00  0.00     0.124 HD
HETATM   20  H   UNL     1     -24.683 -10.474   0.503  1.00  0.00     0.124 HD
ENDBRANCH  14  18
ENDBRANCH   5  11
BRANCH   5  21
HETATM   21  C   UNL     1     -19.286  -9.639  -4.212  1.00  0.00    -0.024 A 
HETATM   22  C   UNL     1     -18.221  -9.284  -3.372  1.00  0.00     0.021 A 
HETATM   23  C   UNL     1     -16.945  -9.870  -3.529  1.00  0.00    -0.040 A 
HETATM   24  C   UNL     1     -16.750 -10.850  -4.518  1.00  0.00     0.011 A 
HETATM   25  C   UNL     1     -15.827  -9.444  -2.617  1.00  0.00     0.050 C 
HETATM   26  C   UNL     1     -17.809 -11.174  -5.373  1.00  0.00     0.024 A 
HETATM   27  C   UNL     1     -19.071 -10.591  -5.211  1.00  0.00     0.014 A 
BRANCH  24  28
HETATM   28  N   UNL     1     -15.469 -11.340  -4.823  1.00  0.00    -0.302 NA
HETATM   29  H   UNL     1     -14.901 -10.711  -5.380  1.00  0.00     0.124 HD
HETATM   30  H   UNL     1     -14.967 -11.698  -4.017  1.00  0.00     0.124 HD
ENDBRANCH  24  28
ENDBRANCH   5  21
BRANCH   9  31
HETATM   31  H   UNL     1     -20.353  -3.749  -6.375  1.00  0.00     0.269 HD
HETATM   32 CL   UNL     2     -19.557  -3.123  -8.511  1.00  0.00    -0.127 Cl
ENDBRANCH   9  31
TORSDOF 5
BEGIN_RES ARG D 557
REMARK  4 active torsions:
REMARK  status: ('A' for Active; 'I' for Inactive)
REMARK    1  A    between atoms: CA   and  CB  
REMARK    2  A    between atoms: CB   and  CG  
REMARK    3  A    between atoms: CG   and  CD  
REMARK    4  A    between atoms: CD   and  NE  
REMARK       I    between atoms: NE   and  CZ  
REMARK       I    between atoms: CZ   and  NH1 
REMARK       I    between atoms: CZ   and  NH2 
ROOT
ATOM      1  CA  ARG D 557     -26.217   2.705 -17.014  1.00 35.49     0.159 C 
ENDROOT
BRANCH   1   2
ATOM      2  CB  ARG D 557     -26.789   1.319 -17.183  1.00 35.49     0.034 C 
BRANCH   2   3
ATOM      3  CG  ARG D 557     -25.835   0.203 -17.161  1.00 35.49     0.027 C 
BRANCH   3   4
ATOM      4  CD  ARG D 557     -24.755   0.404 -16.168  1.00 35.49     0.116 C 
BRANCH   4   5
ATOM      5  NE  ARG D 557     -24.913  -0.445 -15.017  1.00 35.49    -0.212 N 
ATOM      6  CZ  ARG D 557     -24.106  -1.421 -14.665  1.00 35.49     0.666 C 
ATOM      7  NH1 ARG D 557     -23.035  -1.743 -15.367  1.00 35.49    -0.235 N 
ATOM      8  NH2 ARG D 557     -24.392  -2.074 -13.577  1.00 35.49    -0.235 N 
ATOM      9  HH  ARG D 557     -22.827  -1.325 -16.086  1.00 35.49     0.174 HD
ATOM     10  HH  ARG D 557     -22.544  -2.388 -15.088  1.00 35.49     0.174 HD
ATOM     11  HH  ARG D 557     -25.086  -1.839 -13.139  1.00 35.49     0.174 HD
ATOM     12  HH  ARG D 557     -23.893  -2.708 -13.316  1.00 35.49     0.174 HD
ATOM     13  HE  ARG D 557     -25.616  -0.355 -14.547  1.00 35.49     0.178 HD
ENDBRANCH   4   5
ENDBRANCH   3   4
ENDBRANCH   2   3
ENDBRANCH   1   2
END_RES ARG D 557
BEGIN_RES GLU D 570
REMARK  3 active torsions:
REMARK  status: ('A' for Active; 'I' for Inactive)
REMARK    5  A    between atoms: CA   and  CB  
REMARK    6  A    between atoms: CB   and  CG  
REMARK    7  A    between atoms: CG   and  CD  
ROOT
ATOM     14  CA  GLU D 570     -18.033  -6.348 -13.375  1.00 32.92     0.160 C 
ENDROOT
BRANCH  14  15
ATOM     15  CB  GLU D 570     -19.500  -6.345 -13.794  1.00 32.92     0.043 C 
BRANCH  15  16
ATOM     16  CG  GLU D 570     -20.442  -5.533 -12.982  1.00 32.92     0.100 C 
BRANCH  16  17
ATOM     17  CD  GLU D 570     -21.745  -5.252 -13.694  1.00 32.92     0.185 C 
ATOM     18  OE1 GLU D 570     -22.215  -6.117 -14.458  1.00 32.92    -0.647 OA
ATOM     19  OE2 GLU D 570     -22.292  -4.149 -13.500  1.00 32.92    -0.647 OA
ENDBRANCH  16  17
ENDBRANCH  15  16
ENDBRANCH  14  15
END_RES GLU D 570
ENDMDL
MODEL 8
REMARK VINA RESULT:      -7.5      3.286      5.273
REMARK  5 active torsions:
REMARK  status: ('A' for Active; 'I' for Inactive)
REMARK    1  A    between atoms: C_5  and  C_6 
REMARK    2  A    between atoms: C_5  and  C_14 
REMARK    3  A    between atoms: C_9  and  N_12 
REMARK    4  A    between atoms: C_17  and  N_20 
REMARK    5  A    between atoms: N_25  and  H_31 
ROOT
HETATM    1  C   UNL     1     -16.063 -13.042  -5.366  1.00  0.00     0.050 C 
HETATM    2  C   UNL     1     -16.671 -11.889  -4.622  1.00  0.00    -0.035 C 
HETATM    3  C   UNL     1     -17.949 -11.505  -4.812  1.00  0.00     0.021 C 
HETATM    4  C   UNL     1     -18.552 -10.382  -4.083  1.00  0.00    -0.024 C 
HETATM    5  C   UNL     1     -19.909 -10.201  -4.060  1.00  0.00    -0.005 C 
HETATM    6  C   UNL     1     -17.615  -9.437  -3.457  1.00  0.00     0.014 C 
HETATM    7  C   UNL     1     -16.326  -9.771  -3.238  1.00  0.00     0.030 C 
HETATM    8  C   UNL     1     -15.886 -11.138  -3.601  1.00  0.00     0.032 C 
HETATM    9  N   UNL     1     -14.894 -11.673  -2.977  1.00  0.00    -0.387 N 
HETATM   10  H   UNL     1     -14.443 -11.226  -2.188  1.00  0.00     0.157 HD
ENDROOT
BRANCH   5  11
HETATM   11  C   UNL     1     -20.512  -8.987  -3.435  1.00  0.00    -0.024 A 
HETATM   12  C   UNL     1     -20.819  -8.987  -2.067  1.00  0.00     0.021 A 
HETATM   13  C   UNL     1     -21.429  -7.876  -1.455  1.00  0.00    -0.040 A 
HETATM   14  C   UNL     1     -21.676  -6.718  -2.212  1.00  0.00     0.011 A 
HETATM   15  C   UNL     1     -21.791  -7.956   0.004  1.00  0.00     0.050 C 
HETATM   16  C   UNL     1     -21.377  -6.730  -3.582  1.00  0.00     0.024 A 
HETATM   17  C   UNL     1     -20.788  -7.846  -4.188  1.00  0.00     0.014 A 
BRANCH  14  18
HETATM   18  N   UNL     1     -22.428  -5.650  -1.694  1.00  0.00    -0.302 NA
HETATM   19  H   UNL     1     -21.879  -4.839  -1.433  1.00  0.00     0.124 HD
HETATM   20  H   UNL     1     -23.227  -5.400  -2.269  1.00  0.00     0.124 HD
ENDBRANCH  14  18
ENDBRANCH   5  11
BRANCH   5  21
HETATM   21  C   UNL     1     -20.819 -11.252  -4.604  1.00  0.00    -0.024 A 
HETATM   22  C   UNL     1     -21.366 -12.243  -3.776  1.00  0.00     0.021 A 
HETATM   23  C   UNL     1     -22.212 -13.244  -4.302  1.00  0.00    -0.040 A 
HETATM   24  C   UNL     1     -22.539 -13.226  -5.669  1.00  0.00     0.011 A 
HETATM   25  C   UNL     1     -22.760 -14.299  -3.379  1.00  0.00     0.050 C 
HETATM   26  C   UNL     1     -21.963 -12.253  -6.494  1.00  0.00     0.024 A 
HETATM   27  C   UNL     1     -21.126 -11.263  -5.966  1.00  0.00     0.014 A 
BRANCH  24  28
HETATM   28  N   UNL     1     -23.237 -14.286  -6.272  1.00  0.00    -0.302 NA
HETATM   29  H   UNL     1     -23.492 -15.034  -5.637  1.00  0.00     0.124 HD
HETATM   30  H   UNL     1     -24.020 -13.986  -6.844  1.00  0.00     0.124 HD
ENDBRANCH  24  28
ENDBRANCH   5  21
BRANCH   9  31
HETATM   31  H   UNL     1     -14.852 -12.704  -2.927  1.00  0.00     0.269 HD
HETATM   32 CL   UNL     2     -12.857 -13.965  -3.041  1.00  0.00    -0.127 Cl
ENDBRANCH   9  31
TORSDOF 5
BEGIN_RES ARG D 557
REMARK  4 active torsions:
REMARK  status: ('A' for Active; 'I' for Inactive)
REMARK    1  A    between atoms: CA   and  CB  
REMARK    2  A    between atoms: CB   and  CG  
REMARK    3  A    between atoms: CG   and  CD  
REMARK    4  A    between atoms: CD   and  NE  
REMARK       I    between atoms: NE   and  CZ  
REMARK       I    between atoms: CZ   and  NH1 
REMARK       I    between atoms: CZ   and  NH2 
ROOT
ATOM      1  CA  ARG D 557     -26.217   2.705 -17.014  1.00 35.49     0.159 C 
ENDROOT
BRANCH   1   2
ATOM      2  CB  ARG D 557     -26.789   1.319 -17.183  1.00 35.49     0.034 C 
BRANCH   2   3
ATOM      3  CG  ARG D 557     -28.230   1.166 -16.947  1.00 35.49     0.027 C 
BRANCH   3   4
ATOM      4  CD  ARG D 557     -28.617  -0.245 -16.717  1.00 35.49     0.116 C 
BRANCH   4   5
ATOM      5  NE  ARG D 557     -27.597  -0.980 -16.017  1.00 35.49    -0.212 N 
ATOM      6  CZ  ARG D 557     -27.402  -2.278 -16.085  1.00 35.49     0.666 C 
ATOM      7  NH1 ARG D 557     -28.159  -3.072 -16.819  1.00 35.49    -0.235 N 
ATOM      8  NH2 ARG D 557     -26.413  -2.773 -15.397  1.00 35.49    -0.235 N 
ATOM      9  HH  ARG D 557     -28.814  -2.767 -17.281  1.00 35.49     0.174 HD
ATOM     10  HH  ARG D 557     -27.983  -3.910 -16.826  1.00 35.49     0.174 HD
ATOM     11  HH  ARG D 557     -25.936  -2.236 -14.938  1.00 35.49     0.174 HD
ATOM     12  HH  ARG D 557     -26.254  -3.606 -15.419  1.00 35.49     0.174 HD
ATOM     13  HE  ARG D 557     -27.108  -0.557 -15.464  1.00 35.49     0.178 HD
ENDBRANCH   4   5
ENDBRANCH   3   4
ENDBRANCH   2   3
ENDBRANCH   1   2
END_RES ARG D 557
BEGIN_RES GLU D 570
REMARK  3 active torsions:
REMARK  status: ('A' for Active; 'I' for Inactive)
REMARK    5  A    between atoms: CA   and  CB  
REMARK    6  A    between atoms: CB   and  CG  
REMARK    7  A    between atoms: CG   and  CD  
ROOT
ATOM     14  CA  GLU D 570     -18.033  -6.348 -13.375  1.00 32.92     0.160 C 
ENDROOT
BRANCH  14  15
ATOM     15  CB  GLU D 570     -19.500  -6.345 -13.794  1.00 32.92     0.043 C 
BRANCH  15  16
ATOM     16  CG  GLU D 570     -20.448  -5.562 -12.960  1.00 32.92     0.100 C 
BRANCH  16  17
ATOM     17  CD  GLU D 570     -21.699  -5.163 -13.708  1.00 32.92     0.185 C 
ATOM     18  OE1 GLU D 570     -21.650  -5.037 -14.947  1.00 32.92    -0.647 OA
ATOM     19  OE2 GLU D 570     -22.736  -4.957 -13.046  1.00 32.92    -0.647 OA
ENDBRANCH  16  17
ENDBRANCH  15  16
ENDBRANCH  14  15
END_RES GLU D 570
ENDMDL
MODEL 9
REMARK VINA RESULT:      -7.4      3.743      7.155
REMARK  5 active torsions:
REMARK  status: ('A' for Active; 'I' for Inactive)
REMARK    1  A    between atoms: C_5  and  C_6 
REMARK    2  A    between atoms: C_5  and  C_14 
REMARK    3  A    between atoms: C_9  and  N_12 
REMARK    4  A    between atoms: C_17  and  N_20 
REMARK    5  A    between atoms: N_25  and  H_31 
ROOT
HETATM    1  C   UNL     1     -16.243  -9.560  -2.910  1.00  0.00     0.050 C 
HETATM    2  C   UNL     1     -17.270 -10.617  -2.630  1.00  0.00    -0.035 C 
HETATM    3  C   UNL     1     -18.442 -10.338  -2.025  1.00  0.00     0.021 C 
HETATM    4  C   UNL     1     -19.454 -11.367  -1.753  1.00  0.00    -0.024 C 
HETATM    5  C   UNL     1     -20.739 -11.025  -1.424  1.00  0.00    -0.005 C 
HETATM    6  C   UNL     1     -18.987 -12.760  -1.782  1.00  0.00     0.014 C 
HETATM    7  C   UNL     1     -17.824 -13.098  -2.379  1.00  0.00     0.030 C 
HETATM    8  C   UNL     1     -17.050 -12.030  -3.053  1.00  0.00     0.032 C 
HETATM    9  N   UNL     1     -16.269 -12.333  -4.032  1.00  0.00    -0.387 N 
HETATM   10  H   UNL     1     -16.217 -13.268  -4.418  1.00  0.00     0.157 HD
ENDROOT
BRANCH   5  11
HETATM   11  C   UNL     1     -21.730 -12.063  -1.017  1.00  0.00    -0.024 A 
HETATM   12  C   UNL     1     -21.791 -12.485   0.318  1.00  0.00     0.021 A 
HETATM   13  C   UNL     1     -22.683 -13.493   0.727  1.00  0.00    -0.040 A 
HETATM   14  C   UNL     1     -23.578 -14.045  -0.205  1.00  0.00     0.011 A 
HETATM   15  C   UNL     1     -22.660 -13.949   2.162  1.00  0.00     0.050 C 
HETATM   16  C   UNL     1     -23.504 -13.627  -1.541  1.00  0.00     0.024 A 
HETATM   17  C   UNL     1     -22.601 -12.636  -1.945  1.00  0.00     0.014 A 
BRANCH  14  18
HETATM   18  N   UNL     1     -24.369 -15.163   0.110  1.00  0.00    -0.302 NA
HETATM   19  H   UNL     1     -23.966 -16.051  -0.164  1.00  0.00     0.124 HD
HETATM   20  H   UNL     1     -24.693 -15.172   1.073  1.00  0.00     0.124 HD
ENDBRANCH  14  18
ENDBRANCH   5  11
BRANCH   5  21
HETATM   21  C   UNL     1     -21.191  -9.606  -1.530  1.00  0.00    -0.024 A 
HETATM   22  C   UNL     1     -21.235  -8.945  -2.766  1.00  0.00     0.021 A 
HETATM   23  C   UNL     1     -21.649  -7.598  -2.855  1.00  0.00    -0.040 A 
HETATM   24  C   UNL     1     -22.057  -6.920  -1.693  1.00  0.00     0.011 A 
HETATM   25  C   UNL     1     -21.661  -6.923  -4.200  1.00  0.00     0.050 C 
HETATM   26  C   UNL     1     -21.979  -7.577  -0.460  1.00  0.00     0.024 A 
HETATM   27  C   UNL     1     -21.570  -8.913  -0.379  1.00  0.00     0.014 A 
BRANCH  24  28
HETATM   28  N   UNL     1     -22.317  -5.539  -1.701  1.00  0.00    -0.302 NA
HETATM   29  H   UNL     1     -22.423  -5.138  -2.626  1.00  0.00     0.124 HD
HETATM   30  H   UNL     1     -23.068  -5.263  -1.076  1.00  0.00     0.124 HD
ENDBRANCH  24  28
ENDBRANCH   5  21
BRANCH   9  31
HETATM   31  H   UNL     1     -16.066 -11.602  -4.734  1.00  0.00     0.269 HD
HETATM   32 CL   UNL     2     -14.816 -11.958  -6.708  1.00  0.00    -0.127 Cl
ENDBRANCH   9  31
TORSDOF 5
BEGIN_RES ARG D 557
REMARK  4 active torsions:
REMARK  status: ('A' for Active; 'I' for Inactive)
REMARK    1  A    between atoms: CA   and  CB  
REMARK    2  A    between atoms: CB   and  CG  
REMARK    3  A    between atoms: CG   and  CD  
REMARK    4  A    between atoms: CD   and  NE  
REMARK       I    between atoms: NE   and  CZ  
REMARK       I    between atoms: CZ   and  NH1 
REMARK       I    between atoms: CZ   and  NH2 
ROOT
ATOM      1  CA  ARG D 557     -26.217   2.705 -17.014  1.00 35.49     0.159 C 
ENDROOT
BRANCH   1   2
ATOM      2  CB  ARG D 557     -26.789   1.319 -17.183  1.00 35.49     0.034 C 
BRANCH   2   3
ATOM      3  CG  ARG D 557     -28.158   1.105 -16.697  1.00 35.49     0.027 C 
BRANCH   3   4
ATOM      4  CD  ARG D 557     -28.790  -0.091 -17.299  1.00 35.49     0.116 C 
BRANCH   4   5
ATOM      5  NE  ARG D 557     -28.172  -1.312 -16.855  1.00 35.49    -0.212 N 
ATOM      6  CZ  ARG D 557     -28.651  -2.524 -17.031  1.00 35.49     0.666 C 
ATOM      7  NH1 ARG D 557     -29.797  -2.750 -17.645  1.00 35.49    -0.235 N 
ATOM      8  NH2 ARG D 557     -27.945  -3.519 -16.580  1.00 35.49    -0.235 N 
ATOM      9  HH  ARG D 557     -30.277  -2.110 -17.952  1.00 35.49     0.174 HD
ATOM     10  HH  ARG D 557     -30.058  -3.562 -17.733  1.00 35.49     0.174 HD
ATOM     11  HH  ARG D 557     -27.205  -3.343 -16.194  1.00 35.49     0.174 HD
ATOM     12  HH  ARG D 557     -28.220  -4.316 -16.678  1.00 35.49     0.174 HD
ATOM     13  HE  ARG D 557     -27.465  -1.255 -16.386  1.00 35.49     0.178 HD
ENDBRANCH   4   5
ENDBRANCH   3   4
ENDBRANCH   2   3
ENDBRANCH   1   2
END_RES ARG D 557
BEGIN_RES GLU D 570
REMARK  3 active torsions:
REMARK  status: ('A' for Active; 'I' for Inactive)
REMARK    5  A    between atoms: CA   and  CB  
REMARK    6  A    between atoms: CB   and  CG  
REMARK    7  A    between atoms: CG   and  CD  
ROOT
ATOM     14  CA  GLU D 570     -18.033  -6.348 -13.375  1.00 32.92     0.160 C 
ENDROOT
BRANCH  14  15
ATOM     15  CB  GLU D 570     -19.500  -6.345 -13.794  1.00 32.92     0.043 C 
BRANCH  15  16
ATOM     16  CG  GLU D 570     -20.438  -5.514 -12.996  1.00 32.92     0.100 C 
BRANCH  16  17
ATOM     17  CD  GLU D 570     -21.744  -5.250 -13.709  1.00 32.92     0.185 C 
ATOM     18  OE1 GLU D 570     -22.302  -4.146 -13.560  1.00 32.92    -0.647 OA
ATOM     19  OE2 GLU D 570     -22.223  -6.164 -14.409  1.00 32.92    -0.647 OA
ENDBRANCH  16  17
ENDBRANCH  15  16
ENDBRANCH  14  15
END_RES GLU D 570
ENDMDL
