MODEL 1
REMARK VINA RESULT:      -6.6      0.000      0.000
REMARK  1 active torsions:
REMARK  status: ('A' for Active; 'I' for Inactive)
REMARK    1  A    between atoms: C_7  and  O_9 
ROOT
HETATM    1  C   UNL     1     -27.698  -4.703 -16.107  1.00  0.00     0.016 C 
HETATM    2  C   UNL     1     -28.619  -5.848 -16.589  1.00  0.00    -0.034 C 
HETATM    3  C   UNL     1     -30.133  -5.560 -16.436  1.00  0.00    -0.004 C 
HETATM    4  C   UNL     1     -30.355  -4.331 -17.345  1.00  0.00     0.006 C 
HETATM    5  C   UNL     1     -29.393  -4.594 -18.519  1.00  0.00     0.013 C 
HETATM    6  C   UNL     1     -28.753  -5.965 -18.144  1.00  0.00    -0.011 C 
HETATM    7  C   UNL     1     -29.896  -7.007 -18.359  1.00  0.00     0.127 C 
HETATM    8  C   UNL     1     -30.806  -6.767 -17.142  1.00  0.00     0.038 C 
HETATM    9  C   UNL     1     -27.479  -6.253 -18.916  1.00  0.00     0.018 C 
HETATM   10  C   UNL     1     -28.146  -7.103 -15.830  1.00  0.00     0.016 C 
ENDROOT
BRANCH   7  11
HETATM   11  O   UNL     1     -29.473  -8.355 -18.450  1.00  0.00    -0.395 OA
HETATM   12  H   UNL     1     -29.007  -8.496 -19.288  1.00  0.00     0.210 HD
ENDBRANCH   7  11
TORSDOF 1
BEGIN_RES ARG D 557
REMARK  4 active torsions:
REMARK  status: ('A' for Active; 'I' for Inactive)
REMARK    1  A    between atoms: CA   and  CB  
REMARK    2  A    between atoms: CB   and  CG  
REMARK    3  A    between atoms: CG   and  CD  
REMARK    4  A    between atoms: CD   and  NE  
REMARK       I    between atoms: NE   and  CZ  
REMARK       I    between atoms: CZ   and  NH1 
REMARK       I    between atoms: CZ   and  NH2 
ROOT
ATOM      1  CA  ARG D 557     -26.217   2.705 -17.014  1.00 35.49     0.159 C 
ENDROOT
BRANCH   1   2
ATOM      2  CB  ARG D 557     -26.789   1.319 -17.183  1.00 35.49     0.034 C 
BRANCH   2   3
ATOM      3  CG  ARG D 557     -25.836   0.203 -17.157  1.00 35.49     0.027 C 
BRANCH   3   4
ATOM      4  CD  ARG D 557     -24.751   0.411 -16.170  1.00 35.49     0.116 C 
BRANCH   4   5
ATOM      5  NE  ARG D 557     -24.897  -0.437 -15.017  1.00 35.49    -0.212 N 
ATOM      6  CZ  ARG D 557     -24.082  -1.408 -14.669  1.00 35.49     0.666 C 
ATOM      7  NH1 ARG D 557     -23.014  -1.725 -15.376  1.00 35.49    -0.235 N 
ATOM      8  NH2 ARG D 557     -24.358  -2.061 -13.578  1.00 35.49    -0.235 N 
ATOM      9  HH  ARG D 557     -22.812  -1.307 -16.097  1.00 35.49     0.174 HD
ATOM     10  HH  ARG D 557     -22.517  -2.366 -15.099  1.00 35.49     0.174 HD
ATOM     11  HH  ARG D 557     -25.051  -1.830 -13.137  1.00 35.49     0.174 HD
ATOM     12  HH  ARG D 557     -23.854  -2.691 -13.319  1.00 35.49     0.174 HD
ATOM     13  HE  ARG D 557     -25.598  -0.350 -14.544  1.00 35.49     0.178 HD
ENDBRANCH   4   5
ENDBRANCH   3   4
ENDBRANCH   2   3
ENDBRANCH   1   2
END_RES ARG D 557
BEGIN_RES GLU D 570
REMARK  3 active torsions:
REMARK  status: ('A' for Active; 'I' for Inactive)
REMARK    5  A    between atoms: CA   and  CB  
REMARK    6  A    between atoms: CB   and  CG  
REMARK    7  A    between atoms: CG   and  CD  
ROOT
ATOM     14  CA  GLU D 570     -18.033  -6.348 -13.375  1.00 32.92     0.160 C 
ENDROOT
BRANCH  14  15
ATOM     15  CB  GLU D 570     -19.500  -6.345 -13.794  1.00 32.92     0.043 C 
BRANCH  15  16
ATOM     16  CG  GLU D 570     -20.440  -5.522 -12.990  1.00 32.92     0.100 C 
BRANCH  16  17
ATOM     17  CD  GLU D 570     -21.742  -5.247 -13.705  1.00 32.92     0.185 C 
ATOM     18  OE1 GLU D 570     -22.307  -4.149 -13.533  1.00 32.92    -0.647 OA
ATOM     19  OE2 GLU D 570     -22.211  -6.145 -14.432  1.00 32.92    -0.647 OA
ENDBRANCH  16  17
ENDBRANCH  15  16
ENDBRANCH  14  15
END_RES GLU D 570
ENDMDL
MODEL 2
REMARK VINA RESULT:      -6.3      1.394      2.521
REMARK  1 active torsions:
REMARK  status: ('A' for Active; 'I' for Inactive)
REMARK    1  A    between atoms: C_7  and  O_9 
ROOT
HETATM    1  C   UNL     1     -30.014  -7.223 -18.311  1.00  0.00     0.016 C 
HETATM    2  C   UNL     1     -29.092  -6.041 -17.933  1.00  0.00    -0.034 C 
HETATM    3  C   UNL     1     -29.770  -4.650 -18.009  1.00  0.00    -0.004 C 
HETATM    4  C   UNL     1     -30.901  -4.749 -16.960  1.00  0.00     0.006 C 
HETATM    5  C   UNL     1     -30.268  -5.612 -15.853  1.00  0.00     0.013 C 
HETATM    6  C   UNL     1     -28.833  -5.882 -16.399  1.00  0.00    -0.011 C 
HETATM    7  C   UNL     1     -28.097  -4.511 -16.268  1.00  0.00     0.127 C 
HETATM    8  C   UNL     1     -28.699  -3.692 -17.423  1.00  0.00     0.038 C 
HETATM    9  C   UNL     1     -28.145  -7.040 -15.702  1.00  0.00     0.018 C 
HETATM   10  C   UNL     1     -27.856  -6.178 -18.842  1.00  0.00     0.016 C 
ENDROOT
BRANCH   7  11
HETATM   11  O   UNL     1     -26.685  -4.576 -16.342  1.00  0.00    -0.395 OA
HETATM   12  H   UNL     1     -26.342  -3.771 -16.759  1.00  0.00     0.210 HD
ENDBRANCH   7  11
TORSDOF 1
BEGIN_RES ARG D 557
REMARK  4 active torsions:
REMARK  status: ('A' for Active; 'I' for Inactive)
REMARK    1  A    between atoms: CA   and  CB  
REMARK    2  A    between atoms: CB   and  CG  
REMARK    3  A    between atoms: CG   and  CD  
REMARK    4  A    between atoms: CD   and  NE  
REMARK       I    between atoms: NE   and  CZ  
REMARK       I    between atoms: CZ   and  NH1 
REMARK       I    between atoms: CZ   and  NH2 
ROOT
ATOM      1  CA  ARG D 557     -26.217   2.705 -17.014  1.00 35.49     0.159 C 
ENDROOT
BRANCH   1   2
ATOM      2  CB  ARG D 557     -26.789   1.319 -17.183  1.00 35.49     0.034 C 
BRANCH   2   3
ATOM      3  CG  ARG D 557     -25.856   0.196 -17.031  1.00 35.49     0.027 C 
BRANCH   3   4
ATOM      4  CD  ARG D 557     -26.196  -0.669 -15.879  1.00 35.49     0.116 C 
BRANCH   4   5
ATOM      5  NE  ARG D 557     -25.070  -0.882 -15.009  1.00 35.49    -0.212 N 
ATOM      6  CZ  ARG D 557     -24.887  -1.925 -14.230  1.00 35.49     0.666 C 
ATOM      7  NH1 ARG D 557     -25.758  -2.914 -14.153  1.00 35.49    -0.235 N 
ATOM      8  NH2 ARG D 557     -23.795  -1.962 -13.523  1.00 35.49    -0.235 N 
ATOM      9  HH  ARG D 557     -26.483  -2.911 -14.611  1.00 35.49     0.174 HD
ATOM     10  HH  ARG D 557     -25.584  -3.569 -13.629  1.00 35.49     0.174 HD
ATOM     11  HH  ARG D 557     -23.247  -1.313 -13.599  1.00 35.49     0.174 HD
ATOM     12  HH  ARG D 557     -23.640  -2.620 -13.012  1.00 35.49     0.174 HD
ATOM     13  HE  ARG D 557     -24.494  -0.259 -14.941  1.00 35.49     0.178 HD
ENDBRANCH   4   5
ENDBRANCH   3   4
ENDBRANCH   2   3
ENDBRANCH   1   2
END_RES ARG D 557
BEGIN_RES GLU D 570
REMARK  3 active torsions:
REMARK  status: ('A' for Active; 'I' for Inactive)
REMARK    5  A    between atoms: CA   and  CB  
REMARK    6  A    between atoms: CB   and  CG  
REMARK    7  A    between atoms: CG   and  CD  
ROOT
ATOM     14  CA  GLU D 570     -18.033  -6.348 -13.375  1.00 32.92     0.160 C 
ENDROOT
BRANCH  14  15
ATOM     15  CB  GLU D 570     -19.500  -6.345 -13.794  1.00 32.92     0.043 C 
BRANCH  15  16
ATOM     16  CG  GLU D 570     -20.451  -5.573 -12.953  1.00 32.92     0.100 C 
BRANCH  16  17
ATOM     17  CD  GLU D 570     -21.682  -5.132 -13.709  1.00 32.92     0.185 C 
ATOM     18  OE1 GLU D 570     -21.676  -5.176 -14.954  1.00 32.92    -0.647 OA
ATOM     19  OE2 GLU D 570     -22.658  -4.722 -13.049  1.00 32.92    -0.647 OA
ENDBRANCH  16  17
ENDBRANCH  15  16
ENDBRANCH  14  15
END_RES GLU D 570
ENDMDL
MODEL 3
REMARK VINA RESULT:      -5.6      1.438      2.337
REMARK  1 active torsions:
REMARK  status: ('A' for Active; 'I' for Inactive)
REMARK    1  A    between atoms: C_7  and  O_9 
ROOT
HETATM    1  C   UNL     1     -28.193  -7.379 -15.764  1.00  0.00     0.016 C 
HETATM    2  C   UNL     1     -28.811  -6.017 -16.152  1.00  0.00    -0.034 C 
HETATM    3  C   UNL     1     -27.808  -5.010 -16.770  1.00  0.00    -0.004 C 
HETATM    4  C   UNL     1     -27.337  -5.724 -18.057  1.00  0.00     0.006 C 
HETATM    5  C   UNL     1     -28.609  -6.450 -18.532  1.00  0.00     0.013 C 
HETATM    6  C   UNL     1     -29.666  -6.039 -17.463  1.00  0.00    -0.011 C 
HETATM    7  C   UNL     1     -29.963  -4.535 -17.759  1.00  0.00     0.127 C 
HETATM    8  C   UNL     1     -28.708  -3.829 -17.217  1.00  0.00     0.038 C 
HETATM    9  C   UNL     1     -30.887  -6.939 -17.463  1.00  0.00     0.018 C 
HETATM   10  C   UNL     1     -29.501  -5.500 -14.875  1.00  0.00     0.016 C 
ENDROOT
BRANCH   7  11
HETATM   11  O   UNL     1     -31.151  -4.030 -17.178  1.00  0.00    -0.395 OA
HETATM   12  H   UNL     1     -31.772  -4.757 -17.016  1.00  0.00     0.210 HD
ENDBRANCH   7  11
TORSDOF 1
BEGIN_RES ARG D 557
REMARK  4 active torsions:
REMARK  status: ('A' for Active; 'I' for Inactive)
REMARK    1  A    between atoms: CA   and  CB  
REMARK    2  A    between atoms: CB   and  CG  
REMARK    3  A    between atoms: CG   and  CD  
REMARK    4  A    between atoms: CD   and  NE  
REMARK       I    between atoms: NE   and  CZ  
REMARK       I    between atoms: CZ   and  NH1 
REMARK       I    between atoms: CZ   and  NH2 
ROOT
ATOM      1  CA  ARG D 557     -26.217   2.705 -17.014  1.00 35.49     0.159 C 
ENDROOT
BRANCH   1   2
ATOM      2  CB  ARG D 557     -26.789   1.319 -17.183  1.00 35.49     0.034 C 
BRANCH   2   3
ATOM      3  CG  ARG D 557     -25.863   0.195 -16.999  1.00 35.49     0.027 C 
BRANCH   3   4
ATOM      4  CD  ARG D 557     -26.276  -0.702 -15.896  1.00 35.49     0.116 C 
BRANCH   4   5
ATOM      5  NE  ARG D 557     -25.223  -0.899 -14.935  1.00 35.49    -0.212 N 
ATOM      6  CZ  ARG D 557     -24.922  -2.036 -14.348  1.00 35.49     0.666 C 
ATOM      7  NH1 ARG D 557     -25.588  -3.152 -14.579  1.00 35.49    -0.235 N 
ATOM      8  NH2 ARG D 557     -23.921  -2.035 -13.517  1.00 35.49    -0.235 N 
ATOM      9  HH  ARG D 557     -26.249  -3.176 -15.124  1.00 35.49     0.174 HD
ATOM     10  HH  ARG D 557     -25.344  -3.864 -14.170  1.00 35.49     0.174 HD
ATOM     11  HH  ARG D 557     -23.504  -1.302 -13.392  1.00 35.49     0.174 HD
ATOM     12  HH  ARG D 557     -23.694  -2.751 -13.122  1.00 35.49     0.174 HD
ATOM     13  HE  ARG D 557     -24.789  -0.217 -14.672  1.00 35.49     0.178 HD
ENDBRANCH   4   5
ENDBRANCH   3   4
ENDBRANCH   2   3
ENDBRANCH   1   2
END_RES ARG D 557
BEGIN_RES GLU D 570
REMARK  3 active torsions:
REMARK  status: ('A' for Active; 'I' for Inactive)
REMARK    5  A    between atoms: CA   and  CB  
REMARK    6  A    between atoms: CB   and  CG  
REMARK    7  A    between atoms: CG   and  CD  
ROOT
ATOM     14  CA  GLU D 570     -18.033  -6.348 -13.375  1.00 32.92     0.160 C 
ENDROOT
BRANCH  14  15
ATOM     15  CB  GLU D 570     -19.500  -6.345 -13.794  1.00 32.92     0.043 C 
BRANCH  15  16
ATOM     16  CG  GLU D 570     -20.448  -5.561 -12.961  1.00 32.92     0.100 C 
BRANCH  16  17
ATOM     17  CD  GLU D 570     -21.682  -5.130 -13.720  1.00 32.92     0.185 C 
ATOM     18  OE1 GLU D 570     -21.646  -5.099 -14.965  1.00 32.92    -0.647 OA
ATOM     19  OE2 GLU D 570     -22.689  -4.804 -13.061  1.00 32.92    -0.647 OA
ENDBRANCH  16  17
ENDBRANCH  15  16
ENDBRANCH  14  15
END_RES GLU D 570
ENDMDL
MODEL 4
REMARK VINA RESULT:      -5.4      1.471      2.108
REMARK  1 active torsions:
REMARK  status: ('A' for Active; 'I' for Inactive)
REMARK    1  A    between atoms: C_7  and  O_9 
ROOT
HETATM    1  C   UNL     1     -29.862  -3.934 -18.290  1.00  0.00     0.016 C 
HETATM    2  C   UNL     1     -29.096  -4.805 -17.268  1.00  0.00    -0.034 C 
HETATM    3  C   UNL     1     -29.992  -5.465 -16.189  1.00  0.00    -0.004 C 
HETATM    4  C   UNL     1     -30.927  -6.377 -17.014  1.00  0.00     0.006 C 
HETATM    5  C   UNL     1     -30.009  -6.877 -18.145  1.00  0.00     0.013 C 
HETATM    6  C   UNL     1     -28.644  -6.201 -17.811  1.00  0.00    -0.011 C 
HETATM    7  C   UNL     1     -28.127  -6.961 -16.549  1.00  0.00     0.127 C 
HETATM    8  C   UNL     1     -29.015  -6.398 -15.426  1.00  0.00     0.038 C 
HETATM    9  C   UNL     1     -27.685  -6.196 -18.986  1.00  0.00     0.018 C 
HETATM   10  C   UNL     1     -28.000  -3.891 -16.689  1.00  0.00     0.016 C 
ENDROOT
BRANCH   7  11
HETATM   11  O   UNL     1     -26.748  -6.798 -16.270  1.00  0.00    -0.395 OA
HETATM   12  H   UNL     1     -26.280  -6.535 -17.078  1.00  0.00     0.210 HD
ENDBRANCH   7  11
TORSDOF 1
BEGIN_RES ARG D 557
REMARK  4 active torsions:
REMARK  status: ('A' for Active; 'I' for Inactive)
REMARK    1  A    between atoms: CA   and  CB  
REMARK    2  A    between atoms: CB   and  CG  
REMARK    3  A    between atoms: CG   and  CD  
REMARK    4  A    between atoms: CD   and  NE  
REMARK       I    between atoms: NE   and  CZ  
REMARK       I    between atoms: CZ   and  NH1 
REMARK       I    between atoms: CZ   and  NH2 
ROOT
ATOM      1  CA  ARG D 557     -26.217   2.705 -17.014  1.00 35.49     0.159 C 
ENDROOT
BRANCH   1   2
ATOM      2  CB  ARG D 557     -26.789   1.319 -17.183  1.00 35.49     0.034 C 
BRANCH   2   3
ATOM      3  CG  ARG D 557     -25.859   0.196 -17.015  1.00 35.49     0.027 C 
BRANCH   3   4
ATOM      4  CD  ARG D 557     -26.214  -0.663 -15.861  1.00 35.49     0.116 C 
BRANCH   4   5
ATOM      5  NE  ARG D 557     -25.103  -0.857 -14.968  1.00 35.49    -0.212 N 
ATOM      6  CZ  ARG D 557     -24.849  -1.951 -14.284  1.00 35.49     0.666 C 
ATOM      7  NH1 ARG D 557     -25.625  -3.018 -14.340  1.00 35.49    -0.235 N 
ATOM      8  NH2 ARG D 557     -23.783  -1.959 -13.538  1.00 35.49    -0.235 N 
ATOM      9  HH  ARG D 557     -26.330  -3.036 -14.826  1.00 35.49     0.174 HD
ATOM     10  HH  ARG D 557     -25.408  -3.704 -13.874  1.00 35.49     0.174 HD
ATOM     11  HH  ARG D 557     -23.297  -1.258 -13.528  1.00 35.49     0.174 HD
ATOM     12  HH  ARG D 557     -23.584  -2.648 -13.086  1.00 35.49     0.174 HD
ATOM     13  HE  ARG D 557     -24.592  -0.195 -14.816  1.00 35.49     0.178 HD
ENDBRANCH   4   5
ENDBRANCH   3   4
ENDBRANCH   2   3
ENDBRANCH   1   2
END_RES ARG D 557
BEGIN_RES GLU D 570
REMARK  3 active torsions:
REMARK  status: ('A' for Active; 'I' for Inactive)
REMARK    5  A    between atoms: CA   and  CB  
REMARK    6  A    between atoms: CB   and  CG  
REMARK    7  A    between atoms: CG   and  CD  
ROOT
ATOM     14  CA  GLU D 570     -18.033  -6.348 -13.375  1.00 32.92     0.160 C 
ENDROOT
BRANCH  14  15
ATOM     15  CB  GLU D 570     -19.500  -6.345 -13.794  1.00 32.92     0.043 C 
BRANCH  15  16
ATOM     16  CG  GLU D 570     -19.800  -6.147 -15.236  1.00 32.92     0.100 C 
BRANCH  16  17
ATOM     17  CD  GLU D 570     -21.073  -5.369 -15.472  1.00 32.92     0.185 C 
ATOM     18  OE1 GLU D 570     -21.744  -4.994 -14.491  1.00 32.92    -0.647 OA
ATOM     19  OE2 GLU D 570     -21.413  -5.148 -16.651  1.00 32.92    -0.647 OA
ENDBRANCH  16  17
ENDBRANCH  15  16
ENDBRANCH  14  15
END_RES GLU D 570
ENDMDL
MODEL 5
REMARK VINA RESULT:      -5.3      9.764     13.823
REMARK  1 active torsions:
REMARK  status: ('A' for Active; 'I' for Inactive)
REMARK    1  A    between atoms: C_7  and  O_9 
ROOT
HETATM    1  C   UNL     1     -22.256  -7.124  -1.663  1.00  0.00     0.016 C 
HETATM    2  C   UNL     1     -21.479  -8.162  -0.821  1.00  0.00    -0.034 C 
HETATM    3  C   UNL     1     -21.536  -7.920   0.708  1.00  0.00    -0.004 C 
HETATM    4  C   UNL     1     -23.042  -8.047   1.032  1.00  0.00     0.006 C 
HETATM    5  C   UNL     1     -23.507  -9.157   0.070  1.00  0.00     0.013 C 
HETATM    6  C   UNL     1     -22.193  -9.547  -0.674  1.00  0.00    -0.011 C 
HETATM    7  C   UNL     1     -21.347 -10.310   0.393  1.00  0.00     0.127 C 
HETATM    8  C   UNL     1     -20.843  -9.174   1.301  1.00  0.00     0.038 C 
HETATM    9  C   UNL     1     -22.448 -10.320  -1.953  1.00  0.00     0.018 C 
HETATM   10  C   UNL     1     -20.050  -8.170  -1.395  1.00  0.00     0.016 C 
ENDROOT
BRANCH   7  11
HETATM   11  O   UNL     1     -20.284 -11.089  -0.125  1.00  0.00    -0.395 OA
HETATM   12  H   UNL     1     -19.575 -11.154   0.534  1.00  0.00     0.210 HD
ENDBRANCH   7  11
TORSDOF 1
BEGIN_RES ARG D 557
REMARK  4 active torsions:
REMARK  status: ('A' for Active; 'I' for Inactive)
REMARK    1  A    between atoms: CA   and  CB  
REMARK    2  A    between atoms: CB   and  CG  
REMARK    3  A    between atoms: CG   and  CD  
REMARK    4  A    between atoms: CD   and  NE  
REMARK       I    between atoms: NE   and  CZ  
REMARK       I    between atoms: CZ   and  NH1 
REMARK       I    between atoms: CZ   and  NH2 
ROOT
ATOM      1  CA  ARG D 557     -26.217   2.705 -17.014  1.00 35.49     0.159 C 
ENDROOT
BRANCH   1   2
ATOM      2  CB  ARG D 557     -26.789   1.319 -17.183  1.00 35.49     0.034 C 
BRANCH   2   3
ATOM      3  CG  ARG D 557     -25.835   0.203 -17.160  1.00 35.49     0.027 C 
BRANCH   3   4
ATOM      4  CD  ARG D 557     -24.749   0.410 -16.175  1.00 35.49     0.116 C 
BRANCH   4   5
ATOM      5  NE  ARG D 557     -24.897  -0.436 -15.020  1.00 35.49    -0.212 N 
ATOM      6  CZ  ARG D 557     -24.081  -1.405 -14.668  1.00 35.49     0.666 C 
ATOM      7  NH1 ARG D 557     -23.010  -1.721 -15.372  1.00 35.49    -0.235 N 
ATOM      8  NH2 ARG D 557     -24.358  -2.057 -13.576  1.00 35.49    -0.235 N 
ATOM      9  HH  ARG D 557     -22.807  -1.304 -16.093  1.00 35.49     0.174 HD
ATOM     10  HH  ARG D 557     -22.513  -2.360 -15.093  1.00 35.49     0.174 HD
ATOM     11  HH  ARG D 557     -25.052  -1.826 -13.138  1.00 35.49     0.174 HD
ATOM     12  HH  ARG D 557     -23.853  -2.685 -13.315  1.00 35.49     0.174 HD
ATOM     13  HE  ARG D 557     -25.599  -0.350 -14.548  1.00 35.49     0.178 HD
ENDBRANCH   4   5
ENDBRANCH   3   4
ENDBRANCH   2   3
ENDBRANCH   1   2
END_RES ARG D 557
BEGIN_RES GLU D 570
REMARK  3 active torsions:
REMARK  status: ('A' for Active; 'I' for Inactive)
REMARK    5  A    between atoms: CA   and  CB  
REMARK    6  A    between atoms: CB   and  CG  
REMARK    7  A    between atoms: CG   and  CD  
ROOT
ATOM     14  CA  GLU D 570     -18.033  -6.348 -13.375  1.00 32.92     0.160 C 
ENDROOT
BRANCH  14  15
ATOM     15  CB  GLU D 570     -19.500  -6.345 -13.794  1.00 32.92     0.043 C 
BRANCH  15  16
ATOM     16  CG  GLU D 570     -20.441  -5.525 -12.987  1.00 32.92     0.100 C 
BRANCH  16  17
ATOM     17  CD  GLU D 570     -21.743  -5.248 -13.702  1.00 32.92     0.185 C 
ATOM     18  OE1 GLU D 570     -22.212  -6.116 -14.463  1.00 32.92    -0.647 OA
ATOM     19  OE2 GLU D 570     -22.291  -4.145 -13.511  1.00 32.92    -0.647 OA
ENDBRANCH  16  17
ENDBRANCH  15  16
ENDBRANCH  14  15
END_RES GLU D 570
ENDMDL
MODEL 6
REMARK VINA RESULT:      -5.2      9.681     13.625
REMARK  1 active torsions:
REMARK  status: ('A' for Active; 'I' for Inactive)
REMARK    1  A    between atoms: C_7  and  O_9 
ROOT
HETATM    1  C   UNL     1     -20.753  -8.684   1.624  1.00  0.00     0.016 C 
HETATM    2  C   UNL     1     -21.328  -9.493   0.438  1.00  0.00    -0.034 C 
HETATM    3  C   UNL     1     -22.867  -9.672   0.472  1.00  0.00    -0.004 C 
HETATM    4  C   UNL     1     -23.395  -8.222   0.383  1.00  0.00     0.006 C 
HETATM    5  C   UNL     1     -22.380  -7.545  -0.557  1.00  0.00     0.013 C 
HETATM    6  C   UNL     1     -21.404  -8.707  -0.912  1.00  0.00    -0.011 C 
HETATM    7  C   UNL     1     -22.225  -9.637  -1.859  1.00  0.00     0.127 C 
HETATM    8  C   UNL     1     -23.184 -10.348  -0.888  1.00  0.00     0.038 C 
HETATM    9  C   UNL     1     -20.089  -8.217  -1.488  1.00  0.00     0.018 C 
HETATM   10  C   UNL     1     -20.550 -10.823   0.432  1.00  0.00     0.016 C 
ENDROOT
BRANCH   7  11
HETATM   11  O   UNL     1     -21.458 -10.555  -2.616  1.00  0.00    -0.395 OA
HETATM   12  H   UNL     1     -20.611 -10.151  -2.861  1.00  0.00     0.210 HD
ENDBRANCH   7  11
TORSDOF 1
BEGIN_RES ARG D 557
REMARK  4 active torsions:
REMARK  status: ('A' for Active; 'I' for Inactive)
REMARK    1  A    between atoms: CA   and  CB  
REMARK    2  A    between atoms: CB   and  CG  
REMARK    3  A    between atoms: CG   and  CD  
REMARK    4  A    between atoms: CD   and  NE  
REMARK       I    between atoms: NE   and  CZ  
REMARK       I    between atoms: CZ   and  NH1 
REMARK       I    between atoms: CZ   and  NH2 
ROOT
ATOM      1  CA  ARG D 557     -26.217   2.705 -17.014  1.00 35.49     0.159 C 
ENDROOT
BRANCH   1   2
ATOM      2  CB  ARG D 557     -26.789   1.319 -17.183  1.00 35.49     0.034 C 
BRANCH   2   3
ATOM      3  CG  ARG D 557     -25.835   0.203 -17.162  1.00 35.49     0.027 C 
BRANCH   3   4
ATOM      4  CD  ARG D 557     -24.748   0.409 -16.177  1.00 35.49     0.116 C 
BRANCH   4   5
ATOM      5  NE  ARG D 557     -24.896  -0.436 -15.022  1.00 35.49    -0.212 N 
ATOM      6  CZ  ARG D 557     -24.082  -1.406 -14.671  1.00 35.49     0.666 C 
ATOM      7  NH1 ARG D 557     -23.013  -1.725 -15.377  1.00 35.49    -0.235 N 
ATOM      8  NH2 ARG D 557     -24.359  -2.056 -13.578  1.00 35.49    -0.235 N 
ATOM      9  HH  ARG D 557     -22.810  -1.309 -16.098  1.00 35.49     0.174 HD
ATOM     10  HH  ARG D 557     -22.517  -2.366 -15.097  1.00 35.49     0.174 HD
ATOM     11  HH  ARG D 557     -25.052  -1.823 -13.138  1.00 35.49     0.174 HD
ATOM     12  HH  ARG D 557     -23.855  -2.686 -13.317  1.00 35.49     0.174 HD
ATOM     13  HE  ARG D 557     -25.597  -0.347 -14.549  1.00 35.49     0.178 HD
ENDBRANCH   4   5
ENDBRANCH   3   4
ENDBRANCH   2   3
ENDBRANCH   1   2
END_RES ARG D 557
BEGIN_RES GLU D 570
REMARK  3 active torsions:
REMARK  status: ('A' for Active; 'I' for Inactive)
REMARK    5  A    between atoms: CA   and  CB  
REMARK    6  A    between atoms: CB   and  CG  
REMARK    7  A    between atoms: CG   and  CD  
ROOT
ATOM     14  CA  GLU D 570     -18.033  -6.348 -13.375  1.00 32.92     0.160 C 
ENDROOT
BRANCH  14  15
ATOM     15  CB  GLU D 570     -19.500  -6.345 -13.794  1.00 32.92     0.043 C 
BRANCH  15  16
ATOM     16  CG  GLU D 570     -20.442  -5.533 -12.982  1.00 32.92     0.100 C 
BRANCH  16  17
ATOM     17  CD  GLU D 570     -21.741  -5.244 -13.699  1.00 32.92     0.185 C 
ATOM     18  OE1 GLU D 570     -22.291  -4.138 -13.533  1.00 32.92    -0.647 OA
ATOM     19  OE2 GLU D 570     -22.221  -6.140 -14.421  1.00 32.92    -0.647 OA
ENDBRANCH  16  17
ENDBRANCH  15  16
ENDBRANCH  14  15
END_RES GLU D 570
ENDMDL
MODEL 7
REMARK VINA RESULT:      -5.0      9.529     13.712
REMARK  1 active torsions:
REMARK  status: ('A' for Active; 'I' for Inactive)
REMARK    1  A    between atoms: C_7  and  O_9 
ROOT
HETATM    1  C   UNL     1     -23.404 -10.587  -0.029  1.00  0.00     0.016 C 
HETATM    2  C   UNL     1     -22.388  -9.776  -0.866  1.00  0.00    -0.034 C 
HETATM    3  C   UNL     1     -22.548  -8.239  -0.755  1.00  0.00    -0.004 C 
HETATM    4  C   UNL     1     -22.288  -7.962   0.743  1.00  0.00     0.006 C 
HETATM    5  C   UNL     1     -21.195  -8.988   1.097  1.00  0.00     0.013 C 
HETATM    6  C   UNL     1     -20.947  -9.714  -0.260  1.00  0.00    -0.011 C 
HETATM    7  C   UNL     1     -20.199  -8.663  -1.139  1.00  0.00     0.127 C 
HETATM    8  C   UNL     1     -21.324  -7.689  -1.531  1.00  0.00     0.038 C 
HETATM    9  C   UNL     1     -20.221 -11.036  -0.097  1.00  0.00     0.018 C 
HETATM   10  C   UNL     1     -22.520 -10.311  -2.304  1.00  0.00     0.016 C 
ENDROOT
BRANCH   7  11
HETATM   11  O   UNL     1     -19.532  -9.189  -2.272  1.00  0.00    -0.395 OA
HETATM   12  H   UNL     1     -18.600  -9.348  -2.058  1.00  0.00     0.210 HD
ENDBRANCH   7  11
TORSDOF 1
BEGIN_RES ARG D 557
REMARK  4 active torsions:
REMARK  status: ('A' for Active; 'I' for Inactive)
REMARK    1  A    between atoms: CA   and  CB  
REMARK    2  A    between atoms: CB   and  CG  
REMARK    3  A    between atoms: CG   and  CD  
REMARK    4  A    between atoms: CD   and  NE  
REMARK       I    between atoms: NE   and  CZ  
REMARK       I    between atoms: CZ   and  NH1 
REMARK       I    between atoms: CZ   and  NH2 
ROOT
ATOM      1  CA  ARG D 557     -26.217   2.705 -17.014  1.00 35.49     0.159 C 
ENDROOT
BRANCH   1   2
ATOM      2  CB  ARG D 557     -26.789   1.319 -17.183  1.00 35.49     0.034 C 
BRANCH   2   3
ATOM      3  CG  ARG D 557     -25.836   0.203 -17.154  1.00 35.49     0.027 C 
BRANCH   3   4
ATOM      4  CD  ARG D 557     -24.751   0.413 -16.168  1.00 35.49     0.116 C 
BRANCH   4   5
ATOM      5  NE  ARG D 557     -24.895  -0.436 -15.014  1.00 35.49    -0.212 N 
ATOM      6  CZ  ARG D 557     -24.080  -1.407 -14.669  1.00 35.49     0.666 C 
ATOM      7  NH1 ARG D 557     -23.013  -1.725 -15.380  1.00 35.49    -0.235 N 
ATOM      8  NH2 ARG D 557     -24.353  -2.061 -13.578  1.00 35.49    -0.235 N 
ATOM      9  HH  ARG D 557     -22.813  -1.306 -16.101  1.00 35.49     0.174 HD
ATOM     10  HH  ARG D 557     -22.517  -2.366 -15.105  1.00 35.49     0.174 HD
ATOM     11  HH  ARG D 557     -25.044  -1.829 -13.135  1.00 35.49     0.174 HD
ATOM     12  HH  ARG D 557     -23.848  -2.692 -13.321  1.00 35.49     0.174 HD
ATOM     13  HE  ARG D 557     -25.595  -0.349 -14.539  1.00 35.49     0.178 HD
ENDBRANCH   4   5
ENDBRANCH   3   4
ENDBRANCH   2   3
ENDBRANCH   1   2
END_RES ARG D 557
BEGIN_RES GLU D 570
REMARK  3 active torsions:
REMARK  status: ('A' for Active; 'I' for Inactive)
REMARK    5  A    between atoms: CA   and  CB  
REMARK    6  A    between atoms: CB   and  CG  
REMARK    7  A    between atoms: CG   and  CD  
ROOT
ATOM     14  CA  GLU D 570     -18.033  -6.348 -13.375  1.00 32.92     0.160 C 
ENDROOT
BRANCH  14  15
ATOM     15  CB  GLU D 570     -19.500  -6.345 -13.794  1.00 32.92     0.043 C 
BRANCH  15  16
ATOM     16  CG  GLU D 570     -20.443  -5.536 -12.979  1.00 32.92     0.100 C 
BRANCH  16  17
ATOM     17  CD  GLU D 570     -21.744  -5.252 -13.693  1.00 32.92     0.185 C 
ATOM     18  OE1 GLU D 570     -22.239  -6.132 -14.423  1.00 32.92    -0.647 OA
ATOM     19  OE2 GLU D 570     -22.266  -4.130 -13.533  1.00 32.92    -0.647 OA
ENDBRANCH  16  17
ENDBRANCH  15  16
ENDBRANCH  14  15
END_RES GLU D 570
ENDMDL
MODEL 8
REMARK VINA RESULT:      -5.0     10.027     14.068
REMARK  1 active torsions:
REMARK  status: ('A' for Active; 'I' for Inactive)
REMARK    1  A    between atoms: C_7  and  O_9 
ROOT
HETATM    1  C   UNL     1     -22.278  -7.106  -1.653  1.00  0.00     0.016 C 
HETATM    2  C   UNL     1     -21.495  -8.145  -0.817  1.00  0.00    -0.034 C 
HETATM    3  C   UNL     1     -21.550  -7.908   0.714  1.00  0.00    -0.004 C 
HETATM    4  C   UNL     1     -23.054  -8.043   1.040  1.00  0.00     0.006 C 
HETATM    5  C   UNL     1     -23.517  -9.151   0.075  1.00  0.00     0.013 C 
HETATM    6  C   UNL     1     -22.203  -9.532  -0.673  1.00  0.00    -0.011 C 
HETATM    7  C   UNL     1     -21.352 -10.296   0.389  1.00  0.00     0.127 C 
HETATM    8  C   UNL     1     -20.850  -9.162   1.300  1.00  0.00     0.038 C 
HETATM    9  C   UNL     1     -22.457 -10.302  -1.955  1.00  0.00     0.018 C 
HETATM   10  C   UNL     1     -20.067  -8.144  -1.393  1.00  0.00     0.016 C 
ENDROOT
BRANCH   7  11
HETATM   11  O   UNL     1     -20.287 -11.069  -0.134  1.00  0.00    -0.395 OA
HETATM   12  H   UNL     1     -19.443 -10.735   0.207  1.00  0.00     0.210 HD
ENDBRANCH   7  11
TORSDOF 1
BEGIN_RES ARG D 557
REMARK  4 active torsions:
REMARK  status: ('A' for Active; 'I' for Inactive)
REMARK    1  A    between atoms: CA   and  CB  
REMARK    2  A    between atoms: CB   and  CG  
REMARK    3  A    between atoms: CG   and  CD  
REMARK    4  A    between atoms: CD   and  NE  
REMARK       I    between atoms: NE   and  CZ  
REMARK       I    between atoms: CZ   and  NH1 
REMARK       I    between atoms: CZ   and  NH2 
ROOT
ATOM      1  CA  ARG D 557     -26.217   2.705 -17.014  1.00 35.49     0.159 C 
ENDROOT
BRANCH   1   2
ATOM      2  CB  ARG D 557     -26.789   1.319 -17.183  1.00 35.49     0.034 C 
BRANCH   2   3
ATOM      3  CG  ARG D 557     -28.231   1.226 -17.443  1.00 35.49     0.027 C 
BRANCH   3   4
ATOM      4  CD  ARG D 557     -28.915   0.307 -16.506  1.00 35.49     0.116 C 
BRANCH   4   5
ATOM      5  NE  ARG D 557     -29.302  -0.926 -17.141  1.00 35.49    -0.212 N 
ATOM      6  CZ  ARG D 557     -28.673  -2.075 -17.036  1.00 35.49     0.666 C 
ATOM      7  NH1 ARG D 557     -27.572  -2.217 -16.321  1.00 35.49    -0.235 N 
ATOM      8  NH2 ARG D 557     -29.179  -3.096 -17.665  1.00 35.49    -0.235 N 
ATOM      9  HH  ARG D 557     -27.223  -1.560 -15.898  1.00 35.49     0.174 HD
ATOM     10  HH  ARG D 557     -27.207  -2.992 -16.287  1.00 35.49     0.174 HD
ATOM     11  HH  ARG D 557     -29.894  -2.975 -18.113  1.00 35.49     0.174 HD
ATOM     12  HH  ARG D 557     -28.803  -3.854 -17.618  1.00 35.49     0.174 HD
ATOM     13  HE  ARG D 557     -29.960  -0.908 -17.680  1.00 35.49     0.178 HD
ENDBRANCH   4   5
ENDBRANCH   3   4
ENDBRANCH   2   3
ENDBRANCH   1   2
END_RES ARG D 557
BEGIN_RES GLU D 570
REMARK  3 active torsions:
REMARK  status: ('A' for Active; 'I' for Inactive)
REMARK    5  A    between atoms: CA   and  CB  
REMARK    6  A    between atoms: CB   and  CG  
REMARK    7  A    between atoms: CG   and  CD  
ROOT
ATOM     14  CA  GLU D 570     -18.033  -6.348 -13.375  1.00 32.92     0.160 C 
ENDROOT
BRANCH  14  15
ATOM     15  CB  GLU D 570     -19.500  -6.345 -13.794  1.00 32.92     0.043 C 
BRANCH  15  16
ATOM     16  CG  GLU D 570     -19.806  -6.036 -15.215  1.00 32.92     0.100 C 
BRANCH  16  17
ATOM     17  CD  GLU D 570     -21.130  -5.332 -15.393  1.00 32.92     0.185 C 
ATOM     18  OE1 GLU D 570     -21.796  -5.029 -14.384  1.00 32.92    -0.647 OA
ATOM     19  OE2 GLU D 570     -21.515  -5.095 -16.555  1.00 32.92    -0.647 OA
ENDBRANCH  16  17
ENDBRANCH  15  16
ENDBRANCH  14  15
END_RES GLU D 570
ENDMDL
MODEL 9
REMARK VINA RESULT:      -4.9      9.922     13.885
REMARK  1 active torsions:
REMARK  status: ('A' for Active; 'I' for Inactive)
REMARK    1  A    between atoms: C_7  and  O_9 
ROOT
HETATM    1  C   UNL     1     -20.785  -8.612   1.641  1.00  0.00     0.016 C 
HETATM    2  C   UNL     1     -21.346  -9.449   0.468  1.00  0.00    -0.034 C 
HETATM    3  C   UNL     1     -22.885  -9.627   0.487  1.00  0.00    -0.004 C 
HETATM    4  C   UNL     1     -23.412  -8.180   0.357  1.00  0.00     0.006 C 
HETATM    5  C   UNL     1     -22.385  -7.525  -0.587  1.00  0.00     0.013 C 
HETATM    6  C   UNL     1     -21.405  -8.696  -0.901  1.00  0.00    -0.011 C 
HETATM    7  C   UNL     1     -22.215  -9.648  -1.836  1.00  0.00     0.127 C 
HETATM    8  C   UNL     1     -23.186 -10.335  -0.860  1.00  0.00     0.038 C 
HETATM    9  C   UNL     1     -20.082  -8.220  -1.473  1.00  0.00     0.018 C 
HETATM   10  C   UNL     1     -20.568 -10.779   0.504  1.00  0.00     0.016 C 
ENDROOT
BRANCH   7  11
HETATM   11  O   UNL     1     -21.439 -10.585  -2.561  1.00  0.00    -0.395 OA
HETATM   12  H   UNL     1     -21.893 -10.817  -3.386  1.00  0.00     0.210 HD
ENDBRANCH   7  11
TORSDOF 1
BEGIN_RES ARG D 557
REMARK  4 active torsions:
REMARK  status: ('A' for Active; 'I' for Inactive)
REMARK    1  A    between atoms: CA   and  CB  
REMARK    2  A    between atoms: CB   and  CG  
REMARK    3  A    between atoms: CG   and  CD  
REMARK    4  A    between atoms: CD   and  NE  
REMARK       I    between atoms: NE   and  CZ  
REMARK       I    between atoms: CZ   and  NH1 
REMARK       I    between atoms: CZ   and  NH2 
ROOT
ATOM      1  CA  ARG D 557     -26.217   2.705 -17.014  1.00 35.49     0.159 C 
ENDROOT
BRANCH   1   2
ATOM      2  CB  ARG D 557     -26.789   1.319 -17.183  1.00 35.49     0.034 C 
BRANCH   2   3
ATOM      3  CG  ARG D 557     -28.235   1.225 -17.418  1.00 35.49     0.027 C 
BRANCH   3   4
ATOM      4  CD  ARG D 557     -28.899   0.288 -16.483  1.00 35.49     0.116 C 
BRANCH   4   5
ATOM      5  NE  ARG D 557     -29.298  -0.933 -17.131  1.00 35.49    -0.212 N 
ATOM      6  CZ  ARG D 557     -28.681  -2.089 -17.039  1.00 35.49     0.666 C 
ATOM      7  NH1 ARG D 557     -27.581  -2.251 -16.327  1.00 35.49    -0.235 N 
ATOM      8  NH2 ARG D 557     -29.197  -3.098 -17.679  1.00 35.49    -0.235 N 
ATOM      9  HH  ARG D 557     -27.225  -1.602 -15.896  1.00 35.49     0.174 HD
ATOM     10  HH  ARG D 557     -27.223  -3.029 -16.302  1.00 35.49     0.174 HD
ATOM     11  HH  ARG D 557     -29.912  -2.966 -18.125  1.00 35.49     0.174 HD
ATOM     12  HH  ARG D 557     -28.829  -3.861 -17.641  1.00 35.49     0.174 HD
ATOM     13  HE  ARG D 557     -29.957  -0.903 -17.669  1.00 35.49     0.178 HD
ENDBRANCH   4   5
ENDBRANCH   3   4
ENDBRANCH   2   3
ENDBRANCH   1   2
END_RES ARG D 557
BEGIN_RES GLU D 570
REMARK  3 active torsions:
REMARK  status: ('A' for Active; 'I' for Inactive)
REMARK    5  A    between atoms: CA   and  CB  
REMARK    6  A    between atoms: CB   and  CG  
REMARK    7  A    between atoms: CG   and  CD  
ROOT
ATOM     14  CA  GLU D 570     -18.033  -6.348 -13.375  1.00 32.92     0.160 C 
ENDROOT
BRANCH  14  15
ATOM     15  CB  GLU D 570     -19.500  -6.345 -13.794  1.00 32.92     0.043 C 
BRANCH  15  16
ATOM     16  CG  GLU D 570     -20.449  -5.565 -12.958  1.00 32.92     0.100 C 
BRANCH  16  17
ATOM     17  CD  GLU D 570     -21.701  -5.167 -13.704  1.00 32.92     0.185 C 
ATOM     18  OE1 GLU D 570     -21.725  -5.270 -14.945  1.00 32.92    -0.647 OA
ATOM     19  OE2 GLU D 570     -22.663  -4.732 -13.040  1.00 32.92    -0.647 OA
ENDBRANCH  16  17
ENDBRANCH  15  16
ENDBRANCH  14  15
END_RES GLU D 570
ENDMDL
