MODEL 1
REMARK VINA RESULT:      -6.8      0.000      0.000
REMARK  13 active torsions:
REMARK  status: ('A' for Active; 'I' for Inactive)
REMARK    1  A    between atoms: C_2  and  C_3 
REMARK    2  A    between atoms: C_3  and  C_4 
REMARK    3  A    between atoms: C_4  and  C_5 
REMARK    4  A    between atoms: C_5  and  C_6 
REMARK    5  A    between atoms: C_6  and  C_7 
REMARK    6  A    between atoms: C_7  and  C_8 
REMARK    7  A    between atoms: C_8  and  C_9 
REMARK    8  A    between atoms: C_9  and  C_10 
REMARK    9  A    between atoms: C_10  and  C_11 
REMARK   10  A    between atoms: C_11  and  C_12 
REMARK   11  A    between atoms: C_12  and  N_13 
REMARK   12  A    between atoms: N_13  and  C_16 
REMARK   13  A    between atoms: C_16  and  C_17 
ROOT
HETATM    1  C   UNL     1     -20.297  -4.266 -10.145  1.00  0.00     0.002 C 
ENDROOT
BRANCH   1   2
HETATM    2  C   UNL     1     -19.864  -4.397  -8.684  1.00  0.00     0.000 C 
BRANCH   2   3
HETATM    3  C   UNL     1     -21.000  -4.062  -7.722  1.00  0.00     0.000 C 
BRANCH   3   4
HETATM    4  C   UNL     1     -20.857  -4.804  -6.404  1.00  0.00     0.000 C 
BRANCH   4   5
HETATM    5  C   UNL     1     -21.031  -6.300  -6.636  1.00  0.00     0.000 C 
BRANCH   5   6
HETATM    6  C   UNL     1     -21.306  -7.018  -5.325  1.00  0.00     0.000 C 
BRANCH   6   7
HETATM    7  C   UNL     1     -21.309  -6.030  -4.164  1.00  0.00     0.000 C 
BRANCH   7   8
HETATM    8  C   UNL     1     -21.218  -6.768  -2.836  1.00  0.00    -0.000 C 
BRANCH   8   9
HETATM    9  C   UNL     1     -22.206  -6.198  -1.826  1.00  0.00    -0.005 C 
HETATM   10  C   UNL     1     -22.427  -7.166  -0.677  1.00  0.00     0.005 C 
ENDBRANCH   8   9
ENDBRANCH   7   8
ENDBRANCH   6   7
ENDBRANCH   5   6
ENDBRANCH   4   5
ENDBRANCH   3   4
ENDBRANCH   2   3
ENDBRANCH   1   2
BRANCH   1  11
HETATM   11  C   UNL     1     -21.724  -3.740 -10.339  1.00  0.00     0.028 C 
BRANCH  11  12
HETATM   12  C   UNL     1     -21.918  -3.040 -11.690  1.00  0.00     0.237 C 
BRANCH  12  13
HETATM   13  N   UNL     1     -23.171  -3.526 -12.431  1.00  0.00    -0.065 N 
HETATM   14  C   UNL     1     -23.061  -5.004 -12.769  1.00  0.00     0.272 C 
HETATM   15  C   UNL     1     -24.445  -3.214 -11.693  1.00  0.00     0.272 C 
BRANCH  13  16
HETATM   16  C   UNL     1     -23.218  -2.735 -13.819  1.00  0.00     0.349 C 
BRANCH  16  17
HETATM   17  C   UNL     1     -24.609  -2.560 -14.489  1.00  0.00     0.199 C 
HETATM   18  O   UNL     1     -25.001  -1.367 -14.569  1.00  0.00    -0.647 OA
HETATM   19  O   UNL     1     -25.083  -3.629 -14.969  1.00  0.00    -0.647 OA
ENDBRANCH  16  17
ENDBRANCH  13  16
ENDBRANCH  12  13
ENDBRANCH  11  12
ENDBRANCH   1  11
TORSDOF 13
BEGIN_RES ARG D 557
REMARK  4 active torsions:
REMARK  status: ('A' for Active; 'I' for Inactive)
REMARK    1  A    between atoms: CA   and  CB  
REMARK    2  A    between atoms: CB   and  CG  
REMARK    3  A    between atoms: CG   and  CD  
REMARK    4  A    between atoms: CD   and  NE  
REMARK       I    between atoms: NE   and  CZ  
REMARK       I    between atoms: CZ   and  NH1 
REMARK       I    between atoms: CZ   and  NH2 
ROOT
ATOM      1  CA  ARG D 557     -26.217   2.705 -17.014  1.00 35.49     0.159 C 
ENDROOT
BRANCH   1   2
ATOM      2  CB  ARG D 557     -26.789   1.319 -17.183  1.00 35.49     0.034 C 
BRANCH   2   3
ATOM      3  CG  ARG D 557     -28.233   1.226 -17.433  1.00 35.49     0.027 C 
BRANCH   3   4
ATOM      4  CD  ARG D 557     -28.909   0.302 -16.494  1.00 35.49     0.116 C 
BRANCH   4   5
ATOM      5  NE  ARG D 557     -29.306  -0.925 -17.133  1.00 35.49    -0.212 N 
ATOM      6  CZ  ARG D 557     -28.680  -2.077 -17.038  1.00 35.49     0.666 C 
ATOM      7  NH1 ARG D 557     -27.574  -2.228 -16.333  1.00 35.49    -0.235 N 
ATOM      8  NH2 ARG D 557     -29.194  -3.093 -17.668  1.00 35.49    -0.235 N 
ATOM      9  HH  ARG D 557     -27.219  -1.573 -15.908  1.00 35.49     0.174 HD
ATOM     10  HH  ARG D 557     -27.211  -3.003 -16.305  1.00 35.49     0.174 HD
ATOM     11  HH  ARG D 557     -29.913  -2.968 -18.110  1.00 35.49     0.174 HD
ATOM     12  HH  ARG D 557     -28.820  -3.854 -17.628  1.00 35.49     0.174 HD
ATOM     13  HE  ARG D 557     -29.968  -0.903 -17.666  1.00 35.49     0.178 HD
ENDBRANCH   4   5
ENDBRANCH   3   4
ENDBRANCH   2   3
ENDBRANCH   1   2
END_RES ARG D 557
BEGIN_RES GLU D 570
REMARK  3 active torsions:
REMARK  status: ('A' for Active; 'I' for Inactive)
REMARK    5  A    between atoms: CA   and  CB  
REMARK    6  A    between atoms: CB   and  CG  
REMARK    7  A    between atoms: CG   and  CD  
ROOT
ATOM     14  CA  GLU D 570     -18.033  -6.348 -13.375  1.00 32.92     0.160 C 
ENDROOT
BRANCH  14  15
ATOM     15  CB  GLU D 570     -19.500  -6.345 -13.794  1.00 32.92     0.043 C 
BRANCH  15  16
ATOM     16  CG  GLU D 570     -20.107  -7.648 -14.172  1.00 32.92     0.100 C 
BRANCH  16  17
ATOM     17  CD  GLU D 570     -20.807  -7.605 -15.510  1.00 32.92     0.185 C 
ATOM     18  OE1 GLU D 570     -21.400  -6.564 -15.850  1.00 32.92    -0.647 OA
ATOM     19  OE2 GLU D 570     -20.777  -8.631 -16.218  1.00 32.92    -0.647 OA
ENDBRANCH  16  17
ENDBRANCH  15  16
ENDBRANCH  14  15
END_RES GLU D 570
ENDMDL
MODEL 2
REMARK VINA RESULT:      -6.5      1.394      2.162
REMARK  13 active torsions:
REMARK  status: ('A' for Active; 'I' for Inactive)
REMARK    1  A    between atoms: C_2  and  C_3 
REMARK    2  A    between atoms: C_3  and  C_4 
REMARK    3  A    between atoms: C_4  and  C_5 
REMARK    4  A    between atoms: C_5  and  C_6 
REMARK    5  A    between atoms: C_6  and  C_7 
REMARK    6  A    between atoms: C_7  and  C_8 
REMARK    7  A    between atoms: C_8  and  C_9 
REMARK    8  A    between atoms: C_9  and  C_10 
REMARK    9  A    between atoms: C_10  and  C_11 
REMARK   10  A    between atoms: C_11  and  C_12 
REMARK   11  A    between atoms: C_12  and  N_13 
REMARK   12  A    between atoms: N_13  and  C_16 
REMARK   13  A    between atoms: C_16  and  C_17 
ROOT
HETATM    1  C   UNL     1     -22.788  -4.067  -8.122  1.00  0.00     0.002 C 
ENDROOT
BRANCH   1   2
HETATM    2  C   UNL     1     -22.344  -4.944  -6.951  1.00  0.00     0.000 C 
BRANCH   2   3
HETATM    3  C   UNL     1     -20.954  -4.563  -6.450  1.00  0.00     0.000 C 
BRANCH   3   4
HETATM    4  C   UNL     1     -20.385  -5.619  -5.516  1.00  0.00     0.000 C 
BRANCH   4   5
HETATM    5  C   UNL     1     -21.503  -6.204  -4.661  1.00  0.00     0.000 C 
BRANCH   5   6
HETATM    6  C   UNL     1     -21.243  -5.940  -3.187  1.00  0.00     0.000 C 
BRANCH   6   7
HETATM    7  C   UNL     1     -21.629  -7.154  -2.350  1.00  0.00     0.000 C 
BRANCH   7   8
HETATM    8  C   UNL     1     -22.313  -6.717  -1.061  1.00  0.00    -0.000 C 
BRANCH   8   9
HETATM    9  C   UNL     1     -22.708  -7.922  -0.217  1.00  0.00    -0.005 C 
HETATM   10  C   UNL     1     -21.642  -8.232   0.818  1.00  0.00     0.005 C 
ENDBRANCH   8   9
ENDBRANCH   7   8
ENDBRANCH   6   7
ENDBRANCH   5   6
ENDBRANCH   4   5
ENDBRANCH   3   4
ENDBRANCH   2   3
ENDBRANCH   1   2
BRANCH   1  11
HETATM   11  C   UNL     1     -22.196  -4.471  -9.478  1.00  0.00     0.028 C 
BRANCH  11  12
HETATM   12  C   UNL     1     -23.272  -4.718 -10.542  1.00  0.00     0.237 C 
BRANCH  12  13
HETATM   13  N   UNL     1     -23.074  -3.848 -11.792  1.00  0.00    -0.065 N 
HETATM   14  C   UNL     1     -24.351  -3.097 -12.135  1.00  0.00     0.272 C 
HETATM   15  C   UNL     1     -21.892  -2.922 -11.679  1.00  0.00     0.272 C 
BRANCH  13  16
HETATM   16  C   UNL     1     -22.783  -4.848 -13.005  1.00  0.00     0.349 C 
BRANCH  16  17
HETATM   17  C   UNL     1     -23.251  -4.403 -14.418  1.00  0.00     0.199 C 
HETATM   18  O   UNL     1     -24.345  -4.906 -14.785  1.00  0.00    -0.647 OA
HETATM   19  O   UNL     1     -22.530  -3.504 -14.936  1.00  0.00    -0.647 OA
ENDBRANCH  16  17
ENDBRANCH  13  16
ENDBRANCH  12  13
ENDBRANCH  11  12
ENDBRANCH   1  11
TORSDOF 13
BEGIN_RES ARG D 557
REMARK  4 active torsions:
REMARK  status: ('A' for Active; 'I' for Inactive)
REMARK    1  A    between atoms: CA   and  CB  
REMARK    2  A    between atoms: CB   and  CG  
REMARK    3  A    between atoms: CG   and  CD  
REMARK    4  A    between atoms: CD   and  NE  
REMARK       I    between atoms: NE   and  CZ  
REMARK       I    between atoms: CZ   and  NH1 
REMARK       I    between atoms: CZ   and  NH2 
ROOT
ATOM      1  CA  ARG D 557     -26.217   2.705 -17.014  1.00 35.49     0.159 C 
ENDROOT
BRANCH   1   2
ATOM      2  CB  ARG D 557     -26.789   1.319 -17.183  1.00 35.49     0.034 C 
BRANCH   2   3
ATOM      3  CG  ARG D 557     -28.213   1.149 -16.868  1.00 35.49     0.027 C 
BRANCH   3   4
ATOM      4  CD  ARG D 557     -28.596  -0.276 -16.739  1.00 35.49     0.116 C 
BRANCH   4   5
ATOM      5  NE  ARG D 557     -27.596  -1.046 -16.046  1.00 35.49    -0.212 N 
ATOM      6  CZ  ARG D 557     -27.451  -2.350 -16.111  1.00 35.49     0.666 C 
ATOM      7  NH1 ARG D 557     -28.245  -3.118 -16.834  1.00 35.49    -0.235 N 
ATOM      8  NH2 ARG D 557     -26.475  -2.879 -15.431  1.00 35.49    -0.235 N 
ATOM      9  HH  ARG D 557     -28.892  -2.791 -17.290  1.00 35.49     0.174 HD
ATOM     10  HH  ARG D 557     -28.100  -3.962 -16.840  1.00 35.49     0.174 HD
ATOM     11  HH  ARG D 557     -25.973  -2.358 -14.979  1.00 35.49     0.174 HD
ATOM     12  HH  ARG D 557     -26.347  -3.717 -15.451  1.00 35.49     0.174 HD
ATOM     13  HE  ARG D 557     -27.087  -0.639 -15.500  1.00 35.49     0.178 HD
ENDBRANCH   4   5
ENDBRANCH   3   4
ENDBRANCH   2   3
ENDBRANCH   1   2
END_RES ARG D 557
BEGIN_RES GLU D 570
REMARK  3 active torsions:
REMARK  status: ('A' for Active; 'I' for Inactive)
REMARK    5  A    between atoms: CA   and  CB  
REMARK    6  A    between atoms: CB   and  CG  
REMARK    7  A    between atoms: CG   and  CD  
ROOT
ATOM     14  CA  GLU D 570     -18.033  -6.348 -13.375  1.00 32.92     0.160 C 
ENDROOT
BRANCH  14  15
ATOM     15  CB  GLU D 570     -19.500  -6.345 -13.794  1.00 32.92     0.043 C 
BRANCH  15  16
ATOM     16  CG  GLU D 570     -19.798  -6.214 -15.244  1.00 32.92     0.100 C 
BRANCH  16  17
ATOM     17  CD  GLU D 570     -20.781  -7.248 -15.740  1.00 32.92     0.185 C 
ATOM     18  OE1 GLU D 570     -20.627  -8.439 -15.405  1.00 32.92    -0.647 OA
ATOM     19  OE2 GLU D 570     -21.705  -6.867 -16.484  1.00 32.92    -0.647 OA
ENDBRANCH  16  17
ENDBRANCH  15  16
ENDBRANCH  14  15
END_RES GLU D 570
ENDMDL
MODEL 3
REMARK VINA RESULT:      -6.4      4.191      8.607
REMARK  13 active torsions:
REMARK  status: ('A' for Active; 'I' for Inactive)
REMARK    1  A    between atoms: C_2  and  C_3 
REMARK    2  A    between atoms: C_3  and  C_4 
REMARK    3  A    between atoms: C_4  and  C_5 
REMARK    4  A    between atoms: C_5  and  C_6 
REMARK    5  A    between atoms: C_6  and  C_7 
REMARK    6  A    between atoms: C_7  and  C_8 
REMARK    7  A    between atoms: C_8  and  C_9 
REMARK    8  A    between atoms: C_9  and  C_10 
REMARK    9  A    between atoms: C_10  and  C_11 
REMARK   10  A    between atoms: C_11  and  C_12 
REMARK   11  A    between atoms: C_12  and  N_13 
REMARK   12  A    between atoms: N_13  and  C_16 
REMARK   13  A    between atoms: C_16  and  C_17 
ROOT
HETATM    1  C   UNL     1     -24.265  -5.526 -14.905  1.00  0.00     0.002 C 
ENDROOT
BRANCH   1   2
HETATM    2  C   UNL     1     -24.674  -6.862 -15.527  1.00  0.00     0.000 C 
BRANCH   2   3
HETATM    3  C   UNL     1     -26.175  -6.930 -15.793  1.00  0.00     0.000 C 
BRANCH   3   4
HETATM    4  C   UNL     1     -26.627  -5.830 -16.739  1.00  0.00     0.000 C 
BRANCH   4   5
HETATM    5  C   UNL     1     -27.896  -5.180 -16.200  1.00  0.00     0.000 C 
BRANCH   5   6
HETATM    6  C   UNL     1     -28.503  -4.248 -17.237  1.00  0.00     0.000 C 
BRANCH   6   7
HETATM    7  C   UNL     1     -29.554  -4.980 -18.064  1.00  0.00     0.000 C 
BRANCH   7   8
HETATM    8  C   UNL     1     -30.659  -5.519 -17.164  1.00  0.00    -0.000 C 
BRANCH   8   9
HETATM    9  C   UNL     1     -30.934  -6.988 -17.458  1.00  0.00    -0.005 C 
HETATM   10  C   UNL     1     -29.852  -7.576 -18.347  1.00  0.00     0.005 C 
ENDBRANCH   8   9
ENDBRANCH   7   8
ENDBRANCH   6   7
ENDBRANCH   5   6
ENDBRANCH   4   5
ENDBRANCH   3   4
ENDBRANCH   2   3
ENDBRANCH   1   2
BRANCH   1  11
HETATM   11  C   UNL     1     -23.513  -5.650 -13.574  1.00  0.00     0.028 C 
BRANCH  11  12
HETATM   12  C   UNL     1     -22.462  -4.550 -13.385  1.00  0.00     0.237 C 
BRANCH  12  13
HETATM   13  N   UNL     1     -22.455  -3.980 -11.959  1.00  0.00    -0.065 N 
HETATM   14  C   UNL     1     -21.179  -4.366 -11.228  1.00  0.00     0.272 C 
HETATM   15  C   UNL     1     -22.696  -2.495 -11.922  1.00  0.00     0.272 C 
BRANCH  13  16
HETATM   16  C   UNL     1     -23.665  -4.679 -11.181  1.00  0.00     0.349 C 
BRANCH  16  17
HETATM   17  C   UNL     1     -24.354  -3.857 -10.057  1.00  0.00     0.199 C 
HETATM   18  O   UNL     1     -23.713  -3.818  -8.975  1.00  0.00    -0.647 OA
HETATM   19  O   UNL     1     -25.392  -3.242 -10.436  1.00  0.00    -0.647 OA
ENDBRANCH  16  17
ENDBRANCH  13  16
ENDBRANCH  12  13
ENDBRANCH  11  12
ENDBRANCH   1  11
TORSDOF 13
BEGIN_RES ARG D 557
REMARK  4 active torsions:
REMARK  status: ('A' for Active; 'I' for Inactive)
REMARK    1  A    between atoms: CA   and  CB  
REMARK    2  A    between atoms: CB   and  CG  
REMARK    3  A    between atoms: CG   and  CD  
REMARK    4  A    between atoms: CD   and  NE  
REMARK       I    between atoms: NE   and  CZ  
REMARK       I    between atoms: CZ   and  NH1 
REMARK       I    between atoms: CZ   and  NH2 
ROOT
ATOM      1  CA  ARG D 557     -26.217   2.705 -17.014  1.00 35.49     0.159 C 
ENDROOT
BRANCH   1   2
ATOM      2  CB  ARG D 557     -26.789   1.319 -17.183  1.00 35.49     0.034 C 
BRANCH   2   3
ATOM      3  CG  ARG D 557     -26.168   0.247 -16.395  1.00 35.49     0.027 C 
BRANCH   3   4
ATOM      4  CD  ARG D 557     -26.950  -1.010 -16.438  1.00 35.49     0.116 C 
BRANCH   4   5
ATOM      5  NE  ARG D 557     -26.852  -1.751 -15.208  1.00 35.49    -0.212 N 
ATOM      6  CZ  ARG D 557     -25.736  -2.104 -14.611  1.00 35.49     0.666 C 
ATOM      7  NH1 ARG D 557     -24.546  -1.815 -15.104  1.00 35.49    -0.235 N 
ATOM      8  NH2 ARG D 557     -25.835  -2.756 -13.489  1.00 35.49    -0.235 N 
ATOM      9  HH  ARG D 557     -24.456  -1.385 -15.839  1.00 35.49     0.174 HD
ATOM     10  HH  ARG D 557     -23.852  -2.069 -14.669  1.00 35.49     0.174 HD
ATOM     11  HH  ARG D 557     -26.617  -2.922 -13.191  1.00 35.49     0.174 HD
ATOM     12  HH  ARG D 557     -25.137  -2.998 -13.072  1.00 35.49     0.174 HD
ATOM     13  HE  ARG D 557     -27.571  -2.042 -14.859  1.00 35.49     0.178 HD
ENDBRANCH   4   5
ENDBRANCH   3   4
ENDBRANCH   2   3
ENDBRANCH   1   2
END_RES ARG D 557
BEGIN_RES GLU D 570
REMARK  3 active torsions:
REMARK  status: ('A' for Active; 'I' for Inactive)
REMARK    5  A    between atoms: CA   and  CB  
REMARK    6  A    between atoms: CB   and  CG  
REMARK    7  A    between atoms: CG   and  CD  
ROOT
ATOM     14  CA  GLU D 570     -18.033  -6.348 -13.375  1.00 32.92     0.160 C 
ENDROOT
BRANCH  14  15
ATOM     15  CB  GLU D 570     -19.500  -6.345 -13.794  1.00 32.92     0.043 C 
BRANCH  15  16
ATOM     16  CG  GLU D 570     -20.085  -7.633 -14.248  1.00 32.92     0.100 C 
BRANCH  16  17
ATOM     17  CD  GLU D 570     -20.795  -7.521 -15.577  1.00 32.92     0.185 C 
ATOM     18  OE1 GLU D 570     -20.942  -6.397 -16.093  1.00 32.92    -0.647 OA
ATOM     19  OE2 GLU D 570     -21.225  -8.569 -16.100  1.00 32.92    -0.647 OA
ENDBRANCH  16  17
ENDBRANCH  15  16
ENDBRANCH  14  15
END_RES GLU D 570
ENDMDL
MODEL 4
REMARK VINA RESULT:      -6.1      3.833      6.594
REMARK  13 active torsions:
REMARK  status: ('A' for Active; 'I' for Inactive)
REMARK    1  A    between atoms: C_2  and  C_3 
REMARK    2  A    between atoms: C_3  and  C_4 
REMARK    3  A    between atoms: C_4  and  C_5 
REMARK    4  A    between atoms: C_5  and  C_6 
REMARK    5  A    between atoms: C_6  and  C_7 
REMARK    6  A    between atoms: C_7  and  C_8 
REMARK    7  A    between atoms: C_8  and  C_9 
REMARK    8  A    between atoms: C_9  and  C_10 
REMARK    9  A    between atoms: C_10  and  C_11 
REMARK   10  A    between atoms: C_11  and  C_12 
REMARK   11  A    between atoms: C_12  and  N_13 
REMARK   12  A    between atoms: N_13  and  C_16 
REMARK   13  A    between atoms: C_16  and  C_17 
ROOT
HETATM    1  C   UNL     1     -25.690  -6.770 -15.891  1.00  0.00     0.002 C 
ENDROOT
BRANCH   1   2
HETATM    2  C   UNL     1     -25.027  -5.654 -15.081  1.00  0.00     0.000 C 
BRANCH   2   3
HETATM    3  C   UNL     1     -23.784  -6.145 -14.347  1.00  0.00     0.000 C 
BRANCH   3   4
HETATM    4  C   UNL     1     -22.879  -4.993 -13.941  1.00  0.00     0.000 C 
BRANCH   4   5
HETATM    5  C   UNL     1     -22.836  -4.886 -12.421  1.00  0.00     0.000 C 
BRANCH   5   6
HETATM    6  C   UNL     1     -21.623  -4.086 -11.975  1.00  0.00     0.000 C 
BRANCH   6   7
HETATM    7  C   UNL     1     -21.549  -4.030 -10.454  1.00  0.00     0.000 C 
BRANCH   7   8
HETATM    8  C   UNL     1     -22.757  -4.723  -9.836  1.00  0.00    -0.000 C 
BRANCH   8   9
HETATM    9  C   UNL     1     -23.555  -3.757  -8.970  1.00  0.00    -0.005 C 
HETATM   10  C   UNL     1     -24.817  -3.304  -9.683  1.00  0.00     0.005 C 
ENDBRANCH   8   9
ENDBRANCH   7   8
ENDBRANCH   6   7
ENDBRANCH   5   6
ENDBRANCH   4   5
ENDBRANCH   3   4
ENDBRANCH   2   3
ENDBRANCH   1   2
BRANCH   1  11
HETATM   11  C   UNL     1     -27.216  -6.663 -15.987  1.00  0.00     0.028 C 
BRANCH  11  12
HETATM   12  C   UNL     1     -27.687  -6.127 -17.344  1.00  0.00     0.237 C 
BRANCH  12  13
HETATM   13  N   UNL     1     -29.211  -5.948 -17.411  1.00  0.00    -0.065 N 
HETATM   14  C   UNL     1     -29.864  -7.130 -18.109  1.00  0.00     0.272 C 
HETATM   15  C   UNL     1     -29.828  -5.682 -16.064  1.00  0.00     0.272 C 
BRANCH  13  16
HETATM   16  C   UNL     1     -29.481  -4.663 -18.322  1.00  0.00     0.349 C 
BRANCH  16  17
HETATM   17  C   UNL     1     -29.712  -3.312 -17.590  1.00  0.00     0.199 C 
HETATM   18  O   UNL     1     -30.922  -2.997 -17.451  1.00  0.00    -0.647 OA
HETATM   19  O   UNL     1     -28.655  -2.792 -17.131  1.00  0.00    -0.647 OA
ENDBRANCH  16  17
ENDBRANCH  13  16
ENDBRANCH  12  13
ENDBRANCH  11  12
ENDBRANCH   1  11
TORSDOF 13
BEGIN_RES ARG D 557
REMARK  4 active torsions:
REMARK  status: ('A' for Active; 'I' for Inactive)
REMARK    1  A    between atoms: CA   and  CB  
REMARK    2  A    between atoms: CB   and  CG  
REMARK    3  A    between atoms: CG   and  CD  
REMARK    4  A    between atoms: CD   and  NE  
REMARK       I    between atoms: NE   and  CZ  
REMARK       I    between atoms: CZ   and  NH1 
REMARK       I    between atoms: CZ   and  NH2 
ROOT
ATOM      1  CA  ARG D 557     -26.217   2.705 -17.014  1.00 35.49     0.159 C 
ENDROOT
BRANCH   1   2
ATOM      2  CB  ARG D 557     -26.789   1.319 -17.183  1.00 35.49     0.034 C 
BRANCH   2   3
ATOM      3  CG  ARG D 557     -25.833   0.205 -17.179  1.00 35.49     0.027 C 
BRANCH   3   4
ATOM      4  CD  ARG D 557     -24.721   0.419 -16.225  1.00 35.49     0.116 C 
BRANCH   4   5
ATOM      5  NE  ARG D 557     -24.866  -0.380 -15.036  1.00 35.49    -0.212 N 
ATOM      6  CZ  ARG D 557     -24.071  -1.360 -14.668  1.00 35.49     0.666 C 
ATOM      7  NH1 ARG D 557     -23.028  -1.735 -15.386  1.00 35.49    -0.235 N 
ATOM      8  NH2 ARG D 557     -24.341  -1.962 -13.547  1.00 35.49    -0.235 N 
ATOM      9  HH  ARG D 557     -22.831  -1.351 -16.126  1.00 35.49     0.174 HD
ATOM     10  HH  ARG D 557     -22.544  -2.379 -15.094  1.00 35.49     0.174 HD
ATOM     11  HH  ARG D 557     -25.017  -1.694 -13.100  1.00 35.49     0.174 HD
ATOM     12  HH  ARG D 557     -23.849  -2.597 -13.274  1.00 35.49     0.174 HD
ATOM     13  HE  ARG D 557     -25.553  -0.254 -14.552  1.00 35.49     0.178 HD
ENDBRANCH   4   5
ENDBRANCH   3   4
ENDBRANCH   2   3
ENDBRANCH   1   2
END_RES ARG D 557
BEGIN_RES GLU D 570
REMARK  3 active torsions:
REMARK  status: ('A' for Active; 'I' for Inactive)
REMARK    5  A    between atoms: CA   and  CB  
REMARK    6  A    between atoms: CB   and  CG  
REMARK    7  A    between atoms: CG   and  CD  
ROOT
ATOM     14  CA  GLU D 570     -18.033  -6.348 -13.375  1.00 32.92     0.160 C 
ENDROOT
BRANCH  14  15
ATOM     15  CB  GLU D 570     -19.500  -6.345 -13.794  1.00 32.92     0.043 C 
BRANCH  15  16
ATOM     16  CG  GLU D 570     -19.797  -6.227 -15.245  1.00 32.92     0.100 C 
BRANCH  16  17
ATOM     17  CD  GLU D 570     -20.639  -7.367 -15.769  1.00 32.92     0.185 C 
ATOM     18  OE1 GLU D 570     -21.350  -7.182 -16.775  1.00 32.92    -0.647 OA
ATOM     19  OE2 GLU D 570     -20.600  -8.452 -15.156  1.00 32.92    -0.647 OA
ENDBRANCH  16  17
ENDBRANCH  15  16
ENDBRANCH  14  15
END_RES GLU D 570
ENDMDL
MODEL 5
REMARK VINA RESULT:      -6.0      3.443      6.458
REMARK  13 active torsions:
REMARK  status: ('A' for Active; 'I' for Inactive)
REMARK    1  A    between atoms: C_2  and  C_3 
REMARK    2  A    between atoms: C_3  and  C_4 
REMARK    3  A    between atoms: C_4  and  C_5 
REMARK    4  A    between atoms: C_5  and  C_6 
REMARK    5  A    between atoms: C_6  and  C_7 
REMARK    6  A    between atoms: C_7  and  C_8 
REMARK    7  A    between atoms: C_8  and  C_9 
REMARK    8  A    between atoms: C_9  and  C_10 
REMARK    9  A    between atoms: C_10  and  C_11 
REMARK   10  A    between atoms: C_11  and  C_12 
REMARK   11  A    between atoms: C_12  and  N_13 
REMARK   12  A    between atoms: N_13  and  C_16 
REMARK   13  A    between atoms: C_16  and  C_17 
ROOT
HETATM    1  C   UNL     1     -24.792  -6.863 -15.897  1.00  0.00     0.002 C 
ENDROOT
BRANCH   1   2
HETATM    2  C   UNL     1     -24.125  -6.499 -14.569  1.00  0.00     0.000 C 
BRANCH   2   3
HETATM    3  C   UNL     1     -23.405  -5.157 -14.643  1.00  0.00     0.000 C 
BRANCH   3   4
HETATM    4  C   UNL     1     -22.585  -4.889 -13.392  1.00  0.00     0.000 C 
BRANCH   4   5
HETATM    5  C   UNL     1     -23.474  -5.016 -12.160  1.00  0.00     0.000 C 
BRANCH   5   6
HETATM    6  C   UNL     1     -22.764  -4.475 -10.929  1.00  0.00     0.000 C 
BRANCH   6   7
HETATM    7  C   UNL     1     -21.416  -3.875 -11.309  1.00  0.00     0.000 C 
BRANCH   7   8
HETATM    8  C   UNL     1     -20.315  -4.431 -10.416  1.00  0.00    -0.000 C 
BRANCH   8   9
HETATM    9  C   UNL     1     -20.607  -4.147  -8.949  1.00  0.00    -0.005 C 
HETATM   10  C   UNL     1     -20.093  -5.269  -8.065  1.00  0.00     0.005 C 
ENDBRANCH   8   9
ENDBRANCH   7   8
ENDBRANCH   6   7
ENDBRANCH   5   6
ENDBRANCH   4   5
ENDBRANCH   3   4
ENDBRANCH   2   3
ENDBRANCH   1   2
BRANCH   1  11
HETATM   11  C   UNL     1     -26.322  -6.755 -15.889  1.00  0.00     0.028 C 
BRANCH  11  12
HETATM   12  C   UNL     1     -26.864  -5.959 -17.082  1.00  0.00     0.237 C 
BRANCH  12  13
HETATM   13  N   UNL     1     -28.283  -5.426 -16.840  1.00  0.00    -0.065 N 
HETATM   14  C   UNL     1     -28.831  -5.930 -15.515  1.00  0.00     0.272 C 
HETATM   15  C   UNL     1     -28.372  -3.927 -16.950  1.00  0.00     0.272 C 
BRANCH  13  16
HETATM   16  C   UNL     1     -29.206  -6.045 -17.989  1.00  0.00     0.349 C 
BRANCH  16  17
HETATM   17  C   UNL     1     -30.194  -7.171 -17.575  1.00  0.00     0.199 C 
HETATM   18  O   UNL     1     -29.658  -8.298 -17.411  1.00  0.00    -0.647 OA
HETATM   19  O   UNL     1     -31.367  -6.761 -17.339  1.00  0.00    -0.647 OA
ENDBRANCH  16  17
ENDBRANCH  13  16
ENDBRANCH  12  13
ENDBRANCH  11  12
ENDBRANCH   1  11
TORSDOF 13
BEGIN_RES ARG D 557
REMARK  4 active torsions:
REMARK  status: ('A' for Active; 'I' for Inactive)
REMARK    1  A    between atoms: CA   and  CB  
REMARK    2  A    between atoms: CB   and  CG  
REMARK    3  A    between atoms: CG   and  CD  
REMARK    4  A    between atoms: CD   and  NE  
REMARK       I    between atoms: NE   and  CZ  
REMARK       I    between atoms: CZ   and  NH1 
REMARK       I    between atoms: CZ   and  NH2 
ROOT
ATOM      1  CA  ARG D 557     -26.217   2.705 -17.014  1.00 35.49     0.159 C 
ENDROOT
BRANCH   1   2
ATOM      2  CB  ARG D 557     -26.789   1.319 -17.183  1.00 35.49     0.034 C 
BRANCH   2   3
ATOM      3  CG  ARG D 557     -25.832   0.206 -17.194  1.00 35.49     0.027 C 
BRANCH   3   4
ATOM      4  CD  ARG D 557     -24.678   0.445 -16.297  1.00 35.49     0.116 C 
BRANCH   4   5
ATOM      5  NE  ARG D 557     -24.775  -0.312 -15.077  1.00 35.49    -0.212 N 
ATOM      6  CZ  ARG D 557     -23.964  -1.278 -14.706  1.00 35.49     0.666 C 
ATOM      7  NH1 ARG D 557     -22.948  -1.676 -15.450  1.00 35.49    -0.235 N 
ATOM      8  NH2 ARG D 557     -24.189  -1.842 -13.555  1.00 35.49    -0.235 N 
ATOM      9  HH  ARG D 557     -22.780  -1.318 -16.210  1.00 35.49     0.174 HD
ATOM     10  HH  ARG D 557     -22.452  -2.309 -15.155  1.00 35.49     0.174 HD
ATOM     11  HH  ARG D 557     -24.847  -1.559 -13.092  1.00 35.49     0.174 HD
ATOM     12  HH  ARG D 557     -23.685  -2.466 -13.280  1.00 35.49     0.174 HD
ATOM     13  HE  ARG D 557     -25.443  -0.171 -14.571  1.00 35.49     0.178 HD
ENDBRANCH   4   5
ENDBRANCH   3   4
ENDBRANCH   2   3
ENDBRANCH   1   2
END_RES ARG D 557
BEGIN_RES GLU D 570
REMARK  3 active torsions:
REMARK  status: ('A' for Active; 'I' for Inactive)
REMARK    5  A    between atoms: CA   and  CB  
REMARK    6  A    between atoms: CB   and  CG  
REMARK    7  A    between atoms: CG   and  CD  
ROOT
ATOM     14  CA  GLU D 570     -18.033  -6.348 -13.375  1.00 32.92     0.160 C 
ENDROOT
BRANCH  14  15
ATOM     15  CB  GLU D 570     -19.500  -6.345 -13.794  1.00 32.92     0.043 C 
BRANCH  15  16
ATOM     16  CG  GLU D 570     -19.797  -6.229 -15.245  1.00 32.92     0.100 C 
BRANCH  16  17
ATOM     17  CD  GLU D 570     -20.639  -7.370 -15.767  1.00 32.92     0.185 C 
ATOM     18  OE1 GLU D 570     -21.323  -7.197 -16.794  1.00 32.92    -0.647 OA
ATOM     19  OE2 GLU D 570     -20.628  -8.443 -15.132  1.00 32.92    -0.647 OA
ENDBRANCH  16  17
ENDBRANCH  15  16
ENDBRANCH  14  15
END_RES GLU D 570
ENDMDL
MODEL 6
REMARK VINA RESULT:      -6.0      1.570      2.268
REMARK  13 active torsions:
REMARK  status: ('A' for Active; 'I' for Inactive)
REMARK    1  A    between atoms: C_2  and  C_3 
REMARK    2  A    between atoms: C_3  and  C_4 
REMARK    3  A    between atoms: C_4  and  C_5 
REMARK    4  A    between atoms: C_5  and  C_6 
REMARK    5  A    between atoms: C_6  and  C_7 
REMARK    6  A    between atoms: C_7  and  C_8 
REMARK    7  A    between atoms: C_8  and  C_9 
REMARK    8  A    between atoms: C_9  and  C_10 
REMARK    9  A    between atoms: C_10  and  C_11 
REMARK   10  A    between atoms: C_11  and  C_12 
REMARK   11  A    between atoms: C_12  and  N_13 
REMARK   12  A    between atoms: N_13  and  C_16 
REMARK   13  A    between atoms: C_16  and  C_17 
ROOT
HETATM    1  C   UNL     1     -19.953  -3.971  -8.342  1.00  0.00     0.002 C 
ENDROOT
BRANCH   1   2
HETATM    2  C   UNL     1     -19.524  -4.864  -7.176  1.00  0.00     0.000 C 
BRANCH   2   3
HETATM    3  C   UNL     1     -20.458  -6.056  -6.999  1.00  0.00     0.000 C 
BRANCH   3   4
HETATM    4  C   UNL     1     -20.378  -6.628  -5.592  1.00  0.00     0.000 C 
BRANCH   4   5
HETATM    5  C   UNL     1     -21.657  -6.298  -4.832  1.00  0.00     0.000 C 
BRANCH   5   6
HETATM    6  C   UNL     1     -21.403  -6.297  -3.333  1.00  0.00     0.000 C 
BRANCH   6   7
HETATM    7  C   UNL     1     -21.489  -7.712  -2.774  1.00  0.00     0.000 C 
BRANCH   7   8
HETATM    8  C   UNL     1     -21.043  -7.737  -1.318  1.00  0.00    -0.000 C 
BRANCH   8   9
HETATM    9  C   UNL     1     -22.189  -7.356  -0.390  1.00  0.00    -0.005 C 
HETATM   10  C   UNL     1     -22.905  -8.592   0.125  1.00  0.00     0.005 C 
ENDBRANCH   8   9
ENDBRANCH   7   8
ENDBRANCH   6   7
ENDBRANCH   5   6
ENDBRANCH   4   5
ENDBRANCH   3   4
ENDBRANCH   2   3
ENDBRANCH   1   2
BRANCH   1  11
HETATM   11  C   UNL     1     -21.125  -4.522  -9.164  1.00  0.00     0.028 C 
BRANCH  11  12
HETATM   12  C   UNL     1     -20.870  -4.454 -10.674  1.00  0.00     0.237 C 
BRANCH  12  13
HETATM   13  N   UNL     1     -22.111  -4.011 -11.462  1.00  0.00    -0.065 N 
HETATM   14  C   UNL     1     -22.118  -2.504 -11.657  1.00  0.00     0.272 C 
HETATM   15  C   UNL     1     -22.270  -4.747 -12.766  1.00  0.00     0.272 C 
BRANCH  13  16
HETATM   16  C   UNL     1     -23.380  -4.368 -10.556  1.00  0.00     0.349 C 
BRANCH  16  17
HETATM   17  C   UNL     1     -24.581  -3.383 -10.600  1.00  0.00     0.199 C 
HETATM   18  O   UNL     1     -24.843  -2.834  -9.499  1.00  0.00    -0.647 OA
HETATM   19  O   UNL     1     -25.035  -3.183 -11.763  1.00  0.00    -0.647 OA
ENDBRANCH  16  17
ENDBRANCH  13  16
ENDBRANCH  12  13
ENDBRANCH  11  12
ENDBRANCH   1  11
TORSDOF 13
BEGIN_RES ARG D 557
REMARK  4 active torsions:
REMARK  status: ('A' for Active; 'I' for Inactive)
REMARK    1  A    between atoms: CA   and  CB  
REMARK    2  A    between atoms: CB   and  CG  
REMARK    3  A    between atoms: CG   and  CD  
REMARK    4  A    between atoms: CD   and  NE  
REMARK       I    between atoms: NE   and  CZ  
REMARK       I    between atoms: CZ   and  NH1 
REMARK       I    between atoms: CZ   and  NH2 
ROOT
ATOM      1  CA  ARG D 557     -26.217   2.705 -17.014  1.00 35.49     0.159 C 
ENDROOT
BRANCH   1   2
ATOM      2  CB  ARG D 557     -26.789   1.319 -17.183  1.00 35.49     0.034 C 
BRANCH   2   3
ATOM      3  CG  ARG D 557     -28.156   1.104 -16.694  1.00 35.49     0.027 C 
BRANCH   3   4
ATOM      4  CD  ARG D 557     -28.794  -0.084 -17.304  1.00 35.49     0.116 C 
BRANCH   4   5
ATOM      5  NE  ARG D 557     -28.183  -1.312 -16.867  1.00 35.49    -0.212 N 
ATOM      6  CZ  ARG D 557     -28.670  -2.519 -17.048  1.00 35.49     0.666 C 
ATOM      7  NH1 ARG D 557     -29.820  -2.736 -17.660  1.00 35.49    -0.235 N 
ATOM      8  NH2 ARG D 557     -27.970  -3.522 -16.603  1.00 35.49    -0.235 N 
ATOM      9  HH  ARG D 557     -30.296  -2.091 -17.963  1.00 35.49     0.174 HD
ATOM     10  HH  ARG D 557     -30.086  -3.545 -17.751  1.00 35.49     0.174 HD
ATOM     11  HH  ARG D 557     -27.228  -3.353 -16.219  1.00 35.49     0.174 HD
ATOM     12  HH  ARG D 557     -28.250  -4.316 -16.705  1.00 35.49     0.174 HD
ATOM     13  HE  ARG D 557     -27.474  -1.261 -16.400  1.00 35.49     0.178 HD
ENDBRANCH   4   5
ENDBRANCH   3   4
ENDBRANCH   2   3
ENDBRANCH   1   2
END_RES ARG D 557
BEGIN_RES GLU D 570
REMARK  3 active torsions:
REMARK  status: ('A' for Active; 'I' for Inactive)
REMARK    5  A    between atoms: CA   and  CB  
REMARK    6  A    between atoms: CB   and  CG  
REMARK    7  A    between atoms: CG   and  CD  
ROOT
ATOM     14  CA  GLU D 570     -18.033  -6.348 -13.375  1.00 32.92     0.160 C 
ENDROOT
BRANCH  14  15
ATOM     15  CB  GLU D 570     -19.500  -6.345 -13.794  1.00 32.92     0.043 C 
BRANCH  15  16
ATOM     16  CG  GLU D 570     -19.798  -6.214 -15.244  1.00 32.92     0.100 C 
BRANCH  16  17
ATOM     17  CD  GLU D 570     -20.649  -7.343 -15.775  1.00 32.92     0.185 C 
ATOM     18  OE1 GLU D 570     -21.402  -7.129 -16.744  1.00 32.92    -0.647 OA
ATOM     19  OE2 GLU D 570     -20.574  -8.450 -15.205  1.00 32.92    -0.647 OA
ENDBRANCH  16  17
ENDBRANCH  15  16
ENDBRANCH  14  15
END_RES GLU D 570
ENDMDL
MODEL 7
REMARK VINA RESULT:      -6.0      3.449      6.453
REMARK  13 active torsions:
REMARK  status: ('A' for Active; 'I' for Inactive)
REMARK    1  A    between atoms: C_2  and  C_3 
REMARK    2  A    between atoms: C_3  and  C_4 
REMARK    3  A    between atoms: C_4  and  C_5 
REMARK    4  A    between atoms: C_5  and  C_6 
REMARK    5  A    between atoms: C_6  and  C_7 
REMARK    6  A    between atoms: C_7  and  C_8 
REMARK    7  A    between atoms: C_8  and  C_9 
REMARK    8  A    between atoms: C_9  and  C_10 
REMARK    9  A    between atoms: C_10  and  C_11 
REMARK   10  A    between atoms: C_11  and  C_12 
REMARK   11  A    between atoms: C_12  and  N_13 
REMARK   12  A    between atoms: N_13  and  C_16 
REMARK   13  A    between atoms: C_16  and  C_17 
ROOT
HETATM    1  C   UNL     1     -24.620  -6.706 -15.491  1.00  0.00     0.002 C 
ENDROOT
BRANCH   1   2
HETATM    2  C   UNL     1     -24.491  -5.449 -14.630  1.00  0.00     0.000 C 
BRANCH   2   3
HETATM    3  C   UNL     1     -23.143  -5.382 -13.920  1.00  0.00     0.000 C 
BRANCH   3   4
HETATM    4  C   UNL     1     -22.410  -4.086 -14.228  1.00  0.00     0.000 C 
BRANCH   4   5
HETATM    5  C   UNL     1     -23.158  -2.914 -13.604  1.00  0.00     0.000 C 
BRANCH   5   6
HETATM    6  C   UNL     1     -22.854  -2.814 -12.118  1.00  0.00     0.000 C 
BRANCH   6   7
HETATM    7  C   UNL     1     -24.090  -3.157 -11.294  1.00  0.00     0.000 C 
BRANCH   7   8
HETATM    8  C   UNL     1     -23.771  -4.255 -10.288  1.00  0.00    -0.000 C 
BRANCH   8   9
HETATM    9  C   UNL     1     -22.915  -3.719  -9.148  1.00  0.00    -0.005 C 
HETATM   10  C   UNL     1     -21.899  -4.755  -8.700  1.00  0.00     0.005 C 
ENDBRANCH   8   9
ENDBRANCH   7   8
ENDBRANCH   6   7
ENDBRANCH   5   6
ENDBRANCH   4   5
ENDBRANCH   3   4
ENDBRANCH   2   3
ENDBRANCH   1   2
BRANCH   1  11
HETATM   11  C   UNL     1     -25.814  -6.696 -16.454  1.00  0.00     0.028 C 
BRANCH  11  12
HETATM   12  C   UNL     1     -27.136  -7.045 -15.760  1.00  0.00     0.237 C 
BRANCH  12  13
HETATM   13  N   UNL     1     -28.362  -6.580 -16.559  1.00  0.00    -0.065 N 
HETATM   14  C   UNL     1     -29.260  -5.698 -15.706  1.00  0.00     0.272 C 
HETATM   15  C   UNL     1     -27.995  -5.916 -17.859  1.00  0.00     0.272 C 
BRANCH  13  16
HETATM   16  C   UNL     1     -29.202  -7.893 -16.913  1.00  0.00     0.349 C 
BRANCH  16  17
HETATM   17  C   UNL     1     -30.240  -7.780 -18.064  1.00  0.00     0.199 C 
HETATM   18  O   UNL     1     -31.160  -6.947 -17.853  1.00  0.00    -0.647 OA
HETATM   19  O   UNL     1     -29.937  -8.448 -19.094  1.00  0.00    -0.647 OA
ENDBRANCH  16  17
ENDBRANCH  13  16
ENDBRANCH  12  13
ENDBRANCH  11  12
ENDBRANCH   1  11
TORSDOF 13
BEGIN_RES ARG D 557
REMARK  4 active torsions:
REMARK  status: ('A' for Active; 'I' for Inactive)
REMARK    1  A    between atoms: CA   and  CB  
REMARK    2  A    between atoms: CB   and  CG  
REMARK    3  A    between atoms: CG   and  CD  
REMARK    4  A    between atoms: CD   and  NE  
REMARK       I    between atoms: NE   and  CZ  
REMARK       I    between atoms: CZ   and  NH1 
REMARK       I    between atoms: CZ   and  NH2 
ROOT
ATOM      1  CA  ARG D 557     -26.217   2.705 -17.014  1.00 35.49     0.159 C 
ENDROOT
BRANCH   1   2
ATOM      2  CB  ARG D 557     -26.789   1.319 -17.183  1.00 35.49     0.034 C 
BRANCH   2   3
ATOM      3  CG  ARG D 557     -28.234   1.225 -17.423  1.00 35.49     0.027 C 
BRANCH   3   4
ATOM      4  CD  ARG D 557     -28.892   0.244 -16.531  1.00 35.49     0.116 C 
BRANCH   4   5
ATOM      5  NE  ARG D 557     -27.997  -0.808 -16.127  1.00 35.49    -0.212 N 
ATOM      6  CZ  ARG D 557     -28.045  -2.056 -16.535  1.00 35.49     0.666 C 
ATOM      7  NH1 ARG D 557     -28.963  -2.492 -17.377  1.00 35.49    -0.235 N 
ATOM      8  NH2 ARG D 557     -27.138  -2.872 -16.081  1.00 35.49    -0.235 N 
ATOM      9  HH  ARG D 557     -29.569  -1.973 -17.690  1.00 35.49     0.174 HD
ATOM     10  HH  ARG D 557     -28.944  -3.317 -17.610  1.00 35.49     0.174 HD
ATOM     11  HH  ARG D 557     -26.552  -2.560 -15.544  1.00 35.49     0.174 HD
ATOM     12  HH  ARG D 557     -27.134  -3.684 -16.325  1.00 35.49     0.174 HD
ATOM     13  HE  ARG D 557     -27.418  -0.632 -15.530  1.00 35.49     0.178 HD
ENDBRANCH   4   5
ENDBRANCH   3   4
ENDBRANCH   2   3
ENDBRANCH   1   2
END_RES ARG D 557
BEGIN_RES GLU D 570
REMARK  3 active torsions:
REMARK  status: ('A' for Active; 'I' for Inactive)
REMARK    5  A    between atoms: CA   and  CB  
REMARK    6  A    between atoms: CB   and  CG  
REMARK    7  A    between atoms: CG   and  CD  
ROOT
ATOM     14  CA  GLU D 570     -18.033  -6.348 -13.375  1.00 32.92     0.160 C 
ENDROOT
BRANCH  14  15
ATOM     15  CB  GLU D 570     -19.500  -6.345 -13.794  1.00 32.92     0.043 C 
BRANCH  15  16
ATOM     16  CG  GLU D 570     -20.087  -7.635 -14.242  1.00 32.92     0.100 C 
BRANCH  16  17
ATOM     17  CD  GLU D 570     -20.710  -7.553 -15.616  1.00 32.92     0.185 C 
ATOM     18  OE1 GLU D 570     -21.278  -8.559 -16.083  1.00 32.92    -0.647 OA
ATOM     19  OE2 GLU D 570     -20.614  -6.477 -16.238  1.00 32.92    -0.647 OA
ENDBRANCH  16  17
ENDBRANCH  15  16
ENDBRANCH  14  15
END_RES GLU D 570
ENDMDL
MODEL 8
REMARK VINA RESULT:      -5.9      3.651      6.708
REMARK  13 active torsions:
REMARK  status: ('A' for Active; 'I' for Inactive)
REMARK    1  A    between atoms: C_2  and  C_3 
REMARK    2  A    between atoms: C_3  and  C_4 
REMARK    3  A    between atoms: C_4  and  C_5 
REMARK    4  A    between atoms: C_5  and  C_6 
REMARK    5  A    between atoms: C_6  and  C_7 
REMARK    6  A    between atoms: C_7  and  C_8 
REMARK    7  A    between atoms: C_8  and  C_9 
REMARK    8  A    between atoms: C_9  and  C_10 
REMARK    9  A    between atoms: C_10  and  C_11 
REMARK   10  A    between atoms: C_11  and  C_12 
REMARK   11  A    between atoms: C_12  and  N_13 
REMARK   12  A    between atoms: N_13  and  C_16 
REMARK   13  A    between atoms: C_16  and  C_17 
ROOT
HETATM    1  C   UNL     1     -25.947  -5.892 -15.657  1.00  0.00     0.002 C 
ENDROOT
BRANCH   1   2
HETATM    2  C   UNL     1     -24.633  -6.669 -15.563  1.00  0.00     0.000 C 
BRANCH   2   3
HETATM    3  C   UNL     1     -23.808  -6.248 -14.351  1.00  0.00     0.000 C 
BRANCH   3   4
HETATM    4  C   UNL     1     -23.149  -4.894 -14.564  1.00  0.00     0.000 C 
BRANCH   4   5
HETATM    5  C   UNL     1     -23.426  -3.995 -13.365  1.00  0.00     0.000 C 
BRANCH   5   6
HETATM    6  C   UNL     1     -23.367  -4.793 -12.072  1.00  0.00     0.000 C 
BRANCH   6   7
HETATM    7  C   UNL     1     -22.737  -3.963 -10.960  1.00  0.00     0.000 C 
BRANCH   7   8
HETATM    8  C   UNL     1     -21.343  -3.501 -11.365  1.00  0.00    -0.000 C 
BRANCH   8   9
HETATM    9  C   UNL     1     -20.272  -4.391 -10.748  1.00  0.00    -0.005 C 
HETATM   10  C   UNL     1     -20.467  -4.515  -9.248  1.00  0.00     0.005 C 
ENDBRANCH   8   9
ENDBRANCH   7   8
ENDBRANCH   6   7
ENDBRANCH   5   6
ENDBRANCH   4   5
ENDBRANCH   3   4
ENDBRANCH   2   3
ENDBRANCH   1   2
BRANCH   1  11
HETATM   11  C   UNL     1     -26.862  -6.329 -16.807  1.00  0.00     0.028 C 
BRANCH  11  12
HETATM   12  C   UNL     1     -28.222  -6.842 -16.318  1.00  0.00     0.237 C 
BRANCH  12  13
HETATM   13  N   UNL     1     -29.389  -6.315 -17.164  1.00  0.00    -0.065 N 
HETATM   14  C   UNL     1     -28.878  -5.518 -18.354  1.00  0.00     0.272 C 
HETATM   15  C   UNL     1     -30.344  -7.400 -17.585  1.00  0.00     0.272 C 
BRANCH  13  16
HETATM   16  C   UNL     1     -30.203  -5.296 -16.238  1.00  0.00     0.349 C 
BRANCH  16  17
HETATM   17  C   UNL     1     -31.280  -4.416 -16.930  1.00  0.00     0.199 C 
HETATM   18  O   UNL     1     -30.853  -3.311 -17.355  1.00  0.00    -0.647 OA
HETATM   19  O   UNL     1     -32.395  -4.993 -17.077  1.00  0.00    -0.647 OA
ENDBRANCH  16  17
ENDBRANCH  13  16
ENDBRANCH  12  13
ENDBRANCH  11  12
ENDBRANCH   1  11
TORSDOF 13
BEGIN_RES ARG D 557
REMARK  4 active torsions:
REMARK  status: ('A' for Active; 'I' for Inactive)
REMARK    1  A    between atoms: CA   and  CB  
REMARK    2  A    between atoms: CB   and  CG  
REMARK    3  A    between atoms: CG   and  CD  
REMARK    4  A    between atoms: CD   and  NE  
REMARK       I    between atoms: NE   and  CZ  
REMARK       I    between atoms: CZ   and  NH1 
REMARK       I    between atoms: CZ   and  NH2 
ROOT
ATOM      1  CA  ARG D 557     -26.217   2.705 -17.014  1.00 35.49     0.159 C 
ENDROOT
BRANCH   1   2
ATOM      2  CB  ARG D 557     -26.789   1.319 -17.183  1.00 35.49     0.034 C 
BRANCH   2   3
ATOM      3  CG  ARG D 557     -28.240   1.177 -17.009  1.00 35.49     0.027 C 
BRANCH   3   4
ATOM      4  CD  ARG D 557     -28.623  -0.177 -16.549  1.00 35.49     0.116 C 
BRANCH   4   5
ATOM      5  NE  ARG D 557     -27.571  -0.814 -15.802  1.00 35.49    -0.212 N 
ATOM      6  CZ  ARG D 557     -27.229  -2.081 -15.884  1.00 35.49     0.666 C 
ATOM      7  NH1 ARG D 557     -27.849  -2.933 -16.680  1.00 35.49    -0.235 N 
ATOM      8  NH2 ARG D 557     -26.234  -2.483 -15.148  1.00 35.49    -0.235 N 
ATOM      9  HH  ARG D 557     -28.505  -2.689 -17.175  1.00 35.49     0.174 HD
ATOM     10  HH  ARG D 557     -27.580  -3.746 -16.694  1.00 35.49     0.174 HD
ATOM     11  HH  ARG D 557     -25.847  -1.909 -14.649  1.00 35.49     0.174 HD
ATOM     12  HH  ARG D 557     -25.982  -3.292 -15.177  1.00 35.49     0.174 HD
ATOM     13  HE  ARG D 557     -27.166  -0.356 -15.212  1.00 35.49     0.178 HD
ENDBRANCH   4   5
ENDBRANCH   3   4
ENDBRANCH   2   3
ENDBRANCH   1   2
END_RES ARG D 557
BEGIN_RES GLU D 570
REMARK  3 active torsions:
REMARK  status: ('A' for Active; 'I' for Inactive)
REMARK    5  A    between atoms: CA   and  CB  
REMARK    6  A    between atoms: CB   and  CG  
REMARK    7  A    between atoms: CG   and  CD  
ROOT
ATOM     14  CA  GLU D 570     -18.033  -6.348 -13.375  1.00 32.92     0.160 C 
ENDROOT
BRANCH  14  15
ATOM     15  CB  GLU D 570     -19.500  -6.345 -13.794  1.00 32.92     0.043 C 
BRANCH  15  16
ATOM     16  CG  GLU D 570     -20.088  -7.636 -14.236  1.00 32.92     0.100 C 
BRANCH  16  17
ATOM     17  CD  GLU D 570     -20.665  -7.573 -15.631  1.00 32.92     0.185 C 
ATOM     18  OE1 GLU D 570     -20.544  -6.522 -16.290  1.00 32.92    -0.647 OA
ATOM     19  OE2 GLU D 570     -21.260  -8.580 -16.064  1.00 32.92    -0.647 OA
ENDBRANCH  16  17
ENDBRANCH  15  16
ENDBRANCH  14  15
END_RES GLU D 570
ENDMDL
MODEL 9
REMARK VINA RESULT:      -5.9      5.513      9.412
REMARK  13 active torsions:
REMARK  status: ('A' for Active; 'I' for Inactive)
REMARK    1  A    between atoms: C_2  and  C_3 
REMARK    2  A    between atoms: C_3  and  C_4 
REMARK    3  A    between atoms: C_4  and  C_5 
REMARK    4  A    between atoms: C_5  and  C_6 
REMARK    5  A    between atoms: C_6  and  C_7 
REMARK    6  A    between atoms: C_7  and  C_8 
REMARK    7  A    between atoms: C_8  and  C_9 
REMARK    8  A    between atoms: C_9  and  C_10 
REMARK    9  A    between atoms: C_10  and  C_11 
REMARK   10  A    between atoms: C_11  and  C_12 
REMARK   11  A    between atoms: C_12  and  N_13 
REMARK   12  A    between atoms: N_13  and  C_16 
REMARK   13  A    between atoms: C_16  and  C_17 
ROOT
HETATM    1  C   UNL     1     -22.098  -6.334  -2.351  1.00  0.00     0.002 C 
ENDROOT
BRANCH   1   2
HETATM    2  C   UNL     1     -21.198  -5.984  -3.538  1.00  0.00     0.000 C 
BRANCH   2   3
HETATM    3  C   UNL     1     -21.801  -6.439  -4.863  1.00  0.00     0.000 C 
BRANCH   3   4
HETATM    4  C   UNL     1     -20.839  -6.227  -6.020  1.00  0.00     0.000 C 
BRANCH   4   5
HETATM    5  C   UNL     1     -20.359  -4.780  -6.030  1.00  0.00     0.000 C 
BRANCH   5   6
HETATM    6  C   UNL     1     -20.244  -4.264  -7.455  1.00  0.00     0.000 C 
BRANCH   6   7
HETATM    7  C   UNL     1     -21.621  -3.926  -8.015  1.00  0.00     0.000 C 
BRANCH   7   8
HETATM    8  C   UNL     1     -21.661  -4.177  -9.517  1.00  0.00    -0.000 C 
BRANCH   8   9
HETATM    9  C   UNL     1     -23.061  -4.576  -9.966  1.00  0.00    -0.005 C 
HETATM   10  C   UNL     1     -24.101  -3.614  -9.421  1.00  0.00     0.005 C 
ENDBRANCH   8   9
ENDBRANCH   7   8
ENDBRANCH   6   7
ENDBRANCH   5   6
ENDBRANCH   4   5
ENDBRANCH   3   4
ENDBRANCH   2   3
ENDBRANCH   1   2
BRANCH   1  11
HETATM   11  C   UNL     1     -21.469  -7.301  -1.341  1.00  0.00     0.028 C 
BRANCH  11  12
HETATM   12  C   UNL     1     -21.928  -8.750  -1.546  1.00  0.00     0.237 C 
BRANCH  12  13
HETATM   13  N   UNL     1     -22.551  -9.356  -0.281  1.00  0.00    -0.065 N 
HETATM   14  C   UNL     1     -23.201  -8.278   0.571  1.00  0.00     0.272 C 
HETATM   15  C   UNL     1     -23.501 -10.485  -0.579  1.00  0.00     0.272 C 
BRANCH  13  16
HETATM   16  C   UNL     1     -21.345  -9.961   0.578  1.00  0.00     0.349 C 
BRANCH  16  17
HETATM   17  C   UNL     1     -20.925 -11.426   0.274  1.00  0.00     0.199 C 
HETATM   18  O   UNL     1     -20.096 -11.544  -0.665  1.00  0.00    -0.647 OA
HETATM   19  O   UNL     1     -21.380 -12.270   1.098  1.00  0.00    -0.647 OA
ENDBRANCH  16  17
ENDBRANCH  13  16
ENDBRANCH  12  13
ENDBRANCH  11  12
ENDBRANCH   1  11
TORSDOF 13
BEGIN_RES ARG D 557
REMARK  4 active torsions:
REMARK  status: ('A' for Active; 'I' for Inactive)
REMARK    1  A    between atoms: CA   and  CB  
REMARK    2  A    between atoms: CB   and  CG  
REMARK    3  A    between atoms: CG   and  CD  
REMARK    4  A    between atoms: CD   and  NE  
REMARK       I    between atoms: NE   and  CZ  
REMARK       I    between atoms: CZ   and  NH1 
REMARK       I    between atoms: CZ   and  NH2 
ROOT
ATOM      1  CA  ARG D 557     -26.217   2.705 -17.014  1.00 35.49     0.159 C 
ENDROOT
BRANCH   1   2
ATOM      2  CB  ARG D 557     -26.789   1.319 -17.183  1.00 35.49     0.034 C 
BRANCH   2   3
ATOM      3  CG  ARG D 557     -25.837   0.202 -17.149  1.00 35.49     0.027 C 
BRANCH   3   4
ATOM      4  CD  ARG D 557     -24.764   0.406 -16.148  1.00 35.49     0.116 C 
BRANCH   4   5
ATOM      5  NE  ARG D 557     -24.917  -0.457 -15.007  1.00 35.49    -0.212 N 
ATOM      6  CZ  ARG D 557     -24.097  -1.424 -14.660  1.00 35.49     0.666 C 
ATOM      7  NH1 ARG D 557     -23.017  -1.723 -15.358  1.00 35.49    -0.235 N 
ATOM      8  NH2 ARG D 557     -24.381  -2.093 -13.580  1.00 35.49    -0.235 N 
ATOM      9  HH  ARG D 557     -22.810  -1.295 -16.070  1.00 35.49     0.174 HD
ATOM     10  HH  ARG D 557     -22.518  -2.363 -15.082  1.00 35.49     0.174 HD
ATOM     11  HH  ARG D 557     -25.081  -1.873 -13.145  1.00 35.49     0.174 HD
ATOM     12  HH  ARG D 557     -23.874  -2.721 -13.322  1.00 35.49     0.174 HD
ATOM     13  HE  ARG D 557     -25.625  -0.382 -14.541  1.00 35.49     0.178 HD
ENDBRANCH   4   5
ENDBRANCH   3   4
ENDBRANCH   2   3
ENDBRANCH   1   2
END_RES ARG D 557
BEGIN_RES GLU D 570
REMARK  3 active torsions:
REMARK  status: ('A' for Active; 'I' for Inactive)
REMARK    5  A    between atoms: CA   and  CB  
REMARK    6  A    between atoms: CB   and  CG  
REMARK    7  A    between atoms: CG   and  CD  
ROOT
ATOM     14  CA  GLU D 570     -18.033  -6.348 -13.375  1.00 32.92     0.160 C 
ENDROOT
BRANCH  14  15
ATOM     15  CB  GLU D 570     -19.500  -6.345 -13.794  1.00 32.92     0.043 C 
BRANCH  15  16
ATOM     16  CG  GLU D 570     -20.448  -5.559 -12.962  1.00 32.92     0.100 C 
BRANCH  16  17
ATOM     17  CD  GLU D 570     -21.742  -5.249 -13.678  1.00 32.92     0.185 C 
ATOM     18  OE1 GLU D 570     -22.202  -6.079 -14.485  1.00 32.92    -0.647 OA
ATOM     19  OE2 GLU D 570     -22.293  -4.156 -13.441  1.00 32.92    -0.647 OA
ENDBRANCH  16  17
ENDBRANCH  15  16
ENDBRANCH  14  15
END_RES GLU D 570
ENDMDL
