MODEL 1
REMARK VINA RESULT:      -5.7      0.000      0.000
REMARK  24 active torsions:
REMARK  status: ('A' for Active; 'I' for Inactive)
REMARK    1  A    between atoms: C_1  and  C_2 
REMARK    2  A    between atoms: C_1  and  O_45 
REMARK    3  A    between atoms: C_3  and  O_44 
REMARK    4  A    between atoms: C_4  and  O_43 
REMARK    5  A    between atoms: C_5  and  O_42 
REMARK    6  A    between atoms: C_6  and  O_8 
REMARK    7  A    between atoms: O_8  and  C_9 
REMARK    8  A    between atoms: C_9  and  C_10 
REMARK    9  A    between atoms: C_11  and  O_30 
REMARK   10  A    between atoms: C_12  and  O_29 
REMARK   11  A    between atoms: C_13  and  O_28 
REMARK   12  A    between atoms: C_14  and  O_16 
REMARK   13  A    between atoms: O_16  and  C_17 
REMARK   14  A    between atoms: C_18  and  C_26 
REMARK   15  A    between atoms: C_20  and  O_25 
REMARK   16  A    between atoms: C_21  and  O_24 
REMARK   17  A    between atoms: C_22  and  O_23 
REMARK   18  A    between atoms: C_26  and  O_27 
REMARK   19  A    between atoms: O_30  and  C_31 
REMARK   20  A    between atoms: C_32  and  O_41 
REMARK   21  A    between atoms: C_33  and  O_40 
REMARK   22  A    between atoms: C_34  and  O_39 
REMARK   23  A    between atoms: C_35  and  C_37 
REMARK   24  A    between atoms: C_37  and  O_38 
ROOT
HETATM    1  C   UNL     1     -18.390 -10.265  -3.811  1.00  0.00     0.180 C 
HETATM    2  C   UNL     1     -18.428  -9.532  -5.177  1.00  0.00     0.187 C 
HETATM    3  C   UNL     1     -19.455  -8.376  -5.072  1.00  0.00     0.183 C 
HETATM    4  C   UNL     1     -20.851  -8.893  -4.690  1.00  0.00     0.204 C 
HETATM    5  C   UNL     1     -20.734  -9.680  -3.360  1.00  0.00     0.292 C 
HETATM    6  O   UNL     1     -19.705 -10.663  -3.424  1.00  0.00    -0.348 OA
ENDROOT
BRANCH   1   7
HETATM    7  C   UNL     1     -17.606  -9.482  -2.724  1.00  0.00     0.205 C 
BRANCH   7   8
HETATM    8  O   UNL     1     -16.185  -9.677  -2.865  1.00  0.00    -0.356 OA
BRANCH   8   9
HETATM    9  C   UNL     1     -15.652 -10.810  -2.122  1.00  0.00     0.291 C 
HETATM   10  C   UNL     1     -14.950 -11.769  -3.109  1.00  0.00     0.204 C 
HETATM   11  C   UNL     1     -14.592 -13.088  -2.423  1.00  0.00     0.183 C 
HETATM   12  C   UNL     1     -15.842 -13.742  -1.825  1.00  0.00     0.180 C 
HETATM   13  C   UNL     1     -16.539 -12.749  -0.877  1.00  0.00     0.179 C 
HETATM   14  O   UNL     1     -16.769 -11.461  -1.496  1.00  0.00    -0.348 OA
BRANCH  10  15
HETATM   15  O   UNL     1     -15.837 -12.034  -4.221  1.00  0.00    -0.388 OA
HETATM   16  H   UNL     1     -16.611 -12.502  -3.848  1.00  0.00     0.210 HD
ENDBRANCH  10  15
BRANCH  11  17
HETATM   17  O   UNL     1     -13.968 -13.962  -3.365  1.00  0.00    -0.390 OA
HETATM   18  H   UNL     1     -14.113 -13.548  -4.245  1.00  0.00     0.210 HD
ENDBRANCH  11  17
BRANCH  12  19
HETATM   19  O   UNL     1     -16.757 -14.130  -2.866  1.00  0.00    -0.390 OA
HETATM   20  H   UNL     1     -17.427 -14.715  -2.459  1.00  0.00     0.210 HD
ENDBRANCH  12  19
BRANCH  13  21
HETATM   21  C   UNL     1     -15.817 -12.648   0.478  1.00  0.00     0.198 C 
BRANCH  21  22
HETATM   22  O   UNL     1     -16.399 -11.645   1.305  1.00  0.00    -0.398 OA
HETATM   23  H   UNL     1     -16.890 -11.025   0.735  1.00  0.00     0.209 HD
ENDBRANCH  21  22
ENDBRANCH  13  21
ENDBRANCH   8   9
ENDBRANCH   7   8
ENDBRANCH   1   7
BRANCH   2  24
HETATM   24  O   UNL     1     -18.858 -10.394  -6.269  1.00  0.00    -0.348 OA
BRANCH  24  25
HETATM   25  C   UNL     1     -18.687 -11.802  -6.095  1.00  0.00     0.292 C 
HETATM   26  C   UNL     1     -17.987 -12.513  -7.277  1.00  0.00     0.204 C 
HETATM   27  C   UNL     1     -18.961 -12.702  -8.452  1.00  0.00     0.183 C 
HETATM   28  C   UNL     1     -20.234 -13.414  -7.977  1.00  0.00     0.180 C 
HETATM   29  C   UNL     1     -20.861 -12.535  -6.882  1.00  0.00     0.179 C 
HETATM   30  O   UNL     1     -19.962 -12.394  -5.776  1.00  0.00    -0.348 OA
BRANCH  26  31
HETATM   31  O   UNL     1     -17.469 -13.787  -6.846  1.00  0.00    -0.388 OA
HETATM   32  H   UNL     1     -18.099 -14.466  -7.181  1.00  0.00     0.210 HD
ENDBRANCH  26  31
BRANCH  27  33
HETATM   33  O   UNL     1     -18.332 -13.452  -9.493  1.00  0.00    -0.390 OA
HETATM   34  H   UNL     1     -18.326 -12.866 -10.276  1.00  0.00     0.210 HD
ENDBRANCH  27  33
BRANCH  28  35
HETATM   35  O   UNL     1     -19.863 -14.709  -7.453  1.00  0.00    -0.390 OA
HETATM   36  H   UNL     1     -20.652 -15.066  -7.004  1.00  0.00     0.210 HD
ENDBRANCH  28  35
BRANCH  29  37
HETATM   37  C   UNL     1     -22.177 -13.118  -6.358  1.00  0.00     0.198 C 
BRANCH  37  38
HETATM   38  O   UNL     1     -22.661 -12.368  -5.251  1.00  0.00    -0.398 OA
HETATM   39  H   UNL     1     -21.898 -12.170  -4.678  1.00  0.00     0.209 HD
ENDBRANCH  37  38
ENDBRANCH  29  37
ENDBRANCH  24  25
ENDBRANCH   2  24
BRANCH   3  40
HETATM   40  O   UNL     1     -19.500  -7.651  -6.303  1.00  0.00    -0.390 OA
HETATM   41  H   UNL     1     -19.943  -8.243  -6.947  1.00  0.00     0.210 HD
ENDBRANCH   3  40
BRANCH   5  42
HETATM   42  O   UNL     1     -21.999 -10.306  -3.056  1.00  0.00    -0.348 OA
BRANCH  42  43
HETATM   43  C   UNL     1     -22.514  -9.933  -1.752  1.00  0.00     0.187 C 
HETATM   44  C   UNL     1     -21.569  -8.958  -1.021  1.00  0.00     0.180 C 
HETATM   45  O   UNL     1     -20.366  -9.538  -0.505  1.00  0.00    -0.349 OA
HETATM   46  C   UNL     1     -20.413 -10.821   0.077  1.00  0.00     0.288 C 
HETATM   47  C   UNL     1     -21.357 -11.847  -0.560  1.00  0.00     0.204 C 
HETATM   48  C   UNL     1     -22.705 -11.201  -0.899  1.00  0.00     0.183 C 
BRANCH  44  49
HETATM   49  C   UNL     1     -22.309  -8.099   0.011  1.00  0.00     0.198 C 
BRANCH  49  50
HETATM   50  O   UNL     1     -21.597  -8.061   1.246  1.00  0.00    -0.398 OA
HETATM   51  H   UNL     1     -20.649  -7.918   1.060  1.00  0.00     0.209 HD
ENDBRANCH  49  50
ENDBRANCH  44  49
BRANCH  46  52
HETATM   52  O   UNL     1     -20.736 -10.715   1.462  1.00  0.00    -0.369 OA
HETATM   53  H   UNL     1     -19.926 -10.958   1.933  1.00  0.00     0.212 HD
ENDBRANCH  46  52
BRANCH  47  54
HETATM   54  O   UNL     1     -21.536 -12.942   0.361  1.00  0.00    -0.388 OA
HETATM   55  H   UNL     1     -20.955 -13.661   0.043  1.00  0.00     0.210 HD
ENDBRANCH  47  54
BRANCH  48  56
HETATM   56  O   UNL     1     -23.563 -12.117  -1.599  1.00  0.00    -0.390 OA
HETATM   57  H   UNL     1     -23.737 -12.858  -0.989  1.00  0.00     0.210 HD
ENDBRANCH  48  56
ENDBRANCH  42  43
ENDBRANCH   5  42
BRANCH   4  58
HETATM   58  O   UNL     1     -21.378  -9.680  -5.778  1.00  0.00    -0.388 OA
HETATM   59  H   UNL     1     -22.229  -9.271  -6.042  1.00  0.00     0.210 HD
ENDBRANCH   4  58
TORSDOF 24
BEGIN_RES ARG D 557
REMARK  4 active torsions:
REMARK  status: ('A' for Active; 'I' for Inactive)
REMARK    1  A    between atoms: CA   and  CB  
REMARK    2  A    between atoms: CB   and  CG  
REMARK    3  A    between atoms: CG   and  CD  
REMARK    4  A    between atoms: CD   and  NE  
REMARK       I    between atoms: NE   and  CZ  
REMARK       I    between atoms: CZ   and  NH1 
REMARK       I    between atoms: CZ   and  NH2 
ROOT
ATOM      1  CA  ARG D 557     -26.217   2.705 -17.014  1.00 35.49     0.159 C 
ENDROOT
BRANCH   1   2
ATOM      2  CB  ARG D 557     -26.789   1.319 -17.183  1.00 35.49     0.034 C 
BRANCH   2   3
ATOM      3  CG  ARG D 557     -25.837   0.202 -17.147  1.00 35.49     0.027 C 
BRANCH   3   4
ATOM      4  CD  ARG D 557     -24.757   0.413 -16.156  1.00 35.49     0.116 C 
BRANCH   4   5
ATOM      5  NE  ARG D 557     -24.904  -0.441 -15.006  1.00 35.49    -0.212 N 
ATOM      6  CZ  ARG D 557     -24.087  -1.412 -14.662  1.00 35.49     0.666 C 
ATOM      7  NH1 ARG D 557     -23.018  -1.724 -15.370  1.00 35.49    -0.235 N 
ATOM      8  NH2 ARG D 557     -24.364  -2.071 -13.574  1.00 35.49    -0.235 N 
ATOM      9  HH  ARG D 557     -22.816  -1.302 -16.088  1.00 35.49     0.174 HD
ATOM     10  HH  ARG D 557     -22.520  -2.365 -15.095  1.00 35.49     0.174 HD
ATOM     11  HH  ARG D 557     -25.057  -1.843 -13.133  1.00 35.49     0.174 HD
ATOM     12  HH  ARG D 557     -23.858  -2.702 -13.318  1.00 35.49     0.174 HD
ATOM     13  HE  ARG D 557     -25.605  -0.358 -14.533  1.00 35.49     0.178 HD
ENDBRANCH   4   5
ENDBRANCH   3   4
ENDBRANCH   2   3
ENDBRANCH   1   2
END_RES ARG D 557
BEGIN_RES GLU D 570
REMARK  3 active torsions:
REMARK  status: ('A' for Active; 'I' for Inactive)
REMARK    5  A    between atoms: CA   and  CB  
REMARK    6  A    between atoms: CB   and  CG  
REMARK    7  A    between atoms: CG   and  CD  
ROOT
ATOM     14  CA  GLU D 570     -18.033  -6.348 -13.375  1.00 32.92     0.160 C 
ENDROOT
BRANCH  14  15
ATOM     15  CB  GLU D 570     -19.500  -6.345 -13.794  1.00 32.92     0.043 C 
BRANCH  15  16
ATOM     16  CG  GLU D 570     -20.443  -5.538 -12.978  1.00 32.92     0.100 C 
BRANCH  16  17
ATOM     17  CD  GLU D 570     -21.725  -5.212 -13.709  1.00 32.92     0.185 C 
ATOM     18  OE1 GLU D 570     -22.299  -4.132 -13.472  1.00 32.92    -0.647 OA
ATOM     19  OE2 GLU D 570     -22.169  -6.054 -14.514  1.00 32.92    -0.647 OA
ENDBRANCH  16  17
ENDBRANCH  15  16
ENDBRANCH  14  15
END_RES GLU D 570
ENDMDL
MODEL 2
REMARK VINA RESULT:      -5.6      1.846      4.866
REMARK  24 active torsions:
REMARK  status: ('A' for Active; 'I' for Inactive)
REMARK    1  A    between atoms: C_1  and  C_2 
REMARK    2  A    between atoms: C_1  and  O_45 
REMARK    3  A    between atoms: C_3  and  O_44 
REMARK    4  A    between atoms: C_4  and  O_43 
REMARK    5  A    between atoms: C_5  and  O_42 
REMARK    6  A    between atoms: C_6  and  O_8 
REMARK    7  A    between atoms: O_8  and  C_9 
REMARK    8  A    between atoms: C_9  and  C_10 
REMARK    9  A    between atoms: C_11  and  O_30 
REMARK   10  A    between atoms: C_12  and  O_29 
REMARK   11  A    between atoms: C_13  and  O_28 
REMARK   12  A    between atoms: C_14  and  O_16 
REMARK   13  A    between atoms: O_16  and  C_17 
REMARK   14  A    between atoms: C_18  and  C_26 
REMARK   15  A    between atoms: C_20  and  O_25 
REMARK   16  A    between atoms: C_21  and  O_24 
REMARK   17  A    between atoms: C_22  and  O_23 
REMARK   18  A    between atoms: C_26  and  O_27 
REMARK   19  A    between atoms: O_30  and  C_31 
REMARK   20  A    between atoms: C_32  and  O_41 
REMARK   21  A    between atoms: C_33  and  O_40 
REMARK   22  A    between atoms: C_34  and  O_39 
REMARK   23  A    between atoms: C_35  and  C_37 
REMARK   24  A    between atoms: C_37  and  O_38 
ROOT
HETATM    1  C   UNL     1     -18.654 -12.229  -2.319  1.00  0.00     0.180 C 
HETATM    2  C   UNL     1     -17.300 -12.389  -3.056  1.00  0.00     0.187 C 
HETATM    3  C   UNL     1     -16.380 -11.216  -2.629  1.00  0.00     0.183 C 
HETATM    4  C   UNL     1     -17.018  -9.854  -2.945  1.00  0.00     0.204 C 
HETATM    5  C   UNL     1     -18.398  -9.786  -2.245  1.00  0.00     0.292 C 
HETATM    6  O   UNL     1     -19.194 -10.928  -2.547  1.00  0.00    -0.348 OA
ENDROOT
BRANCH   1   7
HETATM    7  C   UNL     1     -18.584 -12.646  -0.824  1.00  0.00     0.205 C 
BRANCH   7   8
HETATM    8  O   UNL     1     -19.621 -13.591  -0.498  1.00  0.00    -0.356 OA
BRANCH   8   9
HETATM    9  C   UNL     1     -20.937 -13.001  -0.296  1.00  0.00     0.291 C 
HETATM   10  C   UNL     1     -21.547 -13.575   1.002  1.00  0.00     0.204 C 
HETATM   11  C   UNL     1     -23.019 -13.181   1.130  1.00  0.00     0.183 C 
HETATM   12  C   UNL     1     -23.811 -13.646  -0.096  1.00  0.00     0.180 C 
HETATM   13  C   UNL     1     -23.156 -13.090  -1.373  1.00  0.00     0.179 C 
HETATM   14  O   UNL     1     -21.737 -13.364  -1.432  1.00  0.00    -0.348 OA
BRANCH  10  15
HETATM   15  O   UNL     1     -21.439 -15.018   0.976  1.00  0.00    -0.388 OA
HETATM   16  H   UNL     1     -21.464 -15.312   1.910  1.00  0.00     0.210 HD
ENDBRANCH  10  15
BRANCH  11  17
HETATM   17  O   UNL     1     -23.563 -13.747   2.325  1.00  0.00    -0.390 OA
HETATM   18  H   UNL     1     -24.116 -14.505   2.029  1.00  0.00     0.210 HD
ENDBRANCH  11  17
BRANCH  12  19
HETATM   19  O   UNL     1     -23.842 -15.084  -0.162  1.00  0.00    -0.390 OA
HETATM   20  H   UNL     1     -22.940 -15.382  -0.399  1.00  0.00     0.210 HD
ENDBRANCH  12  19
BRANCH  13  21
HETATM   21  C   UNL     1     -23.495 -11.604  -1.589  1.00  0.00     0.198 C 
BRANCH  21  22
HETATM   22  O   UNL     1     -23.088 -11.159  -2.880  1.00  0.00    -0.398 OA
HETATM   23  H   UNL     1     -23.850 -10.730  -3.310  1.00  0.00     0.209 HD
ENDBRANCH  21  22
ENDBRANCH  13  21
ENDBRANCH   8   9
ENDBRANCH   7   8
ENDBRANCH   1   7
BRANCH   2  24
HETATM   24  O   UNL     1     -17.435 -12.327  -4.505  1.00  0.00    -0.348 OA
BRANCH  24  25
HETATM   25  C   UNL     1     -17.516 -13.569  -5.206  1.00  0.00     0.292 C 
HETATM   26  C   UNL     1     -17.054 -13.503  -6.681  1.00  0.00     0.204 C 
HETATM   27  C   UNL     1     -18.133 -12.851  -7.561  1.00  0.00     0.183 C 
HETATM   28  C   UNL     1     -19.476 -13.567  -7.374  1.00  0.00     0.180 C 
HETATM   29  C   UNL     1     -19.843 -13.455  -5.884  1.00  0.00     0.179 C 
HETATM   30  O   UNL     1     -18.851 -14.097  -5.073  1.00  0.00    -0.348 OA
BRANCH  26  31
HETATM   31  O   UNL     1     -16.751 -14.827  -7.160  1.00  0.00    -0.388 OA
HETATM   32  H   UNL     1     -16.149 -15.229  -6.493  1.00  0.00     0.210 HD
ENDBRANCH  26  31
BRANCH  27  33
HETATM   33  O   UNL     1     -17.736 -12.892  -8.934  1.00  0.00    -0.390 OA
HETATM   34  H   UNL     1     -18.115 -12.089  -9.344  1.00  0.00     0.210 HD
ENDBRANCH  27  33
BRANCH  28  35
HETATM   35  O   UNL     1     -19.314 -14.949  -7.764  1.00  0.00    -0.390 OA
HETATM   36  H   UNL     1     -20.007 -15.455  -7.301  1.00  0.00     0.210 HD
ENDBRANCH  28  35
BRANCH  29  37
HETATM   37  C   UNL     1     -21.200 -14.095  -5.575  1.00  0.00     0.198 C 
BRANCH  37  38
HETATM   38  O   UNL     1     -21.841 -13.431  -4.492  1.00  0.00    -0.398 OA
HETATM   39  H   UNL     1     -21.266 -13.524  -3.712  1.00  0.00     0.209 HD
ENDBRANCH  37  38
ENDBRANCH  29  37
ENDBRANCH  24  25
ENDBRANCH   2  24
BRANCH   3  40
HETATM   40  O   UNL     1     -15.105 -11.341  -3.263  1.00  0.00    -0.390 OA
HETATM   41  H   UNL     1     -15.216 -10.970  -4.165  1.00  0.00     0.210 HD
ENDBRANCH   3  40
BRANCH   5  42
HETATM   42  O   UNL     1     -19.087  -8.583  -2.648  1.00  0.00    -0.348 OA
BRANCH  42  43
HETATM   43  C   UNL     1     -20.366  -8.848  -3.278  1.00  0.00     0.187 C 
HETATM   44  C   UNL     1     -20.368  -8.434  -4.764  1.00  0.00     0.180 C 
HETATM   45  O   UNL     1     -20.412  -7.024  -5.009  1.00  0.00    -0.349 OA
HETATM   46  C   UNL     1     -21.221  -6.206  -4.195  1.00  0.00     0.288 C 
HETATM   47  C   UNL     1     -21.312  -6.567  -2.707  1.00  0.00     0.204 C 
HETATM   48  C   UNL     1     -21.471  -8.081  -2.529  1.00  0.00     0.183 C 
BRANCH  44  49
HETATM   49  C   UNL     1     -21.404  -9.216  -5.581  1.00  0.00     0.198 C 
BRANCH  49  50
HETATM   50  O   UNL     1     -21.502 -10.563  -5.123  1.00  0.00    -0.398 OA
HETATM   51  H   UNL     1     -20.628 -10.990  -5.212  1.00  0.00     0.209 HD
ENDBRANCH  49  50
ENDBRANCH  44  49
BRANCH  46  52
HETATM   52  O   UNL     1     -22.545  -6.152  -4.723  1.00  0.00    -0.369 OA
HETATM   53  H   UNL     1     -23.040  -5.586  -4.113  1.00  0.00     0.212 HD
ENDBRANCH  46  52
BRANCH  47  54
HETATM   54  O   UNL     1     -22.432  -5.867  -2.131  1.00  0.00    -0.388 OA
HETATM   55  H   UNL     1     -23.025  -5.646  -2.876  1.00  0.00     0.210 HD
ENDBRANCH  47  54
BRANCH  48  56
HETATM   56  O   UNL     1     -21.444  -8.450  -1.139  1.00  0.00    -0.390 OA
HETATM   57  H   UNL     1     -21.574  -7.629  -0.630  1.00  0.00     0.210 HD
ENDBRANCH  48  56
ENDBRANCH  42  43
ENDBRANCH   5  42
BRANCH   4  58
HETATM   58  O   UNL     1     -17.091  -9.687  -4.377  1.00  0.00    -0.388 OA
HETATM   59  H   UNL     1     -16.722 -10.501  -4.779  1.00  0.00     0.210 HD
ENDBRANCH   4  58
TORSDOF 24
BEGIN_RES ARG D 557
REMARK  4 active torsions:
REMARK  status: ('A' for Active; 'I' for Inactive)
REMARK    1  A    between atoms: CA   and  CB  
REMARK    2  A    between atoms: CB   and  CG  
REMARK    3  A    between atoms: CG   and  CD  
REMARK    4  A    between atoms: CD   and  NE  
REMARK       I    between atoms: NE   and  CZ  
REMARK       I    between atoms: CZ   and  NH1 
REMARK       I    between atoms: CZ   and  NH2 
ROOT
ATOM      1  CA  ARG D 557     -26.217   2.705 -17.014  1.00 35.49     0.159 C 
ENDROOT
BRANCH   1   2
ATOM      2  CB  ARG D 557     -26.789   1.319 -17.183  1.00 35.49     0.034 C 
BRANCH   2   3
ATOM      3  CG  ARG D 557     -25.863   0.195 -16.997  1.00 35.49     0.027 C 
BRANCH   3   4
ATOM      4  CD  ARG D 557     -26.272  -0.695 -15.886  1.00 35.49     0.116 C 
BRANCH   4   5
ATOM      5  NE  ARG D 557     -25.210  -0.898 -14.936  1.00 35.49    -0.212 N 
ATOM      6  CZ  ARG D 557     -24.904  -2.038 -14.359  1.00 35.49     0.666 C 
ATOM      7  NH1 ARG D 557     -25.573  -3.153 -14.591  1.00 35.49    -0.235 N 
ATOM      8  NH2 ARG D 557     -23.895  -2.043 -13.537  1.00 35.49    -0.235 N 
ATOM      9  HH  ARG D 557     -26.239  -3.173 -15.129  1.00 35.49     0.174 HD
ATOM     10  HH  ARG D 557     -25.326  -3.867 -14.187  1.00 35.49     0.174 HD
ATOM     11  HH  ARG D 557     -23.477  -1.310 -13.412  1.00 35.49     0.174 HD
ATOM     12  HH  ARG D 557     -23.665  -2.761 -13.149  1.00 35.49     0.174 HD
ATOM     13  HE  ARG D 557     -24.774  -0.217 -14.673  1.00 35.49     0.178 HD
ENDBRANCH   4   5
ENDBRANCH   3   4
ENDBRANCH   2   3
ENDBRANCH   1   2
END_RES ARG D 557
BEGIN_RES GLU D 570
REMARK  3 active torsions:
REMARK  status: ('A' for Active; 'I' for Inactive)
REMARK    5  A    between atoms: CA   and  CB  
REMARK    6  A    between atoms: CB   and  CG  
REMARK    7  A    between atoms: CG   and  CD  
ROOT
ATOM     14  CA  GLU D 570     -18.033  -6.348 -13.375  1.00 32.92     0.160 C 
ENDROOT
BRANCH  14  15
ATOM     15  CB  GLU D 570     -19.500  -6.345 -13.794  1.00 32.92     0.043 C 
BRANCH  15  16
ATOM     16  CG  GLU D 570     -20.448  -5.560 -12.962  1.00 32.92     0.100 C 
BRANCH  16  17
ATOM     17  CD  GLU D 570     -21.690  -5.145 -13.716  1.00 32.92     0.185 C 
ATOM     18  OE1 GLU D 570     -21.666  -5.132 -14.961  1.00 32.92    -0.647 OA
ATOM     19  OE2 GLU D 570     -22.693  -4.815 -13.053  1.00 32.92    -0.647 OA
ENDBRANCH  16  17
ENDBRANCH  15  16
ENDBRANCH  14  15
END_RES GLU D 570
ENDMDL
MODEL 3
REMARK VINA RESULT:      -5.4      2.479      5.848
REMARK  24 active torsions:
REMARK  status: ('A' for Active; 'I' for Inactive)
REMARK    1  A    between atoms: C_1  and  C_2 
REMARK    2  A    between atoms: C_1  and  O_45 
REMARK    3  A    between atoms: C_3  and  O_44 
REMARK    4  A    between atoms: C_4  and  O_43 
REMARK    5  A    between atoms: C_5  and  O_42 
REMARK    6  A    between atoms: C_6  and  O_8 
REMARK    7  A    between atoms: O_8  and  C_9 
REMARK    8  A    between atoms: C_9  and  C_10 
REMARK    9  A    between atoms: C_11  and  O_30 
REMARK   10  A    between atoms: C_12  and  O_29 
REMARK   11  A    between atoms: C_13  and  O_28 
REMARK   12  A    between atoms: C_14  and  O_16 
REMARK   13  A    between atoms: O_16  and  C_17 
REMARK   14  A    between atoms: C_18  and  C_26 
REMARK   15  A    between atoms: C_20  and  O_25 
REMARK   16  A    between atoms: C_21  and  O_24 
REMARK   17  A    between atoms: C_22  and  O_23 
REMARK   18  A    between atoms: C_26  and  O_27 
REMARK   19  A    between atoms: O_30  and  C_31 
REMARK   20  A    between atoms: C_32  and  O_41 
REMARK   21  A    between atoms: C_33  and  O_40 
REMARK   22  A    between atoms: C_34  and  O_39 
REMARK   23  A    between atoms: C_35  and  C_37 
REMARK   24  A    between atoms: C_37  and  O_38 
ROOT
HETATM    1  C   UNL     1     -17.973 -14.279  -0.931  1.00  0.00     0.180 C 
HETATM    2  C   UNL     1     -16.705 -13.653  -0.296  1.00  0.00     0.187 C 
HETATM    3  C   UNL     1     -17.098 -12.279   0.304  1.00  0.00     0.183 C 
HETATM    4  C   UNL     1     -17.693 -11.346  -0.763  1.00  0.00     0.204 C 
HETATM    5  C   UNL     1     -18.906 -12.057  -1.413  1.00  0.00     0.292 C 
HETATM    6  O   UNL     1     -18.568 -13.368  -1.855  1.00  0.00    -0.348 OA
ENDROOT
BRANCH   1   7
HETATM    7  C   UNL     1     -18.954 -14.863   0.122  1.00  0.00     0.205 C 
BRANCH   7   8
HETATM    8  O   UNL     1     -20.090 -15.483  -0.513  1.00  0.00    -0.356 OA
BRANCH   8   9
HETATM    9  C   UNL     1     -21.368 -15.203   0.126  1.00  0.00     0.291 C 
HETATM   10  C   UNL     1     -22.325 -14.590  -0.920  1.00  0.00     0.204 C 
HETATM   11  C   UNL     1     -23.589 -14.050  -0.250  1.00  0.00     0.183 C 
HETATM   12  C   UNL     1     -23.231 -13.023   0.829  1.00  0.00     0.180 C 
HETATM   13  C   UNL     1     -22.248 -13.652   1.833  1.00  0.00     0.179 C 
HETATM   14  O   UNL     1     -21.110 -14.266   1.183  1.00  0.00    -0.348 OA
BRANCH  10  15
HETATM   15  O   UNL     1     -21.647 -13.509  -1.603  1.00  0.00    -0.388 OA
HETATM   16  H   UNL     1     -21.189 -13.912  -2.368  1.00  0.00     0.210 HD
ENDBRANCH  10  15
BRANCH  11  17
HETATM   17  O   UNL     1     -24.442 -13.468  -1.237  1.00  0.00    -0.390 OA
HETATM   18  H   UNL     1     -25.349 -13.781  -1.019  1.00  0.00     0.210 HD
ENDBRANCH  11  17
BRANCH  12  19
HETATM   19  O   UNL     1     -22.629 -11.858   0.237  1.00  0.00    -0.390 OA
HETATM   20  H   UNL     1     -23.129 -11.079   0.557  1.00  0.00     0.210 HD
ENDBRANCH  12  19
BRANCH  13  21
HETATM   21  C   UNL     1     -22.961 -14.593   2.819  1.00  0.00     0.198 C 
BRANCH  21  22
HETATM   22  O   UNL     1     -22.039 -15.201   3.719  1.00  0.00    -0.398 OA
HETATM   23  H   UNL     1     -21.801 -14.547   4.402  1.00  0.00     0.209 HD
ENDBRANCH  21  22
ENDBRANCH  13  21
ENDBRANCH   8   9
ENDBRANCH   7   8
ENDBRANCH   1   7
BRANCH   2  24
HETATM   24  O   UNL     1     -15.646 -13.414  -1.266  1.00  0.00    -0.348 OA
BRANCH  24  25
HETATM   25  C   UNL     1     -15.703 -14.152  -2.488  1.00  0.00     0.292 C 
HETATM   26  C   UNL     1     -14.575 -15.198  -2.658  1.00  0.00     0.204 C 
HETATM   27  C   UNL     1     -13.253 -14.514  -3.047  1.00  0.00     0.183 C 
HETATM   28  C   UNL     1     -13.456 -13.629  -4.282  1.00  0.00     0.180 C 
HETATM   29  C   UNL     1     -14.526 -12.585  -3.918  1.00  0.00     0.179 C 
HETATM   30  O   UNL     1     -15.764 -13.228  -3.593  1.00  0.00    -0.348 OA
BRANCH  26  31
HETATM   31  O   UNL     1     -14.950 -16.166  -3.657  1.00  0.00    -0.388 OA
HETATM   32  H   UNL     1     -15.155 -15.654  -4.472  1.00  0.00     0.210 HD
ENDBRANCH  26  31
BRANCH  27  33
HETATM   33  O   UNL     1     -12.250 -15.499  -3.302  1.00  0.00    -0.390 OA
HETATM   34  H   UNL     1     -11.828 -15.237  -4.144  1.00  0.00     0.210 HD
ENDBRANCH  27  33
BRANCH  28  35
HETATM   35  O   UNL     1     -13.899 -14.465  -5.374  1.00  0.00    -0.390 OA
HETATM   36  H   UNL     1     -13.456 -15.327  -5.266  1.00  0.00     0.210 HD
ENDBRANCH  28  35
BRANCH  29  37
HETATM   37  C   UNL     1     -14.784 -11.601  -5.063  1.00  0.00     0.198 C 
BRANCH  37  38
HETATM   38  O   UNL     1     -15.458 -10.439  -4.594  1.00  0.00    -0.398 OA
HETATM   39  H   UNL     1     -15.816 -10.647  -3.712  1.00  0.00     0.209 HD
ENDBRANCH  37  38
ENDBRANCH  29  37
ENDBRANCH  24  25
ENDBRANCH   2  24
BRANCH   3  40
HETATM   40  O   UNL     1     -15.962 -11.678   0.930  1.00  0.00    -0.390 OA
HETATM   41  H   UNL     1     -16.056 -10.712   0.787  1.00  0.00     0.210 HD
ENDBRANCH   3  40
BRANCH   5  42
HETATM   42  O   UNL     1     -19.391 -11.270  -2.522  1.00  0.00    -0.348 OA
BRANCH  42  43
HETATM   43  C   UNL     1     -19.542  -9.866  -2.194  1.00  0.00     0.187 C 
HETATM   44  C   UNL     1     -20.988  -9.528  -1.775  1.00  0.00     0.180 C 
HETATM   45  O   UNL     1     -21.945  -9.499  -2.839  1.00  0.00    -0.349 OA
HETATM   46  C   UNL     1     -21.577  -8.952  -4.085  1.00  0.00     0.288 C 
HETATM   47  C   UNL     1     -20.142  -9.203  -4.566  1.00  0.00     0.204 C 
HETATM   48  C   UNL     1     -19.149  -9.013  -3.415  1.00  0.00     0.183 C 
BRANCH  44  49
HETATM   49  C   UNL     1     -21.055  -8.288  -0.876  1.00  0.00     0.198 C 
BRANCH  49  50
HETATM   50  O   UNL     1     -22.280  -7.583  -1.072  1.00  0.00    -0.398 OA
HETATM   51  H   UNL     1     -22.099  -6.623  -1.047  1.00  0.00     0.209 HD
ENDBRANCH  49  50
ENDBRANCH  44  49
BRANCH  46  52
HETATM   52  O   UNL     1     -21.810  -7.545  -4.086  1.00  0.00    -0.369 OA
HETATM   53  H   UNL     1     -22.773  -7.445  -4.106  1.00  0.00     0.212 HD
ENDBRANCH  46  52
BRANCH  47  54
HETATM   54  O   UNL     1     -19.852  -8.291  -5.643  1.00  0.00    -0.388 OA
HETATM   55  H   UNL     1     -18.895  -8.379  -5.822  1.00  0.00     0.210 HD
ENDBRANCH  47  54
BRANCH  48  56
HETATM   56  O   UNL     1     -17.811  -9.353  -3.818  1.00  0.00    -0.390 OA
HETATM   57  H   UNL     1     -17.876 -10.178  -4.333  1.00  0.00     0.210 HD
ENDBRANCH  48  56
ENDBRANCH  42  43
ENDBRANCH   5  42
BRANCH   4  58
HETATM   58  O   UNL     1     -16.661 -10.990  -1.708  1.00  0.00    -0.388 OA
HETATM   59  H   UNL     1     -15.804 -11.069  -1.239  1.00  0.00     0.210 HD
ENDBRANCH   4  58
TORSDOF 24
BEGIN_RES ARG D 557
REMARK  4 active torsions:
REMARK  status: ('A' for Active; 'I' for Inactive)
REMARK    1  A    between atoms: CA   and  CB  
REMARK    2  A    between atoms: CB   and  CG  
REMARK    3  A    between atoms: CG   and  CD  
REMARK    4  A    between atoms: CD   and  NE  
REMARK       I    between atoms: NE   and  CZ  
REMARK       I    between atoms: CZ   and  NH1 
REMARK       I    between atoms: CZ   and  NH2 
ROOT
ATOM      1  CA  ARG D 557     -26.217   2.705 -17.014  1.00 35.49     0.159 C 
ENDROOT
BRANCH   1   2
ATOM      2  CB  ARG D 557     -26.789   1.319 -17.183  1.00 35.49     0.034 C 
BRANCH   2   3
ATOM      3  CG  ARG D 557     -25.837   0.202 -17.143  1.00 35.49     0.027 C 
BRANCH   3   4
ATOM      4  CD  ARG D 557     -24.759   0.415 -16.151  1.00 35.49     0.116 C 
BRANCH   4   5
ATOM      5  NE  ARG D 557     -24.902  -0.441 -15.003  1.00 35.49    -0.212 N 
ATOM      6  CZ  ARG D 557     -24.084  -1.412 -14.662  1.00 35.49     0.666 C 
ATOM      7  NH1 ARG D 557     -23.016  -1.722 -15.373  1.00 35.49    -0.235 N 
ATOM      8  NH2 ARG D 557     -24.357  -2.073 -13.575  1.00 35.49    -0.235 N 
ATOM      9  HH  ARG D 557     -22.816  -1.299 -16.091  1.00 35.49     0.174 HD
ATOM     10  HH  ARG D 557     -22.517  -2.363 -15.101  1.00 35.49     0.174 HD
ATOM     11  HH  ARG D 557     -25.050  -1.846 -13.132  1.00 35.49     0.174 HD
ATOM     12  HH  ARG D 557     -23.851  -2.704 -13.321  1.00 35.49     0.174 HD
ATOM     13  HE  ARG D 557     -25.602  -0.359 -14.528  1.00 35.49     0.178 HD
ENDBRANCH   4   5
ENDBRANCH   3   4
ENDBRANCH   2   3
ENDBRANCH   1   2
END_RES ARG D 557
BEGIN_RES GLU D 570
REMARK  3 active torsions:
REMARK  status: ('A' for Active; 'I' for Inactive)
REMARK    5  A    between atoms: CA   and  CB  
REMARK    6  A    between atoms: CB   and  CG  
REMARK    7  A    between atoms: CG   and  CD  
ROOT
ATOM     14  CA  GLU D 570     -18.033  -6.348 -13.375  1.00 32.92     0.160 C 
ENDROOT
BRANCH  14  15
ATOM     15  CB  GLU D 570     -19.500  -6.345 -13.794  1.00 32.92     0.043 C 
BRANCH  15  16
ATOM     16  CG  GLU D 570     -20.443  -5.536 -12.979  1.00 32.92     0.100 C 
BRANCH  16  17
ATOM     17  CD  GLU D 570     -21.713  -5.188 -13.720  1.00 32.92     0.185 C 
ATOM     18  OE1 GLU D 570     -22.129  -5.960 -14.605  1.00 32.92    -0.647 OA
ATOM     19  OE2 GLU D 570     -22.289  -4.123 -13.424  1.00 32.92    -0.647 OA
ENDBRANCH  16  17
ENDBRANCH  15  16
ENDBRANCH  14  15
END_RES GLU D 570
ENDMDL
MODEL 4
REMARK VINA RESULT:      -5.4      1.825      5.611
REMARK  24 active torsions:
REMARK  status: ('A' for Active; 'I' for Inactive)
REMARK    1  A    between atoms: C_1  and  C_2 
REMARK    2  A    between atoms: C_1  and  O_45 
REMARK    3  A    between atoms: C_3  and  O_44 
REMARK    4  A    between atoms: C_4  and  O_43 
REMARK    5  A    between atoms: C_5  and  O_42 
REMARK    6  A    between atoms: C_6  and  O_8 
REMARK    7  A    between atoms: O_8  and  C_9 
REMARK    8  A    between atoms: C_9  and  C_10 
REMARK    9  A    between atoms: C_11  and  O_30 
REMARK   10  A    between atoms: C_12  and  O_29 
REMARK   11  A    between atoms: C_13  and  O_28 
REMARK   12  A    between atoms: C_14  and  O_16 
REMARK   13  A    between atoms: O_16  and  C_17 
REMARK   14  A    between atoms: C_18  and  C_26 
REMARK   15  A    between atoms: C_20  and  O_25 
REMARK   16  A    between atoms: C_21  and  O_24 
REMARK   17  A    between atoms: C_22  and  O_23 
REMARK   18  A    between atoms: C_26  and  O_27 
REMARK   19  A    between atoms: O_30  and  C_31 
REMARK   20  A    between atoms: C_32  and  O_41 
REMARK   21  A    between atoms: C_33  and  O_40 
REMARK   22  A    between atoms: C_34  and  O_39 
REMARK   23  A    between atoms: C_35  and  C_37 
REMARK   24  A    between atoms: C_37  and  O_38 
ROOT
HETATM    1  C   UNL     1     -18.495 -11.330  -3.400  1.00  0.00     0.180 C 
HETATM    2  C   UNL     1     -17.712 -10.630  -4.540  1.00  0.00     0.187 C 
HETATM    3  C   UNL     1     -18.726  -9.824  -5.392  1.00  0.00     0.183 C 
HETATM    4  C   UNL     1     -19.831 -10.729  -5.962  1.00  0.00     0.204 C 
HETATM    5  C   UNL     1     -20.523 -11.457  -4.782  1.00  0.00     0.292 C 
HETATM    6  O   UNL     1     -19.573 -12.097  -3.934  1.00  0.00    -0.348 OA
ENDROOT
BRANCH   1   7
HETATM    7  C   UNL     1     -18.896 -10.360  -2.255  1.00  0.00     0.205 C 
BRANCH   7   8
HETATM    8  O   UNL     1     -19.128 -11.073  -1.025  1.00  0.00    -0.356 OA
BRANCH   8   9
HETATM    9  C   UNL     1     -20.361 -10.715  -0.340  1.00  0.00     0.291 C 
HETATM   10  C   UNL     1     -21.243 -11.976  -0.204  1.00  0.00     0.204 C 
HETATM   11  C   UNL     1     -22.646 -11.609   0.281  1.00  0.00     0.183 C 
HETATM   12  C   UNL     1     -23.294 -10.591  -0.662  1.00  0.00     0.180 C 
HETATM   13  C   UNL     1     -22.375  -9.364  -0.805  1.00  0.00     0.179 C 
HETATM   14  O   UNL     1     -21.017  -9.727  -1.151  1.00  0.00    -0.348 OA
BRANCH  10  15
HETATM   15  O   UNL     1     -21.338 -12.626  -1.494  1.00  0.00    -0.388 OA
HETATM   16  H   UNL     1     -20.801 -13.441  -1.430  1.00  0.00     0.210 HD
ENDBRANCH  10  15
BRANCH  11  17
HETATM   17  O   UNL     1     -23.444 -12.791   0.372  1.00  0.00    -0.390 OA
HETATM   18  H   UNL     1     -22.806 -13.540   0.378  1.00  0.00     0.210 HD
ENDBRANCH  11  17
BRANCH  12  19
HETATM   19  O   UNL     1     -23.518 -11.174  -1.958  1.00  0.00    -0.390 OA
HETATM   20  H   UNL     1     -24.485 -11.183  -2.109  1.00  0.00     0.210 HD
ENDBRANCH  12  19
BRANCH  13  21
HETATM   21  C   UNL     1     -22.461  -8.439   0.421  1.00  0.00     0.198 C 
BRANCH  21  22
HETATM   22  O   UNL     1     -23.739  -7.817   0.516  1.00  0.00    -0.398 OA
HETATM   23  H   UNL     1     -24.403  -8.508   0.695  1.00  0.00     0.209 HD
ENDBRANCH  21  22
ENDBRANCH  13  21
ENDBRANCH   8   9
ENDBRANCH   7   8
ENDBRANCH   1   7
BRANCH   2  24
HETATM   24  O   UNL     1     -17.050 -11.572  -5.432  1.00  0.00    -0.348 OA
BRANCH  24  25
HETATM   25  C   UNL     1     -15.626 -11.652  -5.355  1.00  0.00     0.292 C 
HETATM   26  C   UNL     1     -14.998 -12.755  -6.240  1.00  0.00     0.204 C 
HETATM   27  C   UNL     1     -15.184 -14.140  -5.597  1.00  0.00     0.183 C 
HETATM   28  C   UNL     1     -14.652 -14.133  -4.159  1.00  0.00     0.180 C 
HETATM   29  C   UNL     1     -15.443 -13.062  -3.390  1.00  0.00     0.179 C 
HETATM   30  O   UNL     1     -15.235 -11.770  -3.973  1.00  0.00    -0.348 OA
BRANCH  26  31
HETATM   31  O   UNL     1     -13.598 -12.483  -6.445  1.00  0.00    -0.388 OA
HETATM   32  H   UNL     1     -13.387 -11.700  -5.886  1.00  0.00     0.210 HD
ENDBRANCH  26  31
BRANCH  27  33
HETATM   33  O   UNL     1     -14.509 -15.134  -6.372  1.00  0.00    -0.390 OA
HETATM   34  H   UNL     1     -13.676 -15.320  -5.896  1.00  0.00     0.210 HD
ENDBRANCH  27  33
BRANCH  28  35
HETATM   35  O   UNL     1     -13.244 -13.811  -4.196  1.00  0.00    -0.390 OA
HETATM   36  H   UNL     1     -13.142 -12.947  -3.753  1.00  0.00     0.210 HD
ENDBRANCH  28  35
BRANCH  29  37
HETATM   37  C   UNL     1     -15.035 -12.992  -1.915  1.00  0.00     0.198 C 
BRANCH  37  38
HETATM   38  O   UNL     1     -16.042 -12.355  -1.138  1.00  0.00    -0.398 OA
HETATM   39  H   UNL     1     -15.600 -11.933  -0.379  1.00  0.00     0.209 HD
ENDBRANCH  37  38
ENDBRANCH  29  37
ENDBRANCH  24  25
ENDBRANCH   2  24
BRANCH   3  40
HETATM   40  O   UNL     1     -18.041  -9.135  -6.441  1.00  0.00    -0.390 OA
HETATM   41  H   UNL     1     -17.925  -8.213  -6.126  1.00  0.00     0.210 HD
ENDBRANCH   3  40
BRANCH   5  42
HETATM   42  O   UNL     1     -21.460 -12.427  -5.295  1.00  0.00    -0.348 OA
BRANCH  42  43
HETATM   43  C   UNL     1     -21.150 -13.783  -4.886  1.00  0.00     0.187 C 
HETATM   44  C   UNL     1     -20.540 -14.605  -6.040  1.00  0.00     0.180 C 
HETATM   45  O   UNL     1     -21.459 -15.003  -7.063  1.00  0.00    -0.349 OA
HETATM   46  C   UNL     1     -22.757 -15.415  -6.703  1.00  0.00     0.288 C 
HETATM   47  C   UNL     1     -23.429 -14.681  -5.536  1.00  0.00     0.204 C 
HETATM   48  C   UNL     1     -22.435 -14.471  -4.389  1.00  0.00     0.183 C 
BRANCH  44  49
HETATM   49  C   UNL     1     -19.672 -15.762  -5.532  1.00  0.00     0.198 C 
BRANCH  49  50
HETATM   50  O   UNL     1     -18.291 -15.513  -5.788  1.00  0.00    -0.398 OA
HETATM   51  H   UNL     1     -17.967 -16.168  -6.436  1.00  0.00     0.209 HD
ENDBRANCH  49  50
ENDBRANCH  44  49
BRANCH  46  52
HETATM   52  O   UNL     1     -22.761 -16.812  -6.413  1.00  0.00    -0.369 OA
HETATM   53  H   UNL     1     -22.838 -17.251  -7.273  1.00  0.00     0.212 HD
ENDBRANCH  46  52
BRANCH  47  54
HETATM   54  O   UNL     1     -24.559 -15.458  -5.093  1.00  0.00    -0.388 OA
HETATM   55  H   UNL     1     -25.004 -15.776  -5.904  1.00  0.00     0.210 HD
ENDBRANCH  47  54
BRANCH  48  56
HETATM   56  O   UNL     1     -23.014 -13.686  -3.332  1.00  0.00    -0.390 OA
HETATM   57  H   UNL     1     -23.699 -14.240  -2.915  1.00  0.00     0.210 HD
ENDBRANCH  48  56
ENDBRANCH  42  43
ENDBRANCH   5  42
BRANCH   4  58
HETATM   58  O   UNL     1     -19.252 -11.627  -6.931  1.00  0.00    -0.388 OA
HETATM   59  H   UNL     1     -19.858 -12.394  -7.008  1.00  0.00     0.210 HD
ENDBRANCH   4  58
TORSDOF 24
BEGIN_RES ARG D 557
REMARK  4 active torsions:
REMARK  status: ('A' for Active; 'I' for Inactive)
REMARK    1  A    between atoms: CA   and  CB  
REMARK    2  A    between atoms: CB   and  CG  
REMARK    3  A    between atoms: CG   and  CD  
REMARK    4  A    between atoms: CD   and  NE  
REMARK       I    between atoms: NE   and  CZ  
REMARK       I    between atoms: CZ   and  NH1 
REMARK       I    between atoms: CZ   and  NH2 
ROOT
ATOM      1  CA  ARG D 557     -26.217   2.705 -17.014  1.00 35.49     0.159 C 
ENDROOT
BRANCH   1   2
ATOM      2  CB  ARG D 557     -26.789   1.319 -17.183  1.00 35.49     0.034 C 
BRANCH   2   3
ATOM      3  CG  ARG D 557     -25.840   0.201 -17.125  1.00 35.49     0.027 C 
BRANCH   3   4
ATOM      4  CD  ARG D 557     -24.760   0.428 -16.137  1.00 35.49     0.116 C 
BRANCH   4   5
ATOM      5  NE  ARG D 557     -24.870  -0.452 -15.003  1.00 35.49    -0.212 N 
ATOM      6  CZ  ARG D 557     -24.029  -1.414 -14.693  1.00 35.49     0.666 C 
ATOM      7  NH1 ARG D 557     -22.966  -1.690 -15.426  1.00 35.49    -0.235 N 
ATOM      8  NH2 ARG D 557     -24.273  -2.100 -13.615  1.00 35.49    -0.235 N 
ATOM      9  HH  ARG D 557     -22.785  -1.250 -16.139  1.00 35.49     0.174 HD
ATOM     10  HH  ARG D 557     -22.452  -2.327 -15.173  1.00 35.49     0.174 HD
ATOM     11  HH  ARG D 557     -24.963  -1.894 -13.157  1.00 35.49     0.174 HD
ATOM     12  HH  ARG D 557     -23.751  -2.726 -13.380  1.00 35.49     0.174 HD
ATOM     13  HE  ARG D 557     -25.564  -0.392 -14.517  1.00 35.49     0.178 HD
ENDBRANCH   4   5
ENDBRANCH   3   4
ENDBRANCH   2   3
ENDBRANCH   1   2
END_RES ARG D 557
BEGIN_RES GLU D 570
REMARK  3 active torsions:
REMARK  status: ('A' for Active; 'I' for Inactive)
REMARK    5  A    between atoms: CA   and  CB  
REMARK    6  A    between atoms: CB   and  CG  
REMARK    7  A    between atoms: CG   and  CD  
ROOT
ATOM     14  CA  GLU D 570     -18.033  -6.348 -13.375  1.00 32.92     0.160 C 
ENDROOT
BRANCH  14  15
ATOM     15  CB  GLU D 570     -19.500  -6.345 -13.794  1.00 32.92     0.043 C 
BRANCH  15  16
ATOM     16  CG  GLU D 570     -20.448  -5.561 -12.961  1.00 32.92     0.100 C 
BRANCH  16  17
ATOM     17  CD  GLU D 570     -21.639  -5.056 -13.741  1.00 32.92     0.185 C 
ATOM     18  OE1 GLU D 570     -21.580  -5.026 -14.985  1.00 32.92    -0.647 OA
ATOM     19  OE2 GLU D 570     -22.637  -4.670 -13.100  1.00 32.92    -0.647 OA
ENDBRANCH  16  17
ENDBRANCH  15  16
ENDBRANCH  14  15
END_RES GLU D 570
ENDMDL
MODEL 5
REMARK VINA RESULT:      -5.4      2.199      5.558
REMARK  24 active torsions:
REMARK  status: ('A' for Active; 'I' for Inactive)
REMARK    1  A    between atoms: C_1  and  C_2 
REMARK    2  A    between atoms: C_1  and  O_45 
REMARK    3  A    between atoms: C_3  and  O_44 
REMARK    4  A    between atoms: C_4  and  O_43 
REMARK    5  A    between atoms: C_5  and  O_42 
REMARK    6  A    between atoms: C_6  and  O_8 
REMARK    7  A    between atoms: O_8  and  C_9 
REMARK    8  A    between atoms: C_9  and  C_10 
REMARK    9  A    between atoms: C_11  and  O_30 
REMARK   10  A    between atoms: C_12  and  O_29 
REMARK   11  A    between atoms: C_13  and  O_28 
REMARK   12  A    between atoms: C_14  and  O_16 
REMARK   13  A    between atoms: O_16  and  C_17 
REMARK   14  A    between atoms: C_18  and  C_26 
REMARK   15  A    between atoms: C_20  and  O_25 
REMARK   16  A    between atoms: C_21  and  O_24 
REMARK   17  A    between atoms: C_22  and  O_23 
REMARK   18  A    between atoms: C_26  and  O_27 
REMARK   19  A    between atoms: O_30  and  C_31 
REMARK   20  A    between atoms: C_32  and  O_41 
REMARK   21  A    between atoms: C_33  and  O_40 
REMARK   22  A    between atoms: C_34  and  O_39 
REMARK   23  A    between atoms: C_35  and  C_37 
REMARK   24  A    between atoms: C_37  and  O_38 
ROOT
HETATM    1  C   UNL     1     -19.999 -13.781  -2.374  1.00  0.00     0.180 C 
HETATM    2  C   UNL     1     -18.512 -14.056  -2.031  1.00  0.00     0.187 C 
HETATM    3  C   UNL     1     -18.325 -13.844  -0.506  1.00  0.00     0.183 C 
HETATM    4  C   UNL     1     -18.733 -12.424  -0.080  1.00  0.00     0.204 C 
HETATM    5  C   UNL     1     -20.199 -12.184  -0.517  1.00  0.00     0.292 C 
HETATM    6  O   UNL     1     -20.391 -12.496  -1.894  1.00  0.00    -0.348 OA
ENDROOT
BRANCH   1   7
HETATM    7  C   UNL     1     -20.942 -14.943  -1.956  1.00  0.00     0.205 C 
BRANCH   7   8
HETATM    8  O   UNL     1     -21.296 -15.759  -3.089  1.00  0.00    -0.356 OA
BRANCH   8   9
HETATM    9  C   UNL     1     -21.825 -15.021  -4.227  1.00  0.00     0.291 C 
HETATM   10  C   UNL     1     -23.297 -15.434  -4.450  1.00  0.00     0.204 C 
HETATM   11  C   UNL     1     -23.822 -14.878  -5.774  1.00  0.00     0.183 C 
HETATM   12  C   UNL     1     -22.944 -15.342  -6.940  1.00  0.00     0.180 C 
HETATM   13  C   UNL     1     -21.479 -14.950  -6.670  1.00  0.00     0.179 C 
HETATM   14  O   UNL     1     -21.024 -15.376  -5.365  1.00  0.00    -0.348 OA
BRANCH  10  15
HETATM   15  O   UNL     1     -23.383 -16.878  -4.470  1.00  0.00    -0.388 OA
HETATM   16  H   UNL     1     -22.469 -17.205  -4.594  1.00  0.00     0.210 HD
ENDBRANCH  10  15
BRANCH  11  17
HETATM   17  O   UNL     1     -25.175 -15.297  -5.965  1.00  0.00    -0.390 OA
HETATM   18  H   UNL     1     -25.697 -14.467  -6.052  1.00  0.00     0.210 HD
ENDBRANCH  11  17
BRANCH  12  19
HETATM   19  O   UNL     1     -23.033 -16.769  -7.104  1.00  0.00    -0.390 OA
HETATM   20  H   UNL     1     -22.513 -17.002  -7.900  1.00  0.00     0.210 HD
ENDBRANCH  12  19
BRANCH  13  21
HETATM   21  C   UNL     1     -21.229 -13.456  -6.940  1.00  0.00     0.198 C 
BRANCH  21  22
HETATM   22  O   UNL     1     -20.142 -13.264  -7.842  1.00  0.00    -0.398 OA
HETATM   23  H   UNL     1     -19.452 -13.919  -7.632  1.00  0.00     0.209 HD
ENDBRANCH  21  22
ENDBRANCH  13  21
ENDBRANCH   8   9
ENDBRANCH   7   8
ENDBRANCH   1   7
BRANCH   2  24
HETATM   24  O   UNL     1     -17.599 -13.147  -2.709  1.00  0.00    -0.348 OA
BRANCH  24  25
HETATM   25  C   UNL     1     -17.293 -13.429  -4.076  1.00  0.00     0.292 C 
HETATM   26  C   UNL     1     -15.780 -13.525  -4.386  1.00  0.00     0.204 C 
HETATM   27  C   UNL     1     -15.150 -12.123  -4.458  1.00  0.00     0.183 C 
HETATM   28  C   UNL     1     -15.923 -11.244  -5.448  1.00  0.00     0.180 C 
HETATM   29  C   UNL     1     -17.374 -11.166  -4.945  1.00  0.00     0.179 C 
HETATM   30  O   UNL     1     -17.966 -12.470  -4.916  1.00  0.00    -0.348 OA
BRANCH  26  31
HETATM   31  O   UNL     1     -15.577 -14.228  -5.627  1.00  0.00    -0.388 OA
HETATM   32  H   UNL     1     -16.474 -14.404  -5.992  1.00  0.00     0.210 HD
ENDBRANCH  26  31
BRANCH  27  33
HETATM   33  O   UNL     1     -13.779 -12.223  -4.848  1.00  0.00    -0.390 OA
HETATM   34  H   UNL     1     -13.317 -11.498  -4.382  1.00  0.00     0.210 HD
ENDBRANCH  27  33
BRANCH  28  35
HETATM   35  O   UNL     1     -15.859 -11.861  -6.753  1.00  0.00    -0.390 OA
HETATM   36  H   UNL     1     -14.917 -11.896  -7.002  1.00  0.00     0.210 HD
ENDBRANCH  28  35
BRANCH  29  37
HETATM   37  C   UNL     1     -18.243 -10.266  -5.829  1.00  0.00     0.198 C 
BRANCH  37  38
HETATM   38  O   UNL     1     -18.665 -10.957  -7.000  1.00  0.00    -0.398 OA
HETATM   39  H   UNL     1     -18.063 -11.713  -7.124  1.00  0.00     0.209 HD
ENDBRANCH  37  38
ENDBRANCH  29  37
ENDBRANCH  24  25
ENDBRANCH   2  24
BRANCH   3  40
HETATM   40  O   UNL     1     -16.971 -14.117  -0.139  1.00  0.00    -0.390 OA
HETATM   41  H   UNL     1     -16.581 -13.252   0.110  1.00  0.00     0.210 HD
ENDBRANCH   3  40
BRANCH   5  42
HETATM   42  O   UNL     1     -20.560 -10.809  -0.267  1.00  0.00    -0.348 OA
BRANCH  42  43
HETATM   43  C   UNL     1     -21.398 -10.247  -1.308  1.00  0.00     0.187 C 
HETATM   44  C   UNL     1     -20.713  -9.059  -2.016  1.00  0.00     0.180 C 
HETATM   45  O   UNL     1     -20.647  -7.847  -1.257  1.00  0.00    -0.349 OA
HETATM   46  C   UNL     1     -21.747  -7.470  -0.460  1.00  0.00     0.288 C 
HETATM   47  C   UNL     1     -22.516  -8.591   0.251  1.00  0.00     0.204 C 
HETATM   48  C   UNL     1     -22.730  -9.779  -0.693  1.00  0.00     0.183 C 
BRANCH  44  49
HETATM   49  C   UNL     1     -21.245  -8.847  -3.437  1.00  0.00     0.198 C 
BRANCH  49  50
HETATM   50  O   UNL     1     -21.171  -7.471  -3.808  1.00  0.00    -0.398 OA
HETATM   51  H   UNL     1     -21.266  -6.923  -3.005  1.00  0.00     0.209 HD
ENDBRANCH  49  50
ENDBRANCH  44  49
BRANCH  46  52
HETATM   52  O   UNL     1     -22.675  -6.715  -1.238  1.00  0.00    -0.369 OA
HETATM   53  H   UNL     1     -22.231  -5.874  -1.419  1.00  0.00     0.212 HD
ENDBRANCH  46  52
BRANCH  47  54
HETATM   54  O   UNL     1     -23.780  -8.066   0.702  1.00  0.00    -0.388 OA
HETATM   55  H   UNL     1     -23.812  -7.137   0.400  1.00  0.00     0.210 HD
ENDBRANCH  47  54
BRANCH  48  56
HETATM   56  O   UNL     1     -23.349 -10.883  -0.011  1.00  0.00    -0.390 OA
HETATM   57  H   UNL     1     -23.522 -11.566  -0.685  1.00  0.00     0.210 HD
ENDBRANCH  48  56
ENDBRANCH  42  43
ENDBRANCH   5  42
BRANCH   4  58
HETATM   58  O   UNL     1     -17.802 -11.476  -0.643  1.00  0.00    -0.388 OA
HETATM   59  H   UNL     1     -18.011 -11.404  -1.598  1.00  0.00     0.210 HD
ENDBRANCH   4  58
TORSDOF 24
BEGIN_RES ARG D 557
REMARK  4 active torsions:
REMARK  status: ('A' for Active; 'I' for Inactive)
REMARK    1  A    between atoms: CA   and  CB  
REMARK    2  A    between atoms: CB   and  CG  
REMARK    3  A    between atoms: CG   and  CD  
REMARK    4  A    between atoms: CD   and  NE  
REMARK       I    between atoms: NE   and  CZ  
REMARK       I    between atoms: CZ   and  NH1 
REMARK       I    between atoms: CZ   and  NH2 
ROOT
ATOM      1  CA  ARG D 557     -26.217   2.705 -17.014  1.00 35.49     0.159 C 
ENDROOT
BRANCH   1   2
ATOM      2  CB  ARG D 557     -26.789   1.319 -17.183  1.00 35.49     0.034 C 
BRANCH   2   3
ATOM      3  CG  ARG D 557     -25.866   0.195 -16.984  1.00 35.49     0.027 C 
BRANCH   3   4
ATOM      4  CD  ARG D 557     -26.281  -0.684 -15.866  1.00 35.49     0.116 C 
BRANCH   4   5
ATOM      5  NE  ARG D 557     -25.216  -0.900 -14.922  1.00 35.49    -0.212 N 
ATOM      6  CZ  ARG D 557     -24.908  -2.048 -14.361  1.00 35.49     0.666 C 
ATOM      7  NH1 ARG D 557     -25.578  -3.159 -14.605  1.00 35.49    -0.235 N 
ATOM      8  NH2 ARG D 557     -23.895  -2.064 -13.544  1.00 35.49    -0.235 N 
ATOM      9  HH  ARG D 557     -26.247  -3.172 -15.141  1.00 35.49     0.174 HD
ATOM     10  HH  ARG D 557     -25.330  -3.878 -14.212  1.00 35.49     0.174 HD
ATOM     11  HH  ARG D 557     -23.476  -1.333 -13.412  1.00 35.49     0.174 HD
ATOM     12  HH  ARG D 557     -23.664  -2.787 -13.166  1.00 35.49     0.174 HD
ATOM     13  HE  ARG D 557     -24.777  -0.223 -14.653  1.00 35.49     0.178 HD
ENDBRANCH   4   5
ENDBRANCH   3   4
ENDBRANCH   2   3
ENDBRANCH   1   2
END_RES ARG D 557
BEGIN_RES GLU D 570
REMARK  3 active torsions:
REMARK  status: ('A' for Active; 'I' for Inactive)
REMARK    5  A    between atoms: CA   and  CB  
REMARK    6  A    between atoms: CB   and  CG  
REMARK    7  A    between atoms: CG   and  CD  
ROOT
ATOM     14  CA  GLU D 570     -18.033  -6.348 -13.375  1.00 32.92     0.160 C 
ENDROOT
BRANCH  14  15
ATOM     15  CB  GLU D 570     -19.500  -6.345 -13.794  1.00 32.92     0.043 C 
BRANCH  15  16
ATOM     16  CG  GLU D 570     -20.447  -5.555 -12.966  1.00 32.92     0.100 C 
BRANCH  16  17
ATOM     17  CD  GLU D 570     -21.693  -5.151 -13.718  1.00 32.92     0.185 C 
ATOM     18  OE1 GLU D 570     -22.723  -4.868 -13.076  1.00 32.92    -0.647 OA
ATOM     19  OE2 GLU D 570     -21.644  -5.133 -14.964  1.00 32.92    -0.647 OA
ENDBRANCH  16  17
ENDBRANCH  15  16
ENDBRANCH  14  15
END_RES GLU D 570
ENDMDL
MODEL 6
REMARK VINA RESULT:      -5.3      1.776      3.115
REMARK  24 active torsions:
REMARK  status: ('A' for Active; 'I' for Inactive)
REMARK    1  A    between atoms: C_1  and  C_2 
REMARK    2  A    between atoms: C_1  and  O_45 
REMARK    3  A    between atoms: C_3  and  O_44 
REMARK    4  A    between atoms: C_4  and  O_43 
REMARK    5  A    between atoms: C_5  and  O_42 
REMARK    6  A    between atoms: C_6  and  O_8 
REMARK    7  A    between atoms: O_8  and  C_9 
REMARK    8  A    between atoms: C_9  and  C_10 
REMARK    9  A    between atoms: C_11  and  O_30 
REMARK   10  A    between atoms: C_12  and  O_29 
REMARK   11  A    between atoms: C_13  and  O_28 
REMARK   12  A    between atoms: C_14  and  O_16 
REMARK   13  A    between atoms: O_16  and  C_17 
REMARK   14  A    between atoms: C_18  and  C_26 
REMARK   15  A    between atoms: C_20  and  O_25 
REMARK   16  A    between atoms: C_21  and  O_24 
REMARK   17  A    between atoms: C_22  and  O_23 
REMARK   18  A    between atoms: C_26  and  O_27 
REMARK   19  A    between atoms: O_30  and  C_31 
REMARK   20  A    between atoms: C_32  and  O_41 
REMARK   21  A    between atoms: C_33  and  O_40 
REMARK   22  A    between atoms: C_34  and  O_39 
REMARK   23  A    between atoms: C_35  and  C_37 
REMARK   24  A    between atoms: C_37  and  O_38 
ROOT
HETATM    1  C   UNL     1     -17.245 -11.278  -3.574  1.00  0.00     0.180 C 
HETATM    2  C   UNL     1     -17.620 -10.846  -5.015  1.00  0.00     0.187 C 
HETATM    3  C   UNL     1     -18.264  -9.437  -4.940  1.00  0.00     0.183 C 
HETATM    4  C   UNL     1     -19.500  -9.429  -4.027  1.00  0.00     0.204 C 
HETATM    5  C   UNL     1     -19.078  -9.943  -2.628  1.00  0.00     0.292 C 
HETATM    6  O   UNL     1     -18.380 -11.182  -2.715  1.00  0.00    -0.348 OA
ENDROOT
BRANCH   1   7
HETATM    7  C   UNL     1     -15.969 -10.571  -3.041  1.00  0.00     0.205 C 
BRANCH   7   8
HETATM    8  O   UNL     1     -15.720 -10.914  -1.664  1.00  0.00    -0.356 OA
BRANCH   8   9
HETATM    9  C   UNL     1     -15.854 -12.332  -1.359  1.00  0.00     0.291 C 
HETATM   10  C   UNL     1     -16.412 -12.484   0.073  1.00  0.00     0.204 C 
HETATM   11  C   UNL     1     -16.338 -13.941   0.532  1.00  0.00     0.183 C 
HETATM   12  C   UNL     1     -14.899 -14.460   0.450  1.00  0.00     0.180 C 
HETATM   13  C   UNL     1     -14.359 -14.260  -0.977  1.00  0.00     0.179 C 
HETATM   14  O   UNL     1     -14.540 -12.904  -1.452  1.00  0.00    -0.348 OA
BRANCH  10  15
HETATM   15  O   UNL     1     -15.635 -11.660   0.972  1.00  0.00    -0.388 OA
HETATM   16  H   UNL     1     -16.008 -11.801   1.866  1.00  0.00     0.210 HD
ENDBRANCH  10  15
BRANCH  11  17
HETATM   17  O   UNL     1     -16.837 -14.047   1.867  1.00  0.00    -0.390 OA
HETATM   18  H   UNL     1     -17.792 -14.266   1.775  1.00  0.00     0.210 HD
ENDBRANCH  11  17
BRANCH  12  19
HETATM   19  O   UNL     1     -14.056 -13.760   1.383  1.00  0.00    -0.390 OA
HETATM   20  H   UNL     1     -13.670 -12.996   0.907  1.00  0.00     0.210 HD
ENDBRANCH  12  19
BRANCH  13  21
HETATM   21  C   UNL     1     -14.907 -15.318  -1.950  1.00  0.00     0.198 C 
BRANCH  21  22
HETATM   22  O   UNL     1     -13.972 -15.607  -2.986  1.00  0.00    -0.398 OA
HETATM   23  H   UNL     1     -13.331 -14.875  -3.032  1.00  0.00     0.209 HD
ENDBRANCH  21  22
ENDBRANCH  13  21
ENDBRANCH   8   9
ENDBRANCH   7   8
ENDBRANCH   1   7
BRANCH   2  24
HETATM   24  O   UNL     1     -18.593 -11.733  -5.636  1.00  0.00    -0.348 OA
BRANCH  24  25
HETATM   25  C   UNL     1     -18.256 -12.279  -6.913  1.00  0.00     0.292 C 
HETATM   26  C   UNL     1     -19.285 -13.294  -7.466  1.00  0.00     0.204 C 
HETATM   27  C   UNL     1     -19.140 -14.654  -6.764  1.00  0.00     0.183 C 
HETATM   28  C   UNL     1     -17.690 -15.145  -6.851  1.00  0.00     0.180 C 
HETATM   29  C   UNL     1     -16.812 -14.082  -6.171  1.00  0.00     0.179 C 
HETATM   30  O   UNL     1     -16.924 -12.827  -6.853  1.00  0.00    -0.348 OA
BRANCH  26  31
HETATM   31  O   UNL     1     -19.109 -13.444  -8.889  1.00  0.00    -0.388 OA
HETATM   32  H   UNL     1     -18.573 -12.672  -9.182  1.00  0.00     0.210 HD
ENDBRANCH  26  31
BRANCH  27  33
HETATM   33  O   UNL     1     -20.024 -15.608  -7.358  1.00  0.00    -0.390 OA
HETATM   34  H   UNL     1     -20.093 -16.342  -6.716  1.00  0.00     0.210 HD
ENDBRANCH  27  33
BRANCH  28  35
HETATM   35  O   UNL     1     -17.341 -15.290  -8.246  1.00  0.00    -0.390 OA
HETATM   36  H   UNL     1     -17.630 -16.181  -8.517  1.00  0.00     0.210 HD
ENDBRANCH  28  35
BRANCH  29  37
HETATM   37  C   UNL     1     -15.334 -14.483  -6.148  1.00  0.00     0.198 C 
BRANCH  37  38
HETATM   38  O   UNL     1     -15.172 -15.803  -5.641  1.00  0.00    -0.398 OA
HETATM   39  H   UNL     1     -16.051 -16.225  -5.645  1.00  0.00     0.209 HD
ENDBRANCH  37  38
ENDBRANCH  29  37
ENDBRANCH  24  25
ENDBRANCH   2  24
BRANCH   3  40
HETATM   40  O   UNL     1     -18.598  -8.984  -6.254  1.00  0.00    -0.390 OA
HETATM   41  H   UNL     1     -17.942  -9.397  -6.856  1.00  0.00     0.210 HD
ENDBRANCH   3  40
BRANCH   5  42
HETATM   42  O   UNL     1     -20.247 -10.091  -1.794  1.00  0.00    -0.348 OA
BRANCH  42  43
HETATM   43  C   UNL     1     -21.312  -9.171  -2.145  1.00  0.00     0.187 C 
HETATM   44  C   UNL     1     -21.173  -7.825  -1.405  1.00  0.00     0.180 C 
HETATM   45  O   UNL     1     -21.504  -7.854  -0.012  1.00  0.00    -0.349 OA
HETATM   46  C   UNL     1     -22.600  -8.626   0.422  1.00  0.00     0.288 C 
HETATM   47  C   UNL     1     -22.841  -9.964  -0.287  1.00  0.00     0.204 C 
HETATM   48  C   UNL     1     -22.670  -9.809  -1.802  1.00  0.00     0.183 C 
BRANCH  44  49
HETATM   49  C   UNL     1     -21.854  -6.677  -2.158  1.00  0.00     0.198 C 
BRANCH  49  50
HETATM   50  O   UNL     1     -22.357  -5.699  -1.249  1.00  0.00    -0.398 OA
HETATM   51  H   UNL     1     -22.064  -5.928  -0.345  1.00  0.00     0.209 HD
ENDBRANCH  49  50
ENDBRANCH  44  49
BRANCH  46  52
HETATM   52  O   UNL     1     -23.799  -7.856   0.342  1.00  0.00    -0.369 OA
HETATM   53  H   UNL     1     -23.955  -7.533   1.242  1.00  0.00     0.212 HD
ENDBRANCH  46  52
BRANCH  47  54
HETATM   54  O   UNL     1     -24.171 -10.421   0.031  1.00  0.00    -0.388 OA
HETATM   55  H   UNL     1     -24.763 -10.008  -0.628  1.00  0.00     0.210 HD
ENDBRANCH  47  54
BRANCH  48  56
HETATM   56  O   UNL     1     -22.780 -11.076  -2.473  1.00  0.00    -0.390 OA
HETATM   57  H   UNL     1     -23.637 -11.459  -2.207  1.00  0.00     0.210 HD
ENDBRANCH  48  56
ENDBRANCH  42  43
ENDBRANCH   5  42
BRANCH   4  58
HETATM   58  O   UNL     1     -20.544 -10.217  -4.638  1.00  0.00    -0.388 OA
HETATM   59  H   UNL     1     -20.682  -9.859  -5.539  1.00  0.00     0.210 HD
ENDBRANCH   4  58
TORSDOF 24
BEGIN_RES ARG D 557
REMARK  4 active torsions:
REMARK  status: ('A' for Active; 'I' for Inactive)
REMARK    1  A    between atoms: CA   and  CB  
REMARK    2  A    between atoms: CB   and  CG  
REMARK    3  A    between atoms: CG   and  CD  
REMARK    4  A    between atoms: CD   and  NE  
REMARK       I    between atoms: NE   and  CZ  
REMARK       I    between atoms: CZ   and  NH1 
REMARK       I    between atoms: CZ   and  NH2 
ROOT
ATOM      1  CA  ARG D 557     -26.217   2.705 -17.014  1.00 35.49     0.159 C 
ENDROOT
BRANCH   1   2
ATOM      2  CB  ARG D 557     -26.789   1.319 -17.183  1.00 35.49     0.034 C 
BRANCH   2   3
ATOM      3  CG  ARG D 557     -25.865   0.195 -16.989  1.00 35.49     0.027 C 
BRANCH   3   4
ATOM      4  CD  ARG D 557     -26.287  -0.698 -15.885  1.00 35.49     0.116 C 
BRANCH   4   5
ATOM      5  NE  ARG D 557     -25.233  -0.912 -14.929  1.00 35.49    -0.212 N 
ATOM      6  CZ  ARG D 557     -24.937  -2.058 -14.356  1.00 35.49     0.666 C 
ATOM      7  NH1 ARG D 557     -25.610  -3.167 -14.599  1.00 35.49    -0.235 N 
ATOM      8  NH2 ARG D 557     -23.933  -2.073 -13.528  1.00 35.49    -0.235 N 
ATOM      9  HH  ARG D 557     -26.273  -3.180 -15.142  1.00 35.49     0.174 HD
ATOM     10  HH  ARG D 557     -25.370  -3.885 -14.198  1.00 35.49     0.174 HD
ATOM     11  HH  ARG D 557     -23.511  -1.344 -13.396  1.00 35.49     0.174 HD
ATOM     12  HH  ARG D 557     -23.709  -2.795 -13.142  1.00 35.49     0.174 HD
ATOM     13  HE  ARG D 557     -24.794  -0.236 -14.659  1.00 35.49     0.178 HD
ENDBRANCH   4   5
ENDBRANCH   3   4
ENDBRANCH   2   3
ENDBRANCH   1   2
END_RES ARG D 557
BEGIN_RES GLU D 570
REMARK  3 active torsions:
REMARK  status: ('A' for Active; 'I' for Inactive)
REMARK    5  A    between atoms: CA   and  CB  
REMARK    6  A    between atoms: CB   and  CG  
REMARK    7  A    between atoms: CG   and  CD  
ROOT
ATOM     14  CA  GLU D 570     -18.033  -6.348 -13.375  1.00 32.92     0.160 C 
ENDROOT
BRANCH  14  15
ATOM     15  CB  GLU D 570     -19.500  -6.345 -13.794  1.00 32.92     0.043 C 
BRANCH  15  16
ATOM     16  CG  GLU D 570     -19.797  -6.237 -15.246  1.00 32.92     0.100 C 
BRANCH  16  17
ATOM     17  CD  GLU D 570     -21.047  -5.439 -15.534  1.00 32.92     0.185 C 
ATOM     18  OE1 GLU D 570     -21.771  -5.085 -14.584  1.00 32.92    -0.647 OA
ATOM     19  OE2 GLU D 570     -21.313  -5.179 -16.724  1.00 32.92    -0.647 OA
ENDBRANCH  16  17
ENDBRANCH  15  16
ENDBRANCH  14  15
END_RES GLU D 570
ENDMDL
MODEL 7
REMARK VINA RESULT:      -5.3      2.058      5.038
REMARK  24 active torsions:
REMARK  status: ('A' for Active; 'I' for Inactive)
REMARK    1  A    between atoms: C_1  and  C_2 
REMARK    2  A    between atoms: C_1  and  O_45 
REMARK    3  A    between atoms: C_3  and  O_44 
REMARK    4  A    between atoms: C_4  and  O_43 
REMARK    5  A    between atoms: C_5  and  O_42 
REMARK    6  A    between atoms: C_6  and  O_8 
REMARK    7  A    between atoms: O_8  and  C_9 
REMARK    8  A    between atoms: C_9  and  C_10 
REMARK    9  A    between atoms: C_11  and  O_30 
REMARK   10  A    between atoms: C_12  and  O_29 
REMARK   11  A    between atoms: C_13  and  O_28 
REMARK   12  A    between atoms: C_14  and  O_16 
REMARK   13  A    between atoms: O_16  and  C_17 
REMARK   14  A    between atoms: C_18  and  C_26 
REMARK   15  A    between atoms: C_20  and  O_25 
REMARK   16  A    between atoms: C_21  and  O_24 
REMARK   17  A    between atoms: C_22  and  O_23 
REMARK   18  A    between atoms: C_26  and  O_27 
REMARK   19  A    between atoms: O_30  and  C_31 
REMARK   20  A    between atoms: C_32  and  O_41 
REMARK   21  A    between atoms: C_33  and  O_40 
REMARK   22  A    between atoms: C_34  and  O_39 
REMARK   23  A    between atoms: C_35  and  C_37 
REMARK   24  A    between atoms: C_37  and  O_38 
ROOT
HETATM    1  C   UNL     1     -19.587 -12.742  -4.714  1.00  0.00     0.180 C 
HETATM    2  C   UNL     1     -20.862 -13.595  -4.492  1.00  0.00     0.187 C 
HETATM    3  C   UNL     1     -21.872 -13.248  -5.616  1.00  0.00     0.183 C 
HETATM    4  C   UNL     1     -22.212 -11.748  -5.627  1.00  0.00     0.204 C 
HETATM    5  C   UNL     1     -20.892 -10.950  -5.774  1.00  0.00     0.292 C 
HETATM    6  O   UNL     1     -19.924 -11.358  -4.813  1.00  0.00    -0.348 OA
ENDROOT
BRANCH   1   7
HETATM    7  C   UNL     1     -18.696 -13.273  -5.870  1.00  0.00     0.205 C 
BRANCH   7   8
HETATM    8  O   UNL     1     -17.485 -13.867  -5.362  1.00  0.00    -0.356 OA
BRANCH   8   9
HETATM    9  C   UNL     1     -16.515 -12.915  -4.842  1.00  0.00     0.291 C 
HETATM   10  C   UNL     1     -15.241 -12.973  -5.713  1.00  0.00     0.204 C 
HETATM   11  C   UNL     1     -14.104 -12.179  -5.067  1.00  0.00     0.183 C 
HETATM   12  C   UNL     1     -13.820 -12.696  -3.654  1.00  0.00     0.180 C 
HETATM   13  C   UNL     1     -15.116 -12.662  -2.823  1.00  0.00     0.179 C 
HETATM   14  O   UNL     1     -16.221 -13.314  -3.493  1.00  0.00    -0.348 OA
BRANCH  10  15
HETATM   15  O   UNL     1     -14.834 -14.353  -5.864  1.00  0.00    -0.388 OA
HETATM   16  H   UNL     1     -14.850 -14.743  -4.966  1.00  0.00     0.210 HD
ENDBRANCH  10  15
BRANCH  11  17
HETATM   17  O   UNL     1     -12.934 -12.272  -5.882  1.00  0.00    -0.390 OA
HETATM   18  H   UNL     1     -13.140 -11.762  -6.698  1.00  0.00     0.210 HD
ENDBRANCH  11  17
BRANCH  12  19
HETATM   19  O   UNL     1     -13.318 -14.044  -3.700  1.00  0.00    -0.390 OA
HETATM   20  H   UNL     1     -12.716 -14.103  -4.469  1.00  0.00     0.210 HD
ENDBRANCH  12  19
BRANCH  13  21
HETATM   21  C   UNL     1     -15.452 -11.238  -2.346  1.00  0.00     0.198 C 
BRANCH  21  22
HETATM   22  O   UNL     1     -16.499 -11.246  -1.379  1.00  0.00    -0.398 OA
HETATM   23  H   UNL     1     -16.141 -10.905  -0.539  1.00  0.00     0.209 HD
ENDBRANCH  21  22
ENDBRANCH  13  21
ENDBRANCH   8   9
ENDBRANCH   7   8
ENDBRANCH   1   7
BRANCH   2  24
HETATM   24  O   UNL     1     -21.516 -13.313  -3.221  1.00  0.00    -0.348 OA
BRANCH  24  25
HETATM   25  C   UNL     1     -20.793 -12.519  -2.279  1.00  0.00     0.292 C 
HETATM   26  C   UNL     1     -20.130 -13.326  -1.137  1.00  0.00     0.204 C 
HETATM   27  C   UNL     1     -21.176 -13.749  -0.091  1.00  0.00     0.183 C 
HETATM   28  C   UNL     1     -21.960 -12.526   0.401  1.00  0.00     0.180 C 
HETATM   29  C   UNL     1     -22.639 -11.901  -0.830  1.00  0.00     0.179 C 
HETATM   30  O   UNL     1     -21.657 -11.477  -1.783  1.00  0.00    -0.348 OA
BRANCH  26  31
HETATM   31  O   UNL     1     -19.093 -12.540  -0.518  1.00  0.00    -0.388 OA
HETATM   32  H   UNL     1     -18.376 -12.458  -1.187  1.00  0.00     0.210 HD
ENDBRANCH  26  31
BRANCH  27  33
HETATM   33  O   UNL     1     -20.534 -14.401   1.007  1.00  0.00    -0.390 OA
HETATM   34  H   UNL     1     -20.267 -13.688   1.620  1.00  0.00     0.210 HD
ENDBRANCH  27  33
BRANCH  28  35
HETATM   35  O   UNL     1     -21.029 -11.601   1.005  1.00  0.00    -0.390 OA
HETATM   36  H   UNL     1     -20.507 -11.213   0.278  1.00  0.00     0.210 HD
ENDBRANCH  28  35
BRANCH  29  37
HETATM   37  C   UNL     1     -23.500 -10.690  -0.460  1.00  0.00     0.198 C 
BRANCH  37  38
HETATM   38  O   UNL     1     -22.728  -9.495  -0.463  1.00  0.00    -0.398 OA
HETATM   39  H   UNL     1     -23.308  -8.773  -0.161  1.00  0.00     0.209 HD
ENDBRANCH  37  38
ENDBRANCH  29  37
ENDBRANCH  24  25
ENDBRANCH   2  24
BRANCH   3  40
HETATM   40  O   UNL     1     -23.055 -14.036  -5.468  1.00  0.00    -0.390 OA
HETATM   41  H   UNL     1     -22.876 -14.653  -4.726  1.00  0.00     0.210 HD
ENDBRANCH   3  40
BRANCH   5  42
HETATM   42  O   UNL     1     -21.163  -9.539  -5.635  1.00  0.00    -0.348 OA
BRANCH  42  43
HETATM   43  C   UNL     1     -20.257  -8.879  -4.714  1.00  0.00     0.187 C 
HETATM   44  C   UNL     1     -20.806  -8.880  -3.273  1.00  0.00     0.180 C 
HETATM   45  O   UNL     1     -21.892  -7.979  -3.028  1.00  0.00    -0.349 OA
HETATM   46  C   UNL     1     -21.879  -6.703  -3.625  1.00  0.00     0.288 C 
HETATM   47  C   UNL     1     -21.312  -6.598  -5.047  1.00  0.00     0.204 C 
HETATM   48  C   UNL     1     -20.030  -7.428  -5.176  1.00  0.00     0.183 C 
BRANCH  44  49
HETATM   49  C   UNL     1     -19.689  -8.768  -2.228  1.00  0.00     0.198 C 
BRANCH  49  50
HETATM   50  O   UNL     1     -18.867  -9.933  -2.235  1.00  0.00    -0.398 OA
HETATM   51  H   UNL     1     -19.420 -10.710  -2.022  1.00  0.00     0.209 HD
ENDBRANCH  49  50
ENDBRANCH  44  49
BRANCH  46  52
HETATM   52  O   UNL     1     -21.172  -5.784  -2.793  1.00  0.00    -0.369 OA
HETATM   53  H   UNL     1     -21.277  -6.123  -1.892  1.00  0.00     0.212 HD
ENDBRANCH  46  52
BRANCH  47  54
HETATM   54  O   UNL     1     -21.051  -5.211  -5.337  1.00  0.00    -0.388 OA
HETATM   55  H   UNL     1     -20.078  -5.117  -5.361  1.00  0.00     0.210 HD
ENDBRANCH  47  54
BRANCH  48  56
HETATM   56  O   UNL     1     -19.546  -7.433  -6.531  1.00  0.00    -0.390 OA
HETATM   57  H   UNL     1     -20.021  -8.147  -6.994  1.00  0.00     0.210 HD
ENDBRANCH  48  56
ENDBRANCH  42  43
ENDBRANCH   5  42
BRANCH   4  58
HETATM   58  O   UNL     1     -22.951 -11.422  -4.432  1.00  0.00    -0.388 OA
HETATM   59  H   UNL     1     -23.021 -10.445  -4.397  1.00  0.00     0.210 HD
ENDBRANCH   4  58
TORSDOF 24
BEGIN_RES ARG D 557
REMARK  4 active torsions:
REMARK  status: ('A' for Active; 'I' for Inactive)
REMARK    1  A    between atoms: CA   and  CB  
REMARK    2  A    between atoms: CB   and  CG  
REMARK    3  A    between atoms: CG   and  CD  
REMARK    4  A    between atoms: CD   and  NE  
REMARK       I    between atoms: NE   and  CZ  
REMARK       I    between atoms: CZ   and  NH1 
REMARK       I    between atoms: CZ   and  NH2 
ROOT
ATOM      1  CA  ARG D 557     -26.217   2.705 -17.014  1.00 35.49     0.159 C 
ENDROOT
BRANCH   1   2
ATOM      2  CB  ARG D 557     -26.789   1.319 -17.183  1.00 35.49     0.034 C 
BRANCH   2   3
ATOM      3  CG  ARG D 557     -28.227   1.162 -16.932  1.00 35.49     0.027 C 
BRANCH   3   4
ATOM      4  CD  ARG D 557     -28.626  -0.258 -16.801  1.00 35.49     0.116 C 
BRANCH   4   5
ATOM      5  NE  ARG D 557     -27.639  -1.036 -16.099  1.00 35.49    -0.212 N 
ATOM      6  CZ  ARG D 557     -27.502  -2.341 -16.164  1.00 35.49     0.666 C 
ATOM      7  NH1 ARG D 557     -28.294  -3.102 -16.897  1.00 35.49    -0.235 N 
ATOM      8  NH2 ARG D 557     -26.537  -2.878 -15.476  1.00 35.49    -0.235 N 
ATOM      9  HH  ARG D 557     -28.934  -2.769 -17.360  1.00 35.49     0.174 HD
ATOM     10  HH  ARG D 557     -28.155  -3.947 -16.903  1.00 35.49     0.174 HD
ATOM     11  HH  ARG D 557     -26.037  -2.362 -15.017  1.00 35.49     0.174 HD
ATOM     12  HH  ARG D 557     -26.415  -3.717 -15.495  1.00 35.49     0.174 HD
ATOM     13  HE  ARG D 557     -27.133  -0.634 -15.547  1.00 35.49     0.178 HD
ENDBRANCH   4   5
ENDBRANCH   3   4
ENDBRANCH   2   3
ENDBRANCH   1   2
END_RES ARG D 557
BEGIN_RES GLU D 570
REMARK  3 active torsions:
REMARK  status: ('A' for Active; 'I' for Inactive)
REMARK    5  A    between atoms: CA   and  CB  
REMARK    6  A    between atoms: CB   and  CG  
REMARK    7  A    between atoms: CG   and  CD  
ROOT
ATOM     14  CA  GLU D 570     -18.033  -6.348 -13.375  1.00 32.92     0.160 C 
ENDROOT
BRANCH  14  15
ATOM     15  CB  GLU D 570     -19.500  -6.345 -13.794  1.00 32.92     0.043 C 
BRANCH  15  16
ATOM     16  CG  GLU D 570     -20.448  -5.560 -12.962  1.00 32.92     0.100 C 
BRANCH  16  17
ATOM     17  CD  GLU D 570     -21.707  -5.178 -13.704  1.00 32.92     0.185 C 
ATOM     18  OE1 GLU D 570     -21.717  -5.237 -14.949  1.00 32.92    -0.647 OA
ATOM     19  OE2 GLU D 570     -22.689  -4.800 -13.035  1.00 32.92    -0.647 OA
ENDBRANCH  16  17
ENDBRANCH  15  16
ENDBRANCH  14  15
END_RES GLU D 570
ENDMDL
MODEL 8
REMARK VINA RESULT:      -5.2      2.636      6.353
REMARK  24 active torsions:
REMARK  status: ('A' for Active; 'I' for Inactive)
REMARK    1  A    between atoms: C_1  and  C_2 
REMARK    2  A    between atoms: C_1  and  O_45 
REMARK    3  A    between atoms: C_3  and  O_44 
REMARK    4  A    between atoms: C_4  and  O_43 
REMARK    5  A    between atoms: C_5  and  O_42 
REMARK    6  A    between atoms: C_6  and  O_8 
REMARK    7  A    between atoms: O_8  and  C_9 
REMARK    8  A    between atoms: C_9  and  C_10 
REMARK    9  A    between atoms: C_11  and  O_30 
REMARK   10  A    between atoms: C_12  and  O_29 
REMARK   11  A    between atoms: C_13  and  O_28 
REMARK   12  A    between atoms: C_14  and  O_16 
REMARK   13  A    between atoms: O_16  and  C_17 
REMARK   14  A    between atoms: C_18  and  C_26 
REMARK   15  A    between atoms: C_20  and  O_25 
REMARK   16  A    between atoms: C_21  and  O_24 
REMARK   17  A    between atoms: C_22  and  O_23 
REMARK   18  A    between atoms: C_26  and  O_27 
REMARK   19  A    between atoms: O_30  and  C_31 
REMARK   20  A    between atoms: C_32  and  O_41 
REMARK   21  A    between atoms: C_33  and  O_40 
REMARK   22  A    between atoms: C_34  and  O_39 
REMARK   23  A    between atoms: C_35  and  C_37 
REMARK   24  A    between atoms: C_37  and  O_38 
ROOT
HETATM    1  C   UNL     1     -19.809  -9.653  -3.400  1.00  0.00     0.180 C 
HETATM    2  C   UNL     1     -20.621  -9.557  -4.718  1.00  0.00     0.187 C 
HETATM    3  C   UNL     1     -20.514 -10.921  -5.447  1.00  0.00     0.183 C 
HETATM    4  C   UNL     1     -19.051 -11.296  -5.732  1.00  0.00     0.204 C 
HETATM    5  C   UNL     1     -18.276 -11.300  -4.390  1.00  0.00     0.292 C 
HETATM    6  O   UNL     1     -18.476 -10.088  -3.668  1.00  0.00    -0.348 OA
ENDROOT
BRANCH   1   7
HETATM    7  C   UNL     1     -20.542 -10.459  -2.294  1.00  0.00     0.205 C 
BRANCH   7   8
HETATM    8  O   UNL     1     -19.717 -10.601  -1.120  1.00  0.00    -0.356 OA
BRANCH   8   9
HETATM    9  C   UNL     1     -20.068 -11.725  -0.265  1.00  0.00     0.291 C 
HETATM   10  C   UNL     1     -18.869 -12.696  -0.198  1.00  0.00     0.204 C 
HETATM   11  C   UNL     1     -19.268 -14.007   0.481  1.00  0.00     0.183 C 
HETATM   12  C   UNL     1     -20.451 -14.653  -0.248  1.00  0.00     0.180 C 
HETATM   13  C   UNL     1     -21.615 -13.649  -0.332  1.00  0.00     0.179 C 
HETATM   14  O   UNL     1     -21.204 -12.368  -0.866  1.00  0.00    -0.348 OA
BRANCH  10  15
HETATM   15  O   UNL     1     -18.411 -12.974  -1.542  1.00  0.00    -0.388 OA
HETATM   16  H   UNL     1     -17.714 -13.656  -1.459  1.00  0.00     0.210 HD
ENDBRANCH  10  15
BRANCH  11  17
HETATM   17  O   UNL     1     -18.148 -14.893   0.505  1.00  0.00    -0.390 OA
HETATM   18  H   UNL     1     -17.441 -14.439  -0.007  1.00  0.00     0.210 HD
ENDBRANCH  11  17
BRANCH  12  19
HETATM   19  O   UNL     1     -20.069 -15.053  -1.576  1.00  0.00    -0.390 OA
HETATM   20  H   UNL     1     -20.578 -14.499  -2.203  1.00  0.00     0.210 HD
ENDBRANCH  12  19
BRANCH  13  21
HETATM   21  C   UNL     1     -22.368 -13.532   1.005  1.00  0.00     0.198 C 
BRANCH  21  22
HETATM   22  O   UNL     1     -23.509 -12.687   0.889  1.00  0.00    -0.398 OA
HETATM   23  H   UNL     1     -23.521 -12.311  -0.010  1.00  0.00     0.209 HD
ENDBRANCH  21  22
ENDBRANCH  13  21
ENDBRANCH   8   9
ENDBRANCH   7   8
ENDBRANCH   1   7
BRANCH   2  24
HETATM   24  O   UNL     1     -20.108  -8.541  -5.625  1.00  0.00    -0.348 OA
BRANCH  24  25
HETATM   25  C   UNL     1     -20.139  -7.186  -5.172  1.00  0.00     0.292 C 
HETATM   26  C   UNL     1     -21.494  -6.743  -4.572  1.00  0.00     0.204 C 
HETATM   27  C   UNL     1     -22.519  -6.471  -5.686  1.00  0.00     0.183 C 
HETATM   28  C   UNL     1     -21.947  -5.476  -6.703  1.00  0.00     0.180 C 
HETATM   29  C   UNL     1     -20.667  -6.106  -7.279  1.00  0.00     0.179 C 
HETATM   30  O   UNL     1     -19.704  -6.323  -6.241  1.00  0.00    -0.348 OA
BRANCH  26  31
HETATM   31  O   UNL     1     -21.311  -5.565  -3.762  1.00  0.00    -0.388 OA
HETATM   32  H   UNL     1     -20.795  -5.852  -2.975  1.00  0.00     0.210 HD
ENDBRANCH  26  31
BRANCH  27  33
HETATM   33  O   UNL     1     -23.731  -5.962  -5.123  1.00  0.00    -0.390 OA
HETATM   34  H   UNL     1     -23.601  -4.997  -5.042  1.00  0.00     0.210 HD
ENDBRANCH  27  33
BRANCH  28  35
HETATM   35  O   UNL     1     -21.651  -4.240  -6.016  1.00  0.00    -0.390 OA
HETATM   36  H   UNL     1     -20.703  -4.059  -6.159  1.00  0.00     0.210 HD
ENDBRANCH  28  35
BRANCH  29  37
HETATM   37  C   UNL     1     -20.023  -5.224  -8.352  1.00  0.00     0.198 C 
BRANCH  37  38
HETATM   38  O   UNL     1     -19.292  -4.156  -7.763  1.00  0.00    -0.398 OA
HETATM   39  H   UNL     1     -18.720  -3.778  -8.455  1.00  0.00     0.209 HD
ENDBRANCH  37  38
ENDBRANCH  29  37
ENDBRANCH  24  25
ENDBRANCH   2  24
BRANCH   3  40
HETATM   40  O   UNL     1     -21.276 -10.889  -6.656  1.00  0.00    -0.390 OA
HETATM   41  H   UNL     1     -22.070 -11.440  -6.488  1.00  0.00     0.210 HD
ENDBRANCH   3  40
BRANCH   5  42
HETATM   42  O   UNL     1     -16.869 -11.498  -4.643  1.00  0.00    -0.348 OA
BRANCH  42  43
HETATM   43  C   UNL     1     -16.513 -12.897  -4.785  1.00  0.00     0.187 C 
HETATM   44  C   UNL     1     -15.863 -13.455  -3.502  1.00  0.00     0.180 C 
HETATM   45  O   UNL     1     -14.521 -13.021  -3.255  1.00  0.00    -0.349 OA
HETATM   46  C   UNL     1     -13.624 -12.901  -4.335  1.00  0.00     0.288 C 
HETATM   47  C   UNL     1     -14.191 -12.391  -5.666  1.00  0.00     0.204 C 
HETATM   48  C   UNL     1     -15.538 -13.057  -5.966  1.00  0.00     0.183 C 
BRANCH  44  49
HETATM   49  C   UNL     1     -16.033 -14.974  -3.380  1.00  0.00     0.198 C 
BRANCH  49  50
HETATM   50  O   UNL     1     -17.371 -15.309  -3.019  1.00  0.00    -0.398 OA
HETATM   51  H   UNL     1     -17.746 -15.893  -3.707  1.00  0.00     0.209 HD
ENDBRANCH  49  50
ENDBRANCH  44  49
BRANCH  46  52
HETATM   52  O   UNL     1     -12.979 -14.151  -4.573  1.00  0.00    -0.369 OA
HETATM   53  H   UNL     1     -13.518 -14.808  -4.109  1.00  0.00     0.212 HD
ENDBRANCH  46  52
BRANCH  47  54
HETATM   54  O   UNL     1     -13.240 -12.675  -6.710  1.00  0.00    -0.388 OA
HETATM   55  H   UNL     1     -12.814 -11.822  -6.928  1.00  0.00     0.210 HD
ENDBRANCH  47  54
BRANCH  48  56
HETATM   56  O   UNL     1     -16.139 -12.509  -7.152  1.00  0.00    -0.390 OA
HETATM   57  H   UNL     1     -16.972 -12.086  -6.874  1.00  0.00     0.210 HD
ENDBRANCH  48  56
ENDBRANCH  42  43
ENDBRANCH   5  42
BRANCH   4  58
HETATM   58  O   UNL     1     -18.509 -10.379  -6.705  1.00  0.00    -0.388 OA
HETATM   59  H   UNL     1     -18.390  -9.518  -6.251  1.00  0.00     0.210 HD
ENDBRANCH   4  58
TORSDOF 24
BEGIN_RES ARG D 557
REMARK  4 active torsions:
REMARK  status: ('A' for Active; 'I' for Inactive)
REMARK    1  A    between atoms: CA   and  CB  
REMARK    2  A    between atoms: CB   and  CG  
REMARK    3  A    between atoms: CG   and  CD  
REMARK    4  A    between atoms: CD   and  NE  
REMARK       I    between atoms: NE   and  CZ  
REMARK       I    between atoms: CZ   and  NH1 
REMARK       I    between atoms: CZ   and  NH2 
ROOT
ATOM      1  CA  ARG D 557     -26.217   2.705 -17.014  1.00 35.49     0.159 C 
ENDROOT
BRANCH   1   2
ATOM      2  CB  ARG D 557     -26.789   1.319 -17.183  1.00 35.49     0.034 C 
BRANCH   2   3
ATOM      3  CG  ARG D 557     -28.149   1.099 -16.677  1.00 35.49     0.027 C 
BRANCH   3   4
ATOM      4  CD  ARG D 557     -28.788  -0.096 -17.275  1.00 35.49     0.116 C 
BRANCH   4   5
ATOM      5  NE  ARG D 557     -28.170  -1.318 -16.834  1.00 35.49    -0.212 N 
ATOM      6  CZ  ARG D 557     -28.642  -2.530 -17.025  1.00 35.49     0.666 C 
ATOM      7  NH1 ARG D 557     -29.781  -2.756 -17.653  1.00 35.49    -0.235 N 
ATOM      8  NH2 ARG D 557     -27.937  -3.527 -16.574  1.00 35.49    -0.235 N 
ATOM      9  HH  ARG D 557     -30.260  -2.115 -17.960  1.00 35.49     0.174 HD
ATOM     10  HH  ARG D 557     -30.037  -3.568 -17.751  1.00 35.49     0.174 HD
ATOM     11  HH  ARG D 557     -27.202  -3.351 -16.179  1.00 35.49     0.174 HD
ATOM     12  HH  ARG D 557     -28.207  -4.323 -16.682  1.00 35.49     0.174 HD
ATOM     13  HE  ARG D 557     -27.468  -1.262 -16.357  1.00 35.49     0.178 HD
ENDBRANCH   4   5
ENDBRANCH   3   4
ENDBRANCH   2   3
ENDBRANCH   1   2
END_RES ARG D 557
BEGIN_RES GLU D 570
REMARK  3 active torsions:
REMARK  status: ('A' for Active; 'I' for Inactive)
REMARK    5  A    between atoms: CA   and  CB  
REMARK    6  A    between atoms: CB   and  CG  
REMARK    7  A    between atoms: CG   and  CD  
ROOT
ATOM     14  CA  GLU D 570     -18.033  -6.348 -13.375  1.00 32.92     0.160 C 
ENDROOT
BRANCH  14  15
ATOM     15  CB  GLU D 570     -19.500  -6.345 -13.794  1.00 32.92     0.043 C 
BRANCH  15  16
ATOM     16  CG  GLU D 570     -20.448  -5.562 -12.961  1.00 32.92     0.100 C 
BRANCH  16  17
ATOM     17  CD  GLU D 570     -21.708  -5.179 -13.702  1.00 32.92     0.185 C 
ATOM     18  OE1 GLU D 570     -22.653  -4.671 -13.069  1.00 32.92    -0.647 OA
ATOM     19  OE2 GLU D 570     -21.757  -5.407 -14.927  1.00 32.92    -0.647 OA
ENDBRANCH  16  17
ENDBRANCH  15  16
ENDBRANCH  14  15
END_RES GLU D 570
ENDMDL
MODEL 9
REMARK VINA RESULT:      -5.2      2.092      5.637
REMARK  24 active torsions:
REMARK  status: ('A' for Active; 'I' for Inactive)
REMARK    1  A    between atoms: C_1  and  C_2 
REMARK    2  A    between atoms: C_1  and  O_45 
REMARK    3  A    between atoms: C_3  and  O_44 
REMARK    4  A    between atoms: C_4  and  O_43 
REMARK    5  A    between atoms: C_5  and  O_42 
REMARK    6  A    between atoms: C_6  and  O_8 
REMARK    7  A    between atoms: O_8  and  C_9 
REMARK    8  A    between atoms: C_9  and  C_10 
REMARK    9  A    between atoms: C_11  and  O_30 
REMARK   10  A    between atoms: C_12  and  O_29 
REMARK   11  A    between atoms: C_13  and  O_28 
REMARK   12  A    between atoms: C_14  and  O_16 
REMARK   13  A    between atoms: O_16  and  C_17 
REMARK   14  A    between atoms: C_18  and  C_26 
REMARK   15  A    between atoms: C_20  and  O_25 
REMARK   16  A    between atoms: C_21  and  O_24 
REMARK   17  A    between atoms: C_22  and  O_23 
REMARK   18  A    between atoms: C_26  and  O_27 
REMARK   19  A    between atoms: O_30  and  C_31 
REMARK   20  A    between atoms: C_32  and  O_41 
REMARK   21  A    between atoms: C_33  and  O_40 
REMARK   22  A    between atoms: C_34  and  O_39 
REMARK   23  A    between atoms: C_35  and  C_37 
REMARK   24  A    between atoms: C_37  and  O_38 
ROOT
HETATM    1  C   UNL     1     -18.706 -13.714  -2.500  1.00  0.00     0.180 C 
HETATM    2  C   UNL     1     -19.064 -14.897  -1.564  1.00  0.00     0.187 C 
HETATM    3  C   UNL     1     -20.596 -14.871  -1.325  1.00  0.00     0.183 C 
HETATM    4  C   UNL     1     -21.051 -13.534  -0.717  1.00  0.00     0.204 C 
HETATM    5  C   UNL     1     -20.597 -12.390  -1.657  1.00  0.00     0.292 C 
HETATM    6  O   UNL     1     -19.211 -12.489  -1.969  1.00  0.00    -0.348 OA
ENDROOT
BRANCH   1   7
HETATM    7  C   UNL     1     -19.082 -13.979  -3.983  1.00  0.00     0.205 C 
BRANCH   7   8
HETATM    8  O   UNL     1     -17.904 -14.137  -4.798  1.00  0.00    -0.356 OA
BRANCH   8   9
HETATM    9  C   UNL     1     -16.833 -13.196  -4.505  1.00  0.00     0.291 C 
HETATM   10  C   UNL     1     -17.084 -11.892  -5.295  1.00  0.00     0.204 C 
HETATM   11  C   UNL     1     -15.867 -10.968  -5.219  1.00  0.00     0.183 C 
HETATM   12  C   UNL     1     -14.613 -11.683  -5.732  1.00  0.00     0.180 C 
HETATM   13  C   UNL     1     -14.413 -12.995  -4.952  1.00  0.00     0.179 C 
HETATM   14  O   UNL     1     -15.607 -13.813  -4.928  1.00  0.00    -0.348 OA
BRANCH  10  15
HETATM   15  O   UNL     1     -17.346 -12.223  -6.679  1.00  0.00    -0.388 OA
HETATM   16  H   UNL     1     -17.618 -11.389  -7.114  1.00  0.00     0.210 HD
ENDBRANCH  10  15
BRANCH  11  17
HETATM   17  O   UNL     1     -16.118  -9.785  -5.979  1.00  0.00    -0.390 OA
HETATM   18  H   UNL     1     -16.610 -10.083  -6.777  1.00  0.00     0.210 HD
ENDBRANCH  11  17
BRANCH  12  19
HETATM   19  O   UNL     1     -14.738 -11.977  -7.136  1.00  0.00    -0.390 OA
HETATM   20  H   UNL     1     -15.099 -12.884  -7.211  1.00  0.00     0.210 HD
ENDBRANCH  12  19
BRANCH  13  21
HETATM   21  C   UNL     1     -13.824 -12.744  -3.553  1.00  0.00     0.198 C 
BRANCH  21  22
HETATM   22  O   UNL     1     -14.336 -13.669  -2.598  1.00  0.00    -0.398 OA
HETATM   23  H   UNL     1     -15.297 -13.525  -2.517  1.00  0.00     0.209 HD
ENDBRANCH  21  22
ENDBRANCH  13  21
ENDBRANCH   8   9
ENDBRANCH   7   8
ENDBRANCH   1   7
BRANCH   2  24
HETATM   24  O   UNL     1     -18.422 -14.800  -0.261  1.00  0.00    -0.348 OA
BRANCH  24  25
HETATM   25  C   UNL     1     -17.006 -14.988  -0.216  1.00  0.00     0.292 C 
HETATM   26  C   UNL     1     -16.469 -15.482   1.148  1.00  0.00     0.204 C 
HETATM   27  C   UNL     1     -16.421 -14.329   2.164  1.00  0.00     0.183 C 
HETATM   28  C   UNL     1     -15.633 -13.146   1.589  1.00  0.00     0.180 C 
HETATM   29  C   UNL     1     -16.350 -12.710   0.300  1.00  0.00     0.179 C 
HETATM   30  O   UNL     1     -16.357 -13.778  -0.655  1.00  0.00    -0.348 OA
BRANCH  26  31
HETATM   31  O   UNL     1     -15.157 -16.055   0.981  1.00  0.00    -0.388 OA
HETATM   32  H   UNL     1     -15.117 -16.382   0.053  1.00  0.00     0.210 HD
ENDBRANCH  26  31
BRANCH  27  33
HETATM   33  O   UNL     1     -15.826 -14.775   3.384  1.00  0.00    -0.390 OA
HETATM   34  H   UNL     1     -14.972 -14.304   3.451  1.00  0.00     0.210 HD
ENDBRANCH  27  33
BRANCH  28  35
HETATM   35  O   UNL     1     -14.287 -13.588   1.308  1.00  0.00    -0.390 OA
HETATM   36  H   UNL     1     -14.250 -13.788   0.354  1.00  0.00     0.210 HD
ENDBRANCH  28  35
BRANCH  29  37
HETATM   37  C   UNL     1     -15.682 -11.494  -0.348  1.00  0.00     0.198 C 
BRANCH  37  38
HETATM   38  O   UNL     1     -16.251 -11.220  -1.624  1.00  0.00    -0.398 OA
HETATM   39  H   UNL     1     -15.720 -10.512  -2.033  1.00  0.00     0.209 HD
ENDBRANCH  37  38
ENDBRANCH  29  37
ENDBRANCH  24  25
ENDBRANCH   2  24
BRANCH   3  40
HETATM   40  O   UNL     1     -20.977 -15.966  -0.489  1.00  0.00    -0.390 OA
HETATM   41  H   UNL     1     -20.958 -15.623   0.430  1.00  0.00     0.210 HD
ENDBRANCH   3  40
BRANCH   5  42
HETATM   42  O   UNL     1     -20.875 -11.116  -1.038  1.00  0.00    -0.348 OA
BRANCH  42  43
HETATM   43  C   UNL     1     -21.676 -10.244  -1.875  1.00  0.00     0.187 C 
HETATM   44  C   UNL     1     -20.887  -8.998  -2.326  1.00  0.00     0.180 C 
HETATM   45  O   UNL     1     -20.667  -8.011  -1.312  1.00  0.00    -0.349 OA
HETATM   46  C   UNL     1     -21.696  -7.724  -0.393  1.00  0.00     0.288 C 
HETATM   47  C   UNL     1     -22.561  -8.898   0.081  1.00  0.00     0.204 C 
HETATM   48  C   UNL     1     -22.931  -9.804  -1.098  1.00  0.00     0.183 C 
BRANCH  44  49
HETATM   49  C   UNL     1     -21.434  -8.406  -3.629  1.00  0.00     0.198 C 
BRANCH  49  50
HETATM   50  O   UNL     1     -21.425  -9.378  -4.673  1.00  0.00    -0.398 OA
HETATM   51  H   UNL     1     -22.229  -9.265  -5.217  1.00  0.00     0.209 HD
ENDBRANCH  49  50
ENDBRANCH  44  49
BRANCH  46  52
HETATM   52  O   UNL     1     -22.558  -6.719  -0.925  1.00  0.00    -0.369 OA
HETATM   53  H   UNL     1     -23.182  -6.516  -0.213  1.00  0.00     0.212 HD
ENDBRANCH  46  52
BRANCH  47  54
HETATM   54  O   UNL     1     -23.747  -8.372   0.709  1.00  0.00    -0.388 OA
HETATM   55  H   UNL     1     -23.444  -7.660   1.306  1.00  0.00     0.210 HD
ENDBRANCH  47  54
BRANCH  48  56
HETATM   56  O   UNL     1     -23.647 -10.971  -0.657  1.00  0.00    -0.390 OA
HETATM   57  H   UNL     1     -23.635 -11.603  -1.399  1.00  0.00     0.210 HD
ENDBRANCH  48  56
ENDBRANCH  42  43
ENDBRANCH   5  42
BRANCH   4  58
HETATM   58  O   UNL     1     -20.524 -13.421   0.622  1.00  0.00    -0.388 OA
HETATM   59  H   UNL     1     -19.571 -13.205   0.537  1.00  0.00     0.210 HD
ENDBRANCH   4  58
TORSDOF 24
BEGIN_RES ARG D 557
REMARK  4 active torsions:
REMARK  status: ('A' for Active; 'I' for Inactive)
REMARK    1  A    between atoms: CA   and  CB  
REMARK    2  A    between atoms: CB   and  CG  
REMARK    3  A    between atoms: CG   and  CD  
REMARK    4  A    between atoms: CD   and  NE  
REMARK       I    between atoms: NE   and  CZ  
REMARK       I    between atoms: CZ   and  NH1 
REMARK       I    between atoms: CZ   and  NH2 
ROOT
ATOM      1  CA  ARG D 557     -26.217   2.705 -17.014  1.00 35.49     0.159 C 
ENDROOT
BRANCH   1   2
ATOM      2  CB  ARG D 557     -26.789   1.319 -17.183  1.00 35.49     0.034 C 
BRANCH   2   3
ATOM      3  CG  ARG D 557     -25.837   0.202 -17.148  1.00 35.49     0.027 C 
BRANCH   3   4
ATOM      4  CD  ARG D 557     -24.754   0.416 -16.160  1.00 35.49     0.116 C 
BRANCH   4   5
ATOM      5  NE  ARG D 557     -24.893  -0.438 -15.010  1.00 35.49    -0.212 N 
ATOM      6  CZ  ARG D 557     -24.071  -1.404 -14.666  1.00 35.49     0.666 C 
ATOM      7  NH1 ARG D 557     -23.001  -1.711 -15.376  1.00 35.49    -0.235 N 
ATOM      8  NH2 ARG D 557     -24.341  -2.063 -13.577  1.00 35.49    -0.235 N 
ATOM      9  HH  ARG D 557     -22.802  -1.288 -16.095  1.00 35.49     0.174 HD
ATOM     10  HH  ARG D 557     -22.499  -2.349 -15.102  1.00 35.49     0.174 HD
ATOM     11  HH  ARG D 557     -25.035  -1.838 -13.135  1.00 35.49     0.174 HD
ATOM     12  HH  ARG D 557     -23.832  -2.691 -13.321  1.00 35.49     0.174 HD
ATOM     13  HE  ARG D 557     -25.594  -0.358 -14.536  1.00 35.49     0.178 HD
ENDBRANCH   4   5
ENDBRANCH   3   4
ENDBRANCH   2   3
ENDBRANCH   1   2
END_RES ARG D 557
BEGIN_RES GLU D 570
REMARK  3 active torsions:
REMARK  status: ('A' for Active; 'I' for Inactive)
REMARK    5  A    between atoms: CA   and  CB  
REMARK    6  A    between atoms: CB   and  CG  
REMARK    7  A    between atoms: CG   and  CD  
ROOT
ATOM     14  CA  GLU D 570     -18.033  -6.348 -13.375  1.00 32.92     0.160 C 
ENDROOT
BRANCH  14  15
ATOM     15  CB  GLU D 570     -19.500  -6.345 -13.794  1.00 32.92     0.043 C 
BRANCH  15  16
ATOM     16  CG  GLU D 570     -20.444  -5.539 -12.977  1.00 32.92     0.100 C 
BRANCH  16  17
ATOM     17  CD  GLU D 570     -21.719  -5.199 -13.713  1.00 32.92     0.185 C 
ATOM     18  OE1 GLU D 570     -22.295  -4.123 -13.461  1.00 32.92    -0.647 OA
ATOM     19  OE2 GLU D 570     -22.155  -6.026 -14.539  1.00 32.92    -0.647 OA
ENDBRANCH  16  17
ENDBRANCH  15  16
ENDBRANCH  14  15
END_RES GLU D 570
ENDMDL
