MODEL 1
REMARK VINA RESULT:      -1.3      0.000      0.000
REMARK  6 active torsions:
REMARK  status: ('A' for Active; 'I' for Inactive)
REMARK    1  A    between atoms: C_3  and  S_26 
REMARK    2  A    between atoms: C_6  and  N_7 
REMARK    3  A    between atoms: N_9  and  C_11 
REMARK    4  A    between atoms: C_12  and  O_25 
REMARK    5  A    between atoms: C_19  and  S_21 
REMARK    6  A    between atoms: S_26  and  O_27 
ROOT
HETATM    1 NA   UNL     3     -32.374  -8.519   4.538  1.00  0.00     0.000 Na
ENDROOT
TORSDOF 6
BEGIN_RES ARG D 557
REMARK  4 active torsions:
REMARK  status: ('A' for Active; 'I' for Inactive)
REMARK    1  A    between atoms: CA   and  CB  
REMARK    2  A    between atoms: CB   and  CG  
REMARK    3  A    between atoms: CG   and  CD  
REMARK    4  A    between atoms: CD   and  NE  
REMARK       I    between atoms: NE   and  CZ  
REMARK       I    between atoms: CZ   and  NH1 
REMARK       I    between atoms: CZ   and  NH2 
ROOT
ATOM      1  CA  ARG D 557     -26.217   2.705 -17.014  1.00 35.49     0.159 C 
ENDROOT
BRANCH   1   2
ATOM      2  CB  ARG D 557     -26.789   1.319 -17.183  1.00 35.49     0.034 C 
BRANCH   2   3
ATOM      3  CG  ARG D 557     -25.836   0.203 -17.153  1.00 35.49     0.027 C 
BRANCH   3   4
ATOM      4  CD  ARG D 557     -24.762   0.405 -16.154  1.00 35.49     0.116 C 
BRANCH   4   5
ATOM      5  NE  ARG D 557     -24.920  -0.449 -15.006  1.00 35.49    -0.212 N 
ATOM      6  CZ  ARG D 557     -24.109  -1.421 -14.655  1.00 35.49     0.666 C 
ATOM      7  NH1 ARG D 557     -23.034  -1.735 -15.353  1.00 35.49    -0.235 N 
ATOM      8  NH2 ARG D 557     -24.397  -2.080 -13.570  1.00 35.49    -0.235 N 
ATOM      9  HH  ARG D 557     -22.824  -1.314 -16.069  1.00 35.49     0.174 HD
ATOM     10  HH  ARG D 557     -22.540  -2.378 -15.074  1.00 35.49     0.174 HD
ATOM     11  HH  ARG D 557     -25.094  -1.851 -13.135  1.00 35.49     0.174 HD
ATOM     12  HH  ARG D 557     -23.895  -2.712 -13.309  1.00 35.49     0.174 HD
ATOM     13  HE  ARG D 557     -25.626  -0.364 -14.540  1.00 35.49     0.178 HD
ENDBRANCH   4   5
ENDBRANCH   3   4
ENDBRANCH   2   3
ENDBRANCH   1   2
END_RES ARG D 557
BEGIN_RES GLU D 570
REMARK  3 active torsions:
REMARK  status: ('A' for Active; 'I' for Inactive)
REMARK    5  A    between atoms: CA   and  CB  
REMARK    6  A    between atoms: CB   and  CG  
REMARK    7  A    between atoms: CG   and  CD  
ROOT
ATOM     14  CA  GLU D 570     -18.033  -6.348 -13.375  1.00 32.92     0.160 C 
ENDROOT
BRANCH  14  15
ATOM     15  CB  GLU D 570     -19.500  -6.345 -13.794  1.00 32.92     0.043 C 
BRANCH  15  16
ATOM     16  CG  GLU D 570     -20.440  -5.521 -12.990  1.00 32.92     0.100 C 
BRANCH  16  17
ATOM     17  CD  GLU D 570     -21.728  -5.217 -13.719  1.00 32.92     0.185 C 
ATOM     18  OE1 GLU D 570     -22.325  -4.151 -13.473  1.00 32.92    -0.647 OA
ATOM     19  OE2 GLU D 570     -22.152  -6.060 -14.533  1.00 32.92    -0.647 OA
ENDBRANCH  16  17
ENDBRANCH  15  16
ENDBRANCH  14  15
END_RES GLU D 570
ENDMDL
MODEL 2
REMARK VINA RESULT:      -1.1      7.050      7.111
REMARK  6 active torsions:
REMARK  status: ('A' for Active; 'I' for Inactive)
REMARK    1  A    between atoms: C_3  and  S_26 
REMARK    2  A    between atoms: C_6  and  N_7 
REMARK    3  A    between atoms: N_9  and  C_11 
REMARK    4  A    between atoms: C_12  and  O_25 
REMARK    5  A    between atoms: C_19  and  S_21 
REMARK    6  A    between atoms: S_26  and  O_27 
ROOT
HETATM    1 NA   UNL     3     -11.106   0.962   2.432  1.00  0.00     0.000 Na
ENDROOT
TORSDOF 6
BEGIN_RES ARG D 557
REMARK  4 active torsions:
REMARK  status: ('A' for Active; 'I' for Inactive)
REMARK    1  A    between atoms: CA   and  CB  
REMARK    2  A    between atoms: CB   and  CG  
REMARK    3  A    between atoms: CG   and  CD  
REMARK    4  A    between atoms: CD   and  NE  
REMARK       I    between atoms: NE   and  CZ  
REMARK       I    between atoms: CZ   and  NH1 
REMARK       I    between atoms: CZ   and  NH2 
ROOT
ATOM      1  CA  ARG D 557     -26.217   2.705 -17.014  1.00 35.49     0.159 C 
ENDROOT
BRANCH   1   2
ATOM      2  CB  ARG D 557     -26.789   1.319 -17.183  1.00 35.49     0.034 C 
BRANCH   2   3
ATOM      3  CG  ARG D 557     -25.834   0.205 -17.175  1.00 35.49     0.027 C 
BRANCH   3   4
ATOM      4  CD  ARG D 557     -24.751   0.396 -16.183  1.00 35.49     0.116 C 
BRANCH   4   5
ATOM      5  NE  ARG D 557     -24.914  -0.453 -15.032  1.00 35.49    -0.212 N 
ATOM      6  CZ  ARG D 557     -24.103  -1.422 -14.672  1.00 35.49     0.666 C 
ATOM      7  NH1 ARG D 557     -23.024  -1.738 -15.363  1.00 35.49    -0.235 N 
ATOM      8  NH2 ARG D 557     -24.395  -2.076 -13.585  1.00 35.49    -0.235 N 
ATOM      9  HH  ARG D 557     -22.811  -1.319 -16.080  1.00 35.49     0.174 HD
ATOM     10  HH  ARG D 557     -22.531  -2.378 -15.079  1.00 35.49     0.174 HD
ATOM     11  HH  ARG D 557     -25.095  -1.846 -13.155  1.00 35.49     0.174 HD
ATOM     12  HH  ARG D 557     -23.894  -2.706 -13.319  1.00 35.49     0.174 HD
ATOM     13  HE  ARG D 557     -25.622  -0.367 -14.570  1.00 35.49     0.178 HD
ENDBRANCH   4   5
ENDBRANCH   3   4
ENDBRANCH   2   3
ENDBRANCH   1   2
END_RES ARG D 557
BEGIN_RES GLU D 570
REMARK  3 active torsions:
REMARK  status: ('A' for Active; 'I' for Inactive)
REMARK    5  A    between atoms: CA   and  CB  
REMARK    6  A    between atoms: CB   and  CG  
REMARK    7  A    between atoms: CG   and  CD  
ROOT
ATOM     14  CA  GLU D 570     -18.033  -6.348 -13.375  1.00 32.92     0.160 C 
ENDROOT
BRANCH  14  15
ATOM     15  CB  GLU D 570     -19.500  -6.345 -13.794  1.00 32.92     0.043 C 
BRANCH  15  16
ATOM     16  CG  GLU D 570     -20.437  -5.508 -13.000  1.00 32.92     0.100 C 
BRANCH  16  17
ATOM     17  CD  GLU D 570     -21.746  -5.253 -13.711  1.00 32.92     0.185 C 
ATOM     18  OE1 GLU D 570     -22.205  -6.131 -14.466  1.00 32.92    -0.647 OA
ATOM     19  OE2 GLU D 570     -22.309  -4.157 -13.523  1.00 32.92    -0.647 OA
ENDBRANCH  16  17
ENDBRANCH  15  16
ENDBRANCH  14  15
END_RES GLU D 570
ENDMDL
MODEL 3
REMARK VINA RESULT:      -1.1      3.109      3.247
REMARK  6 active torsions:
REMARK  status: ('A' for Active; 'I' for Inactive)
REMARK    1  A    between atoms: C_3  and  S_26 
REMARK    2  A    between atoms: C_6  and  N_7 
REMARK    3  A    between atoms: N_9  and  C_11 
REMARK    4  A    between atoms: C_12  and  O_25 
REMARK    5  A    between atoms: C_19  and  S_21 
REMARK    6  A    between atoms: S_26  and  O_27 
ROOT
HETATM    1 NA   UNL     3     -36.667   0.736   6.033  1.00  0.00     0.000 Na
ENDROOT
TORSDOF 6
BEGIN_RES ARG D 557
REMARK  4 active torsions:
REMARK  status: ('A' for Active; 'I' for Inactive)
REMARK    1  A    between atoms: CA   and  CB  
REMARK    2  A    between atoms: CB   and  CG  
REMARK    3  A    between atoms: CG   and  CD  
REMARK    4  A    between atoms: CD   and  NE  
REMARK       I    between atoms: NE   and  CZ  
REMARK       I    between atoms: CZ   and  NH1 
REMARK       I    between atoms: CZ   and  NH2 
ROOT
ATOM      1  CA  ARG D 557     -26.217   2.705 -17.014  1.00 35.49     0.159 C 
ENDROOT
BRANCH   1   2
ATOM      2  CB  ARG D 557     -26.789   1.319 -17.183  1.00 35.49     0.034 C 
BRANCH   2   3
ATOM      3  CG  ARG D 557     -25.834   0.205 -17.175  1.00 35.49     0.027 C 
BRANCH   3   4
ATOM      4  CD  ARG D 557     -24.738   0.407 -16.200  1.00 35.49     0.116 C 
BRANCH   4   5
ATOM      5  NE  ARG D 557     -24.890  -0.423 -15.034  1.00 35.49    -0.212 N 
ATOM      6  CZ  ARG D 557     -24.081  -1.392 -14.670  1.00 35.49     0.666 C 
ATOM      7  NH1 ARG D 557     -23.012  -1.725 -15.371  1.00 35.49    -0.235 N 
ATOM      8  NH2 ARG D 557     -24.361  -2.028 -13.570  1.00 35.49    -0.235 N 
ATOM      9  HH  ARG D 557     -22.807  -1.318 -16.097  1.00 35.49     0.174 HD
ATOM     10  HH  ARG D 557     -22.519  -2.364 -15.084  1.00 35.49     0.174 HD
ATOM     11  HH  ARG D 557     -25.054  -1.787 -13.134  1.00 35.49     0.174 HD
ATOM     12  HH  ARG D 557     -23.860  -2.657 -13.301  1.00 35.49     0.174 HD
ATOM     13  HE  ARG D 557     -25.592  -0.326 -14.563  1.00 35.49     0.178 HD
ENDBRANCH   4   5
ENDBRANCH   3   4
ENDBRANCH   2   3
ENDBRANCH   1   2
END_RES ARG D 557
BEGIN_RES GLU D 570
REMARK  3 active torsions:
REMARK  status: ('A' for Active; 'I' for Inactive)
REMARK    5  A    between atoms: CA   and  CB  
REMARK    6  A    between atoms: CB   and  CG  
REMARK    7  A    between atoms: CG   and  CD  
ROOT
ATOM     14  CA  GLU D 570     -18.033  -6.348 -13.375  1.00 32.92     0.160 C 
ENDROOT
BRANCH  14  15
ATOM     15  CB  GLU D 570     -19.500  -6.345 -13.794  1.00 32.92     0.043 C 
BRANCH  15  16
ATOM     16  CG  GLU D 570     -20.438  -5.514 -12.996  1.00 32.92     0.100 C 
BRANCH  16  17
ATOM     17  CD  GLU D 570     -21.721  -5.202 -13.731  1.00 32.92     0.185 C 
ATOM     18  OE1 GLU D 570     -22.134  -6.000 -14.594  1.00 32.92    -0.647 OA
ATOM     19  OE2 GLU D 570     -22.309  -4.138 -13.454  1.00 32.92    -0.647 OA
ENDBRANCH  16  17
ENDBRANCH  15  16
ENDBRANCH  14  15
END_RES GLU D 570
ENDMDL
MODEL 4
REMARK VINA RESULT:      -1.1      3.729      3.729
REMARK  6 active torsions:
REMARK  status: ('A' for Active; 'I' for Inactive)
REMARK    1  A    between atoms: C_3  and  S_26 
REMARK    2  A    between atoms: C_6  and  N_7 
REMARK    3  A    between atoms: N_9  and  C_11 
REMARK    4  A    between atoms: C_12  and  O_25 
REMARK    5  A    between atoms: C_19  and  S_21 
REMARK    6  A    between atoms: S_26  and  O_27 
ROOT
HETATM    1 NA   UNL     3     -25.189  -5.272  -4.990  1.00  0.00     0.000 Na
ENDROOT
TORSDOF 6
BEGIN_RES ARG D 557
REMARK  4 active torsions:
REMARK  status: ('A' for Active; 'I' for Inactive)
REMARK    1  A    between atoms: CA   and  CB  
REMARK    2  A    between atoms: CB   and  CG  
REMARK    3  A    between atoms: CG   and  CD  
REMARK    4  A    between atoms: CD   and  NE  
REMARK       I    between atoms: NE   and  CZ  
REMARK       I    between atoms: CZ   and  NH1 
REMARK       I    between atoms: CZ   and  NH2 
ROOT
ATOM      1  CA  ARG D 557     -26.217   2.705 -17.014  1.00 35.49     0.159 C 
ENDROOT
BRANCH   1   2
ATOM      2  CB  ARG D 557     -26.789   1.319 -17.183  1.00 35.49     0.034 C 
BRANCH   2   3
ATOM      3  CG  ARG D 557     -25.835   0.204 -17.166  1.00 35.49     0.027 C 
BRANCH   3   4
ATOM      4  CD  ARG D 557     -24.747   0.406 -16.182  1.00 35.49     0.116 C 
BRANCH   4   5
ATOM      5  NE  ARG D 557     -24.903  -0.432 -15.022  1.00 35.49    -0.212 N 
ATOM      6  CZ  ARG D 557     -24.092  -1.402 -14.662  1.00 35.49     0.666 C 
ATOM      7  NH1 ARG D 557     -23.020  -1.727 -15.360  1.00 35.49    -0.235 N 
ATOM      8  NH2 ARG D 557     -24.376  -2.046 -13.567  1.00 35.49    -0.235 N 
ATOM      9  HH  ARG D 557     -22.812  -1.315 -16.082  1.00 35.49     0.174 HD
ATOM     10  HH  ARG D 557     -22.526  -2.366 -15.074  1.00 35.49     0.174 HD
ATOM     11  HH  ARG D 557     -25.071  -1.810 -13.132  1.00 35.49     0.174 HD
ATOM     12  HH  ARG D 557     -23.874  -2.675 -13.300  1.00 35.49     0.174 HD
ATOM     13  HE  ARG D 557     -25.606  -0.340 -14.554  1.00 35.49     0.178 HD
ENDBRANCH   4   5
ENDBRANCH   3   4
ENDBRANCH   2   3
ENDBRANCH   1   2
END_RES ARG D 557
BEGIN_RES GLU D 570
REMARK  3 active torsions:
REMARK  status: ('A' for Active; 'I' for Inactive)
REMARK    5  A    between atoms: CA   and  CB  
REMARK    6  A    between atoms: CB   and  CG  
REMARK    7  A    between atoms: CG   and  CD  
ROOT
ATOM     14  CA  GLU D 570     -18.033  -6.348 -13.375  1.00 32.92     0.160 C 
ENDROOT
BRANCH  14  15
ATOM     15  CB  GLU D 570     -19.500  -6.345 -13.794  1.00 32.92     0.043 C 
BRANCH  15  16
ATOM     16  CG  GLU D 570     -20.439  -5.518 -12.993  1.00 32.92     0.100 C 
BRANCH  16  17
ATOM     17  CD  GLU D 570     -21.732  -5.225 -13.717  1.00 32.92     0.185 C 
ATOM     18  OE1 GLU D 570     -22.357  -4.183 -13.443  1.00 32.92    -0.647 OA
ATOM     19  OE2 GLU D 570     -22.134  -6.056 -14.556  1.00 32.92    -0.647 OA
ENDBRANCH  16  17
ENDBRANCH  15  16
ENDBRANCH  14  15
END_RES GLU D 570
ENDMDL
MODEL 5
REMARK VINA RESULT:      -1.0      4.668      4.668
REMARK  6 active torsions:
REMARK  status: ('A' for Active; 'I' for Inactive)
REMARK    1  A    between atoms: C_3  and  S_26 
REMARK    2  A    between atoms: C_6  and  N_7 
REMARK    3  A    between atoms: N_9  and  C_11 
REMARK    4  A    between atoms: C_12  and  O_25 
REMARK    5  A    between atoms: C_19  and  S_21 
REMARK    6  A    between atoms: S_26  and  O_27 
ROOT
HETATM    1 NA   UNL     3     -32.970  -9.557 -10.898  1.00  0.00     0.000 Na
ENDROOT
TORSDOF 6
BEGIN_RES ARG D 557
REMARK  4 active torsions:
REMARK  status: ('A' for Active; 'I' for Inactive)
REMARK    1  A    between atoms: CA   and  CB  
REMARK    2  A    between atoms: CB   and  CG  
REMARK    3  A    between atoms: CG   and  CD  
REMARK    4  A    between atoms: CD   and  NE  
REMARK       I    between atoms: NE   and  CZ  
REMARK       I    between atoms: CZ   and  NH1 
REMARK       I    between atoms: CZ   and  NH2 
ROOT
ATOM      1  CA  ARG D 557     -26.217   2.705 -17.014  1.00 35.49     0.159 C 
ENDROOT
BRANCH   1   2
ATOM      2  CB  ARG D 557     -26.789   1.319 -17.183  1.00 35.49     0.034 C 
BRANCH   2   3
ATOM      3  CG  ARG D 557     -25.836   0.203 -17.154  1.00 35.49     0.027 C 
BRANCH   3   4
ATOM      4  CD  ARG D 557     -24.748   0.416 -16.172  1.00 35.49     0.116 C 
BRANCH   4   5
ATOM      5  NE  ARG D 557     -24.891  -0.425 -15.013  1.00 35.49    -0.212 N 
ATOM      6  CZ  ARG D 557     -24.083  -1.404 -14.669  1.00 35.49     0.666 C 
ATOM      7  NH1 ARG D 557     -23.027  -1.736 -15.388  1.00 35.49    -0.235 N 
ATOM      8  NH2 ARG D 557     -24.355  -2.049 -13.572  1.00 35.49    -0.235 N 
ATOM      9  HH  ARG D 557     -22.828  -1.324 -16.112  1.00 35.49     0.174 HD
ATOM     10  HH  ARG D 557     -22.534  -2.381 -15.113  1.00 35.49     0.174 HD
ATOM     11  HH  ARG D 557     -25.040  -1.807 -13.125  1.00 35.49     0.174 HD
ATOM     12  HH  ARG D 557     -23.854  -2.684 -13.316  1.00 35.49     0.174 HD
ATOM     13  HE  ARG D 557     -25.586  -0.328 -14.532  1.00 35.49     0.178 HD
ENDBRANCH   4   5
ENDBRANCH   3   4
ENDBRANCH   2   3
ENDBRANCH   1   2
END_RES ARG D 557
BEGIN_RES GLU D 570
REMARK  3 active torsions:
REMARK  status: ('A' for Active; 'I' for Inactive)
REMARK    5  A    between atoms: CA   and  CB  
REMARK    6  A    between atoms: CB   and  CG  
REMARK    7  A    between atoms: CG   and  CD  
ROOT
ATOM     14  CA  GLU D 570     -18.033  -6.348 -13.375  1.00 32.92     0.160 C 
ENDROOT
BRANCH  14  15
ATOM     15  CB  GLU D 570     -19.500  -6.345 -13.794  1.00 32.92     0.043 C 
BRANCH  15  16
ATOM     16  CG  GLU D 570     -20.441  -5.525 -12.987  1.00 32.92     0.100 C 
BRANCH  16  17
ATOM     17  CD  GLU D 570     -21.742  -5.246 -13.703  1.00 32.92     0.185 C 
ATOM     18  OE1 GLU D 570     -22.301  -4.146 -13.535  1.00 32.92    -0.647 OA
ATOM     19  OE2 GLU D 570     -22.216  -6.145 -14.425  1.00 32.92    -0.647 OA
ENDBRANCH  16  17
ENDBRANCH  15  16
ENDBRANCH  14  15
END_RES GLU D 570
ENDMDL
MODEL 6
REMARK VINA RESULT:      -1.0      7.567      7.567
REMARK  6 active torsions:
REMARK  status: ('A' for Active; 'I' for Inactive)
REMARK    1  A    between atoms: C_3  and  S_26 
REMARK    2  A    between atoms: C_6  and  N_7 
REMARK    3  A    between atoms: N_9  and  C_11 
REMARK    4  A    between atoms: C_12  and  O_25 
REMARK    5  A    between atoms: C_19  and  S_21 
REMARK    6  A    between atoms: S_26  and  O_27 
ROOT
HETATM    1 NA   UNL     3     -14.446   3.529  -8.243  1.00  0.00     0.000 Na
ENDROOT
TORSDOF 6
BEGIN_RES ARG D 557
REMARK  4 active torsions:
REMARK  status: ('A' for Active; 'I' for Inactive)
REMARK    1  A    between atoms: CA   and  CB  
REMARK    2  A    between atoms: CB   and  CG  
REMARK    3  A    between atoms: CG   and  CD  
REMARK    4  A    between atoms: CD   and  NE  
REMARK       I    between atoms: NE   and  CZ  
REMARK       I    between atoms: CZ   and  NH1 
REMARK       I    between atoms: CZ   and  NH2 
ROOT
ATOM      1  CA  ARG D 557     -26.217   2.705 -17.014  1.00 35.49     0.159 C 
ENDROOT
BRANCH   1   2
ATOM      2  CB  ARG D 557     -26.789   1.319 -17.183  1.00 35.49     0.034 C 
BRANCH   2   3
ATOM      3  CG  ARG D 557     -25.834   0.204 -17.167  1.00 35.49     0.027 C 
BRANCH   3   4
ATOM      4  CD  ARG D 557     -24.754   0.400 -16.174  1.00 35.49     0.116 C 
BRANCH   4   5
ATOM      5  NE  ARG D 557     -24.914  -0.449 -15.024  1.00 35.49    -0.212 N 
ATOM      6  CZ  ARG D 557     -24.105  -1.423 -14.670  1.00 35.49     0.666 C 
ATOM      7  NH1 ARG D 557     -23.031  -1.742 -15.368  1.00 35.49    -0.235 N 
ATOM      8  NH2 ARG D 557     -24.394  -2.078 -13.582  1.00 35.49    -0.235 N 
ATOM      9  HH  ARG D 557     -22.821  -1.324 -16.085  1.00 35.49     0.174 HD
ATOM     10  HH  ARG D 557     -22.539  -2.385 -15.087  1.00 35.49     0.174 HD
ATOM     11  HH  ARG D 557     -25.090  -1.845 -13.148  1.00 35.49     0.174 HD
ATOM     12  HH  ARG D 557     -23.894  -2.710 -13.320  1.00 35.49     0.174 HD
ATOM     13  HE  ARG D 557     -25.619  -0.361 -14.557  1.00 35.49     0.178 HD
ENDBRANCH   4   5
ENDBRANCH   3   4
ENDBRANCH   2   3
ENDBRANCH   1   2
END_RES ARG D 557
BEGIN_RES GLU D 570
REMARK  3 active torsions:
REMARK  status: ('A' for Active; 'I' for Inactive)
REMARK    5  A    between atoms: CA   and  CB  
REMARK    6  A    between atoms: CB   and  CG  
REMARK    7  A    between atoms: CG   and  CD  
ROOT
ATOM     14  CA  GLU D 570     -18.033  -6.348 -13.375  1.00 32.92     0.160 C 
ENDROOT
BRANCH  14  15
ATOM     15  CB  GLU D 570     -19.500  -6.345 -13.794  1.00 32.92     0.043 C 
BRANCH  15  16
ATOM     16  CG  GLU D 570     -20.441  -5.525 -12.987  1.00 32.92     0.100 C 
BRANCH  16  17
ATOM     17  CD  GLU D 570     -21.729  -5.219 -13.715  1.00 32.92     0.185 C 
ATOM     18  OE1 GLU D 570     -22.332  -4.160 -13.458  1.00 32.92    -0.647 OA
ATOM     19  OE2 GLU D 570     -22.147  -6.055 -14.540  1.00 32.92    -0.647 OA
ENDBRANCH  16  17
ENDBRANCH  15  16
ENDBRANCH  14  15
END_RES GLU D 570
ENDMDL
MODEL 7
REMARK VINA RESULT:      -0.9      9.680      9.680
REMARK  6 active torsions:
REMARK  status: ('A' for Active; 'I' for Inactive)
REMARK    1  A    between atoms: C_3  and  S_26 
REMARK    2  A    between atoms: C_6  and  N_7 
REMARK    3  A    between atoms: N_9  and  C_11 
REMARK    4  A    between atoms: C_12  and  O_25 
REMARK    5  A    between atoms: C_19  and  S_21 
REMARK    6  A    between atoms: S_26  and  O_27 
ROOT
HETATM    1 NA   UNL     3      -9.013  -9.437 -17.458  1.00  0.00     0.000 Na
ENDROOT
TORSDOF 6
BEGIN_RES ARG D 557
REMARK  4 active torsions:
REMARK  status: ('A' for Active; 'I' for Inactive)
REMARK    1  A    between atoms: CA   and  CB  
REMARK    2  A    between atoms: CB   and  CG  
REMARK    3  A    between atoms: CG   and  CD  
REMARK    4  A    between atoms: CD   and  NE  
REMARK       I    between atoms: NE   and  CZ  
REMARK       I    between atoms: CZ   and  NH1 
REMARK       I    between atoms: CZ   and  NH2 
ROOT
ATOM      1  CA  ARG D 557     -26.217   2.705 -17.014  1.00 35.49     0.159 C 
ENDROOT
BRANCH   1   2
ATOM      2  CB  ARG D 557     -26.789   1.319 -17.183  1.00 35.49     0.034 C 
BRANCH   2   3
ATOM      3  CG  ARG D 557     -25.834   0.204 -17.171  1.00 35.49     0.027 C 
BRANCH   3   4
ATOM      4  CD  ARG D 557     -24.759   0.393 -16.170  1.00 35.49     0.116 C 
BRANCH   4   5
ATOM      5  NE  ARG D 557     -24.930  -0.460 -15.024  1.00 35.49    -0.212 N 
ATOM      6  CZ  ARG D 557     -24.130  -1.442 -14.671  1.00 35.49     0.666 C 
ATOM      7  NH1 ARG D 557     -23.057  -1.767 -15.368  1.00 35.49    -0.235 N 
ATOM      8  NH2 ARG D 557     -24.427  -2.099 -13.588  1.00 35.49    -0.235 N 
ATOM      9  HH  ARG D 557     -22.841  -1.347 -16.083  1.00 35.49     0.174 HD
ATOM     10  HH  ARG D 557     -22.571  -2.415 -15.088  1.00 35.49     0.174 HD
ATOM     11  HH  ARG D 557     -25.123  -1.862 -13.154  1.00 35.49     0.174 HD
ATOM     12  HH  ARG D 557     -23.933  -2.737 -13.326  1.00 35.49     0.174 HD
ATOM     13  HE  ARG D 557     -25.636  -0.368 -14.559  1.00 35.49     0.178 HD
ENDBRANCH   4   5
ENDBRANCH   3   4
ENDBRANCH   2   3
ENDBRANCH   1   2
END_RES ARG D 557
BEGIN_RES GLU D 570
REMARK  3 active torsions:
REMARK  status: ('A' for Active; 'I' for Inactive)
REMARK    5  A    between atoms: CA   and  CB  
REMARK    6  A    between atoms: CB   and  CG  
REMARK    7  A    between atoms: CG   and  CD  
ROOT
ATOM     14  CA  GLU D 570     -18.033  -6.348 -13.375  1.00 32.92     0.160 C 
ENDROOT
BRANCH  14  15
ATOM     15  CB  GLU D 570     -19.500  -6.345 -13.794  1.00 32.92     0.043 C 
BRANCH  15  16
ATOM     16  CG  GLU D 570     -20.440  -5.523 -12.989  1.00 32.92     0.100 C 
BRANCH  16  17
ATOM     17  CD  GLU D 570     -21.664  -5.097 -13.766  1.00 32.92     0.185 C 
ATOM     18  OE1 GLU D 570     -22.355  -4.154 -13.336  1.00 32.92    -0.647 OA
ATOM     19  OE2 GLU D 570     -21.944  -5.725 -14.806  1.00 32.92    -0.647 OA
ENDBRANCH  16  17
ENDBRANCH  15  16
ENDBRANCH  14  15
END_RES GLU D 570
ENDMDL
MODEL 8
REMARK VINA RESULT:      -0.9      3.556      4.096
REMARK  6 active torsions:
REMARK  status: ('A' for Active; 'I' for Inactive)
REMARK    1  A    between atoms: C_3  and  S_26 
REMARK    2  A    between atoms: C_6  and  N_7 
REMARK    3  A    between atoms: N_9  and  C_11 
REMARK    4  A    between atoms: C_12  and  O_25 
REMARK    5  A    between atoms: C_19  and  S_21 
REMARK    6  A    between atoms: S_26  and  O_27 
ROOT
HETATM    1 NA   UNL     3     -32.342  -8.579   4.519  1.00  0.00     0.000 Na
ENDROOT
TORSDOF 6
BEGIN_RES ARG D 557
REMARK  4 active torsions:
REMARK  status: ('A' for Active; 'I' for Inactive)
REMARK    1  A    between atoms: CA   and  CB  
REMARK    2  A    between atoms: CB   and  CG  
REMARK    3  A    between atoms: CG   and  CD  
REMARK    4  A    between atoms: CD   and  NE  
REMARK       I    between atoms: NE   and  CZ  
REMARK       I    between atoms: CZ   and  NH1 
REMARK       I    between atoms: CZ   and  NH2 
ROOT
ATOM      1  CA  ARG D 557     -26.217   2.705 -17.014  1.00 35.49     0.159 C 
ENDROOT
BRANCH   1   2
ATOM      2  CB  ARG D 557     -26.789   1.319 -17.183  1.00 35.49     0.034 C 
BRANCH   2   3
ATOM      3  CG  ARG D 557     -28.233   1.226 -17.429  1.00 35.49     0.027 C 
BRANCH   3   4
ATOM      4  CD  ARG D 557     -28.906   0.297 -16.493  1.00 35.49     0.116 C 
BRANCH   4   5
ATOM      5  NE  ARG D 557     -29.300  -0.929 -17.135  1.00 35.49    -0.212 N 
ATOM      6  CZ  ARG D 557     -28.678  -2.083 -17.036  1.00 35.49     0.666 C 
ATOM      7  NH1 ARG D 557     -27.578  -2.236 -16.322  1.00 35.49    -0.235 N 
ATOM      8  NH2 ARG D 557     -29.189  -3.097 -17.671  1.00 35.49    -0.235 N 
ATOM      9  HH  ARG D 557     -27.225  -1.582 -15.894  1.00 35.49     0.174 HD
ATOM     10  HH  ARG D 557     -27.217  -3.012 -16.292  1.00 35.49     0.174 HD
ATOM     11  HH  ARG D 557     -29.904  -2.970 -18.118  1.00 35.49     0.174 HD
ATOM     12  HH  ARG D 557     -28.818  -3.858 -17.628  1.00 35.49     0.174 HD
ATOM     13  HE  ARG D 557     -29.958  -0.905 -17.673  1.00 35.49     0.178 HD
ENDBRANCH   4   5
ENDBRANCH   3   4
ENDBRANCH   2   3
ENDBRANCH   1   2
END_RES ARG D 557
BEGIN_RES GLU D 570
REMARK  3 active torsions:
REMARK  status: ('A' for Active; 'I' for Inactive)
REMARK    5  A    between atoms: CA   and  CB  
REMARK    6  A    between atoms: CB   and  CG  
REMARK    7  A    between atoms: CG   and  CD  
ROOT
ATOM     14  CA  GLU D 570     -18.033  -6.348 -13.375  1.00 32.92     0.160 C 
ENDROOT
BRANCH  14  15
ATOM     15  CB  GLU D 570     -19.500  -6.345 -13.794  1.00 32.92     0.043 C 
BRANCH  15  16
ATOM     16  CG  GLU D 570     -19.798  -6.213 -15.244  1.00 32.92     0.100 C 
BRANCH  16  17
ATOM     17  CD  GLU D 570     -20.672  -7.327 -15.770  1.00 32.92     0.185 C 
ATOM     18  OE1 GLU D 570     -20.597  -8.455 -15.245  1.00 32.92    -0.647 OA
ATOM     19  OE2 GLU D 570     -21.428  -7.074 -16.728  1.00 32.92    -0.647 OA
ENDBRANCH  16  17
ENDBRANCH  15  16
ENDBRANCH  14  15
END_RES GLU D 570
ENDMDL
MODEL 9
REMARK VINA RESULT:      -0.8      9.684      9.729
REMARK  6 active torsions:
REMARK  status: ('A' for Active; 'I' for Inactive)
REMARK    1  A    between atoms: C_3  and  S_26 
REMARK    2  A    between atoms: C_6  and  N_7 
REMARK    3  A    between atoms: N_9  and  C_11 
REMARK    4  A    between atoms: C_12  and  O_25 
REMARK    5  A    between atoms: C_19  and  S_21 
REMARK    6  A    between atoms: S_26  and  O_27 
ROOT
HETATM    1 NA   UNL     3     -14.964  11.614 -13.435  1.00  0.00     0.000 Na
ENDROOT
TORSDOF 6
BEGIN_RES ARG D 557
REMARK  4 active torsions:
REMARK  status: ('A' for Active; 'I' for Inactive)
REMARK    1  A    between atoms: CA   and  CB  
REMARK    2  A    between atoms: CB   and  CG  
REMARK    3  A    between atoms: CG   and  CD  
REMARK    4  A    between atoms: CD   and  NE  
REMARK       I    between atoms: NE   and  CZ  
REMARK       I    between atoms: CZ   and  NH1 
REMARK       I    between atoms: CZ   and  NH2 
ROOT
ATOM      1  CA  ARG D 557     -26.217   2.705 -17.014  1.00 35.49     0.159 C 
ENDROOT
BRANCH   1   2
ATOM      2  CB  ARG D 557     -26.789   1.319 -17.183  1.00 35.49     0.034 C 
BRANCH   2   3
ATOM      3  CG  ARG D 557     -25.835   0.204 -17.166  1.00 35.49     0.027 C 
BRANCH   3   4
ATOM      4  CD  ARG D 557     -24.768   0.389 -16.155  1.00 35.49     0.116 C 
BRANCH   4   5
ATOM      5  NE  ARG D 557     -24.944  -0.476 -15.018  1.00 35.49    -0.212 N 
ATOM      6  CZ  ARG D 557     -24.138  -1.452 -14.665  1.00 35.49     0.666 C 
ATOM      7  NH1 ARG D 557     -23.053  -1.760 -15.350  1.00 35.49    -0.235 N 
ATOM      8  NH2 ARG D 557     -24.442  -2.121 -13.590  1.00 35.49    -0.235 N 
ATOM      9  HH  ARG D 557     -22.833  -1.332 -16.059  1.00 35.49     0.174 HD
ATOM     10  HH  ARG D 557     -22.564  -2.406 -15.070  1.00 35.49     0.174 HD
ATOM     11  HH  ARG D 557     -25.144  -1.895 -13.163  1.00 35.49     0.174 HD
ATOM     12  HH  ARG D 557     -23.944  -2.756 -13.328  1.00 35.49     0.174 HD
ATOM     13  HE  ARG D 557     -25.656  -0.395 -14.561  1.00 35.49     0.178 HD
ENDBRANCH   4   5
ENDBRANCH   3   4
ENDBRANCH   2   3
ENDBRANCH   1   2
END_RES ARG D 557
BEGIN_RES GLU D 570
REMARK  3 active torsions:
REMARK  status: ('A' for Active; 'I' for Inactive)
REMARK    5  A    between atoms: CA   and  CB  
REMARK    6  A    between atoms: CB   and  CG  
REMARK    7  A    between atoms: CG   and  CD  
ROOT
ATOM     14  CA  GLU D 570     -18.033  -6.348 -13.375  1.00 32.92     0.160 C 
ENDROOT
BRANCH  14  15
ATOM     15  CB  GLU D 570     -19.500  -6.345 -13.794  1.00 32.92     0.043 C 
BRANCH  15  16
ATOM     16  CG  GLU D 570     -20.445  -5.544 -12.973  1.00 32.92     0.100 C 
BRANCH  16  17
ATOM     17  CD  GLU D 570     -21.700  -5.164 -13.723  1.00 32.92     0.185 C 
ATOM     18  OE1 GLU D 570     -22.106  -5.904 -14.639  1.00 32.92    -0.647 OA
ATOM     19  OE2 GLU D 570     -22.276  -4.106 -13.401  1.00 32.92    -0.647 OA
ENDBRANCH  16  17
ENDBRANCH  15  16
ENDBRANCH  14  15
END_RES GLU D 570
ENDMDL
