MODEL 1
REMARK VINA RESULT:      -6.6      0.000      0.000
REMARK  16 active torsions:
REMARK  status: ('A' for Active; 'I' for Inactive)
REMARK    1  A    between atoms: C_2  and  C_3 
REMARK    2  A    between atoms: C_3  and  C_4 
REMARK    3  A    between atoms: C_4  and  C_5 
REMARK    4  A    between atoms: C_5  and  C_6 
REMARK    5  A    between atoms: C_6  and  C_7 
REMARK    6  A    between atoms: C_7  and  C_8 
REMARK    7  A    between atoms: C_8  and  C_9 
REMARK    8  A    between atoms: C_9  and  C_10 
REMARK    9  A    between atoms: C_10  and  C_11 
REMARK   10  A    between atoms: C_11  and  C_12 
REMARK   11  A    between atoms: C_12  and  O_14 
REMARK   12  A    between atoms: O_14  and  C_15 
REMARK   13  A    between atoms: C_15  and  C_16 
REMARK   14  A    between atoms: C_16  and  C_17 
REMARK   15  A    between atoms: C_17  and  C_18 
REMARK   16  A    between atoms: C_18  and  C_19 
ROOT
HETATM    1  C   UNL     1     -20.067  -4.929  -5.868  1.00  0.00     0.010 C 
ENDROOT
BRANCH   1   2
HETATM    2  C   UNL     1     -20.930  -4.168  -6.863  1.00  0.00     0.000 C 
BRANCH   2   3
HETATM    3  C   UNL     1     -20.922  -4.872  -8.214  1.00  0.00     0.000 C 
BRANCH   3   4
HETATM    4  C   UNL     1     -20.473  -3.911  -9.302  1.00  0.00     0.000 C 
BRANCH   4   5
HETATM    5  C   UNL     1     -20.198  -4.668 -10.589  1.00  0.00     0.000 C 
BRANCH   5   6
HETATM    6  C   UNL     1     -21.307  -4.405 -11.592  1.00  0.00     0.000 C 
BRANCH   6   7
HETATM    7  C   UNL     1     -21.785  -2.969 -11.472  1.00  0.00     0.000 C 
BRANCH   7   8
HETATM    8  C   UNL     1     -23.292  -2.907 -11.649  1.00  0.00    -0.000 C 
BRANCH   8   9
HETATM    9  C   UNL     1     -23.964  -3.993 -10.824  1.00  0.00    -0.005 C 
HETATM   10  C   UNL     1     -24.343  -3.452  -9.461  1.00  0.00     0.005 C 
ENDBRANCH   8   9
ENDBRANCH   7   8
ENDBRANCH   6   7
ENDBRANCH   5   6
ENDBRANCH   4   5
ENDBRANCH   3   4
ENDBRANCH   2   3
ENDBRANCH   1   2
BRANCH   1  11
HETATM   11  C   UNL     1     -20.633  -6.316  -5.559  1.00  0.00     0.111 C 
BRANCH  11  12
HETATM   12  C   UNL     1     -21.856  -6.197  -4.673  1.00  0.00     0.258 C 
HETATM   13  O   UNL     1     -23.018  -6.332  -5.064  1.00  0.00    -0.265 OA
BRANCH  12  14
HETATM   14  O   UNL     1     -21.515  -5.826  -3.408  1.00  0.00    -0.321 OA
BRANCH  14  15
HETATM   15  C   UNL     1     -21.466  -6.911  -2.466  1.00  0.00     0.178 C 
BRANCH  15  16
HETATM   16  C   UNL     1     -22.320  -6.658  -1.232  1.00  0.00     0.027 C 
BRANCH  16  17
HETATM   17  C   UNL     1     -21.951  -7.623  -0.101  1.00  0.00     0.002 C 
BRANCH  17  18
HETATM   18  C   UNL     1     -23.111  -8.561   0.211  1.00  0.00    -0.000 C 
BRANCH  18  19
HETATM   19  C   UNL     1     -22.883  -9.933  -0.410  1.00  0.00    -0.005 C 
HETATM   20  C   UNL     1     -24.045 -10.855  -0.096  1.00  0.00     0.005 C 
ENDBRANCH  18  19
ENDBRANCH  17  18
ENDBRANCH  16  17
ENDBRANCH  15  16
ENDBRANCH  14  15
ENDBRANCH  12  14
ENDBRANCH  11  12
ENDBRANCH   1  11
TORSDOF 16
BEGIN_RES ARG D 557
REMARK  4 active torsions:
REMARK  status: ('A' for Active; 'I' for Inactive)
REMARK    1  A    between atoms: CA   and  CB  
REMARK    2  A    between atoms: CB   and  CG  
REMARK    3  A    between atoms: CG   and  CD  
REMARK    4  A    between atoms: CD   and  NE  
REMARK       I    between atoms: NE   and  CZ  
REMARK       I    between atoms: CZ   and  NH1 
REMARK       I    between atoms: CZ   and  NH2 
ROOT
ATOM      1  CA  ARG D 557     -26.217   2.705 -17.014  1.00 35.49     0.159 C 
ENDROOT
BRANCH   1   2
ATOM      2  CB  ARG D 557     -26.789   1.319 -17.183  1.00 35.49     0.034 C 
BRANCH   2   3
ATOM      3  CG  ARG D 557     -28.231   1.227 -17.444  1.00 35.49     0.027 C 
BRANCH   3   4
ATOM      4  CD  ARG D 557     -28.916   0.306 -16.509  1.00 35.49     0.116 C 
BRANCH   4   5
ATOM      5  NE  ARG D 557     -29.304  -0.925 -17.146  1.00 35.49    -0.212 N 
ATOM      6  CZ  ARG D 557     -28.675  -2.074 -17.045  1.00 35.49     0.666 C 
ATOM      7  NH1 ARG D 557     -27.572  -2.219 -16.334  1.00 35.49    -0.235 N 
ATOM      8  NH2 ARG D 557     -29.182  -3.094 -17.675  1.00 35.49    -0.235 N 
ATOM      9  HH  ARG D 557     -27.222  -1.562 -15.909  1.00 35.49     0.174 HD
ATOM     10  HH  ARG D 557     -27.206  -2.993 -16.302  1.00 35.49     0.174 HD
ATOM     11  HH  ARG D 557     -29.899  -2.972 -18.121  1.00 35.49     0.174 HD
ATOM     12  HH  ARG D 557     -28.806  -3.852 -17.631  1.00 35.49     0.174 HD
ATOM     13  HE  ARG D 557     -29.964  -0.906 -17.683  1.00 35.49     0.178 HD
ENDBRANCH   4   5
ENDBRANCH   3   4
ENDBRANCH   2   3
ENDBRANCH   1   2
END_RES ARG D 557
BEGIN_RES GLU D 570
REMARK  3 active torsions:
REMARK  status: ('A' for Active; 'I' for Inactive)
REMARK    5  A    between atoms: CA   and  CB  
REMARK    6  A    between atoms: CB   and  CG  
REMARK    7  A    between atoms: CG   and  CD  
ROOT
ATOM     14  CA  GLU D 570     -18.033  -6.348 -13.375  1.00 32.92     0.160 C 
ENDROOT
BRANCH  14  15
ATOM     15  CB  GLU D 570     -19.500  -6.345 -13.794  1.00 32.92     0.043 C 
BRANCH  15  16
ATOM     16  CG  GLU D 570     -20.095  -7.640 -14.213  1.00 32.92     0.100 C 
BRANCH  16  17
ATOM     17  CD  GLU D 570     -20.641  -7.611 -15.621  1.00 32.92     0.185 C 
ATOM     18  OE1 GLU D 570     -21.084  -8.662 -16.121  1.00 32.92    -0.647 OA
ATOM     19  OE2 GLU D 570     -20.611  -6.527 -16.237  1.00 32.92    -0.647 OA
ENDBRANCH  16  17
ENDBRANCH  15  16
ENDBRANCH  14  15
END_RES GLU D 570
ENDMDL
MODEL 2
REMARK VINA RESULT:      -6.4      4.219      9.584
REMARK  16 active torsions:
REMARK  status: ('A' for Active; 'I' for Inactive)
REMARK    1  A    between atoms: C_2  and  C_3 
REMARK    2  A    between atoms: C_3  and  C_4 
REMARK    3  A    between atoms: C_4  and  C_5 
REMARK    4  A    between atoms: C_5  and  C_6 
REMARK    5  A    between atoms: C_6  and  C_7 
REMARK    6  A    between atoms: C_7  and  C_8 
REMARK    7  A    between atoms: C_8  and  C_9 
REMARK    8  A    between atoms: C_9  and  C_10 
REMARK    9  A    between atoms: C_10  and  C_11 
REMARK   10  A    between atoms: C_11  and  C_12 
REMARK   11  A    between atoms: C_12  and  O_14 
REMARK   12  A    between atoms: O_14  and  C_15 
REMARK   13  A    between atoms: C_15  and  C_16 
REMARK   14  A    between atoms: C_16  and  C_17 
REMARK   15  A    between atoms: C_17  and  C_18 
REMARK   16  A    between atoms: C_18  and  C_19 
ROOT
HETATM    1  C   UNL     1     -23.489  -5.546 -13.261  1.00  0.00     0.010 C 
ENDROOT
BRANCH   1   2
HETATM    2  C   UNL     1     -22.273  -4.786 -12.755  1.00  0.00     0.000 C 
BRANCH   2   3
HETATM    3  C   UNL     1     -22.457  -4.410 -11.291  1.00  0.00     0.000 C 
BRANCH   3   4
HETATM    4  C   UNL     1     -21.247  -3.637 -10.792  1.00  0.00     0.000 C 
BRANCH   4   5
HETATM    5  C   UNL     1     -20.583  -4.385  -9.650  1.00  0.00     0.000 C 
BRANCH   5   6
HETATM    6  C   UNL     1     -21.608  -4.713  -8.579  1.00  0.00     0.000 C 
BRANCH   6   7
HETATM    7  C   UNL     1     -21.372  -3.849  -7.353  1.00  0.00     0.000 C 
BRANCH   7   8
HETATM    8  C   UNL     1     -20.326  -4.491  -6.459  1.00  0.00    -0.000 C 
BRANCH   8   9
HETATM    9  C   UNL     1     -20.652  -5.961  -6.240  1.00  0.00    -0.005 C 
HETATM   10  C   UNL     1     -21.520  -6.124  -5.009  1.00  0.00     0.005 C 
ENDBRANCH   8   9
ENDBRANCH   7   8
ENDBRANCH   6   7
ENDBRANCH   5   6
ENDBRANCH   4   5
ENDBRANCH   3   4
ENDBRANCH   2   3
ENDBRANCH   1   2
BRANCH   1  11
HETATM   11  C   UNL     1     -23.533  -5.608 -14.789  1.00  0.00     0.111 C 
BRANCH  11  12
HETATM   12  C   UNL     1     -24.831  -6.236 -15.252  1.00  0.00     0.258 C 
HETATM   13  O   UNL     1     -25.034  -7.451 -15.324  1.00  0.00    -0.265 OA
BRANCH  12  14
HETATM   14  O   UNL     1     -25.715  -5.289 -15.672  1.00  0.00    -0.321 OA
BRANCH  14  15
HETATM   15  C   UNL     1     -26.908  -5.820 -16.274  1.00  0.00     0.178 C 
BRANCH  15  16
HETATM   16  C   UNL     1     -28.101  -4.883 -16.143  1.00  0.00     0.027 C 
BRANCH  16  17
HETATM   17  C   UNL     1     -29.377  -5.661 -15.811  1.00  0.00     0.002 C 
BRANCH  17  18
HETATM   18  C   UNL     1     -30.433  -5.456 -16.891  1.00  0.00    -0.000 C 
BRANCH  18  19
HETATM   19  C   UNL     1     -30.960  -6.793 -17.397  1.00  0.00    -0.005 C 
HETATM   20  C   UNL     1     -29.900  -7.502 -18.217  1.00  0.00     0.005 C 
ENDBRANCH  18  19
ENDBRANCH  17  18
ENDBRANCH  16  17
ENDBRANCH  15  16
ENDBRANCH  14  15
ENDBRANCH  12  14
ENDBRANCH  11  12
ENDBRANCH   1  11
TORSDOF 16
BEGIN_RES ARG D 557
REMARK  4 active torsions:
REMARK  status: ('A' for Active; 'I' for Inactive)
REMARK    1  A    between atoms: CA   and  CB  
REMARK    2  A    between atoms: CB   and  CG  
REMARK    3  A    between atoms: CG   and  CD  
REMARK    4  A    between atoms: CD   and  NE  
REMARK       I    between atoms: NE   and  CZ  
REMARK       I    between atoms: CZ   and  NH1 
REMARK       I    between atoms: CZ   and  NH2 
ROOT
ATOM      1  CA  ARG D 557     -26.217   2.705 -17.014  1.00 35.49     0.159 C 
ENDROOT
BRANCH   1   2
ATOM      2  CB  ARG D 557     -26.789   1.319 -17.183  1.00 35.49     0.034 C 
BRANCH   2   3
ATOM      3  CG  ARG D 557     -25.854   0.196 -17.041  1.00 35.49     0.027 C 
BRANCH   3   4
ATOM      4  CD  ARG D 557     -26.202  -0.689 -15.906  1.00 35.49     0.116 C 
BRANCH   4   5
ATOM      5  NE  ARG D 557     -25.094  -0.880 -15.008  1.00 35.49    -0.212 N 
ATOM      6  CZ  ARG D 557     -24.932  -1.901 -14.196  1.00 35.49     0.666 C 
ATOM      7  NH1 ARG D 557     -25.808  -2.884 -14.108  1.00 35.49    -0.235 N 
ATOM      8  NH2 ARG D 557     -23.854  -1.921 -13.466  1.00 35.49    -0.235 N 
ATOM      9  HH  ARG D 557     -26.523  -2.892 -14.580  1.00 35.49     0.174 HD
ATOM     10  HH  ARG D 557     -25.648  -3.525 -13.562  1.00 35.49     0.174 HD
ATOM     11  HH  ARG D 557     -23.302  -1.276 -13.549  1.00 35.49     0.174 HD
ATOM     12  HH  ARG D 557     -23.712  -2.565 -12.933  1.00 35.49     0.174 HD
ATOM     13  HE  ARG D 557     -24.518  -0.258 -14.947  1.00 35.49     0.178 HD
ENDBRANCH   4   5
ENDBRANCH   3   4
ENDBRANCH   2   3
ENDBRANCH   1   2
END_RES ARG D 557
BEGIN_RES GLU D 570
REMARK  3 active torsions:
REMARK  status: ('A' for Active; 'I' for Inactive)
REMARK    5  A    between atoms: CA   and  CB  
REMARK    6  A    between atoms: CB   and  CG  
REMARK    7  A    between atoms: CG   and  CD  
ROOT
ATOM     14  CA  GLU D 570     -18.033  -6.348 -13.375  1.00 32.92     0.160 C 
ENDROOT
BRANCH  14  15
ATOM     15  CB  GLU D 570     -19.500  -6.345 -13.794  1.00 32.92     0.043 C 
BRANCH  15  16
ATOM     16  CG  GLU D 570     -19.796  -6.286 -15.249  1.00 32.92     0.100 C 
BRANCH  16  17
ATOM     17  CD  GLU D 570     -20.616  -7.459 -15.732  1.00 32.92     0.185 C 
ATOM     18  OE1 GLU D 570     -21.291  -7.339 -16.772  1.00 32.92    -0.647 OA
ATOM     19  OE2 GLU D 570     -20.596  -8.505 -15.053  1.00 32.92    -0.647 OA
ENDBRANCH  16  17
ENDBRANCH  15  16
ENDBRANCH  14  15
END_RES GLU D 570
ENDMDL
MODEL 3
REMARK VINA RESULT:      -6.4      2.399      8.347
REMARK  16 active torsions:
REMARK  status: ('A' for Active; 'I' for Inactive)
REMARK    1  A    between atoms: C_2  and  C_3 
REMARK    2  A    between atoms: C_3  and  C_4 
REMARK    3  A    between atoms: C_4  and  C_5 
REMARK    4  A    between atoms: C_5  and  C_6 
REMARK    5  A    between atoms: C_6  and  C_7 
REMARK    6  A    between atoms: C_7  and  C_8 
REMARK    7  A    between atoms: C_8  and  C_9 
REMARK    8  A    between atoms: C_9  and  C_10 
REMARK    9  A    between atoms: C_10  and  C_11 
REMARK   10  A    between atoms: C_11  and  C_12 
REMARK   11  A    between atoms: C_12  and  O_14 
REMARK   12  A    between atoms: O_14  and  C_15 
REMARK   13  A    between atoms: C_15  and  C_16 
REMARK   14  A    between atoms: C_16  and  C_17 
REMARK   15  A    between atoms: C_17  and  C_18 
REMARK   16  A    between atoms: C_18  and  C_19 
ROOT
HETATM    1  C   UNL     1     -21.338  -7.749  -3.354  1.00  0.00     0.010 C 
ENDROOT
BRANCH   1   2
HETATM    2  C   UNL     1     -21.019  -7.220  -1.964  1.00  0.00     0.000 C 
BRANCH   2   3
HETATM    3  C   UNL     1     -22.289  -6.736  -1.279  1.00  0.00     0.000 C 
BRANCH   3   4
HETATM    4  C   UNL     1     -22.642  -7.653  -0.120  1.00  0.00     0.000 C 
BRANCH   4   5
HETATM    5  C   UNL     1     -21.447  -8.513   0.250  1.00  0.00     0.000 C 
BRANCH   5   6
HETATM    6  C   UNL     1     -21.866  -9.969   0.347  1.00  0.00     0.000 C 
BRANCH   6   7
HETATM    7  C   UNL     1     -23.194 -10.175  -0.359  1.00  0.00     0.000 C 
BRANCH   7   8
HETATM    8  C   UNL     1     -23.827 -11.478   0.094  1.00  0.00    -0.000 C 
BRANCH   8   9
HETATM    9  C   UNL     1     -22.757 -12.439   0.589  1.00  0.00    -0.005 C 
HETATM   10  C   UNL     1     -23.361 -13.439   1.554  1.00  0.00     0.005 C 
ENDBRANCH   8   9
ENDBRANCH   7   8
ENDBRANCH   6   7
ENDBRANCH   5   6
ENDBRANCH   4   5
ENDBRANCH   3   4
ENDBRANCH   2   3
ENDBRANCH   1   2
BRANCH   1  11
HETATM   11  C   UNL     1     -22.002  -6.688  -4.234  1.00  0.00     0.111 C 
BRANCH  11  12
HETATM   12  C   UNL     1     -21.441  -6.747  -5.640  1.00  0.00     0.258 C 
HETATM   13  O   UNL     1     -20.696  -7.637  -6.059  1.00  0.00    -0.265 OA
BRANCH  12  14
HETATM   14  O   UNL     1     -21.786  -5.641  -6.355  1.00  0.00    -0.321 OA
BRANCH  14  15
HETATM   15  C   UNL     1     -20.780  -4.614  -6.376  1.00  0.00     0.178 C 
BRANCH  15  16
HETATM   16  C   UNL     1     -20.871  -3.725  -7.608  1.00  0.00     0.027 C 
BRANCH  16  17
HETATM   17  C   UNL     1     -22.265  -3.801  -8.238  1.00  0.00     0.002 C 
BRANCH  17  18
HETATM   18  C   UNL     1     -22.199  -4.420  -9.629  1.00  0.00    -0.000 C 
BRANCH  18  19
HETATM   19  C   UNL     1     -23.423  -4.039 -10.452  1.00  0.00    -0.005 C 
HETATM   20  C   UNL     1     -24.468  -3.381  -9.572  1.00  0.00     0.005 C 
ENDBRANCH  18  19
ENDBRANCH  17  18
ENDBRANCH  16  17
ENDBRANCH  15  16
ENDBRANCH  14  15
ENDBRANCH  12  14
ENDBRANCH  11  12
ENDBRANCH   1  11
TORSDOF 16
BEGIN_RES ARG D 557
REMARK  4 active torsions:
REMARK  status: ('A' for Active; 'I' for Inactive)
REMARK    1  A    between atoms: CA   and  CB  
REMARK    2  A    between atoms: CB   and  CG  
REMARK    3  A    between atoms: CG   and  CD  
REMARK    4  A    between atoms: CD   and  NE  
REMARK       I    between atoms: NE   and  CZ  
REMARK       I    between atoms: CZ   and  NH1 
REMARK       I    between atoms: CZ   and  NH2 
ROOT
ATOM      1  CA  ARG D 557     -26.217   2.705 -17.014  1.00 35.49     0.159 C 
ENDROOT
BRANCH   1   2
ATOM      2  CB  ARG D 557     -26.789   1.319 -17.183  1.00 35.49     0.034 C 
BRANCH   2   3
ATOM      3  CG  ARG D 557     -25.837   0.202 -17.146  1.00 35.49     0.027 C 
BRANCH   3   4
ATOM      4  CD  ARG D 557     -24.752   0.419 -16.162  1.00 35.49     0.116 C 
BRANCH   4   5
ATOM      5  NE  ARG D 557     -24.886  -0.433 -15.010  1.00 35.49    -0.212 N 
ATOM      6  CZ  ARG D 557     -24.065  -1.401 -14.670  1.00 35.49     0.666 C 
ATOM      7  NH1 ARG D 557     -23.000  -1.711 -15.386  1.00 35.49    -0.235 N 
ATOM      8  NH2 ARG D 557     -24.330  -2.059 -13.579  1.00 35.49    -0.235 N 
ATOM      9  HH  ARG D 557     -22.805  -1.291 -16.106  1.00 35.49     0.174 HD
ATOM     10  HH  ARG D 557     -22.499  -2.351 -15.114  1.00 35.49     0.174 HD
ATOM     11  HH  ARG D 557     -25.021  -1.832 -13.133  1.00 35.49     0.174 HD
ATOM     12  HH  ARG D 557     -23.821  -2.688 -13.325  1.00 35.49     0.174 HD
ATOM     13  HE  ARG D 557     -25.584  -0.351 -14.531  1.00 35.49     0.178 HD
ENDBRANCH   4   5
ENDBRANCH   3   4
ENDBRANCH   2   3
ENDBRANCH   1   2
END_RES ARG D 557
BEGIN_RES GLU D 570
REMARK  3 active torsions:
REMARK  status: ('A' for Active; 'I' for Inactive)
REMARK    5  A    between atoms: CA   and  CB  
REMARK    6  A    between atoms: CB   and  CG  
REMARK    7  A    between atoms: CG   and  CD  
ROOT
ATOM     14  CA  GLU D 570     -18.033  -6.348 -13.375  1.00 32.92     0.160 C 
ENDROOT
BRANCH  14  15
ATOM     15  CB  GLU D 570     -19.500  -6.345 -13.794  1.00 32.92     0.043 C 
BRANCH  15  16
ATOM     16  CG  GLU D 570     -20.438  -5.515 -12.995  1.00 32.92     0.100 C 
BRANCH  16  17
ATOM     17  CD  GLU D 570     -21.737  -5.236 -13.715  1.00 32.92     0.185 C 
ATOM     18  OE1 GLU D 570     -22.229  -4.093 -13.654  1.00 32.92    -0.647 OA
ATOM     19  OE2 GLU D 570     -22.277  -6.175 -14.332  1.00 32.92    -0.647 OA
ENDBRANCH  16  17
ENDBRANCH  15  16
ENDBRANCH  14  15
END_RES GLU D 570
ENDMDL
MODEL 4
REMARK VINA RESULT:      -6.3      2.496      3.579
REMARK  16 active torsions:
REMARK  status: ('A' for Active; 'I' for Inactive)
REMARK    1  A    between atoms: C_2  and  C_3 
REMARK    2  A    between atoms: C_3  and  C_4 
REMARK    3  A    between atoms: C_4  and  C_5 
REMARK    4  A    between atoms: C_5  and  C_6 
REMARK    5  A    between atoms: C_6  and  C_7 
REMARK    6  A    between atoms: C_7  and  C_8 
REMARK    7  A    between atoms: C_8  and  C_9 
REMARK    8  A    between atoms: C_9  and  C_10 
REMARK    9  A    between atoms: C_10  and  C_11 
REMARK   10  A    between atoms: C_11  and  C_12 
REMARK   11  A    between atoms: C_12  and  O_14 
REMARK   12  A    between atoms: O_14  and  C_15 
REMARK   13  A    between atoms: C_15  and  C_16 
REMARK   14  A    between atoms: C_16  and  C_17 
REMARK   15  A    between atoms: C_17  and  C_18 
REMARK   16  A    between atoms: C_18  and  C_19 
ROOT
HETATM    1  C   UNL     1     -22.187  -6.767  -3.940  1.00  0.00     0.010 C 
ENDROOT
BRANCH   1   2
HETATM    2  C   UNL     1     -21.273  -6.747  -5.156  1.00  0.00     0.000 C 
BRANCH   2   3
HETATM    3  C   UNL     1     -21.616  -5.566  -6.053  1.00  0.00     0.000 C 
BRANCH   3   4
HETATM    4  C   UNL     1     -20.469  -4.568  -6.068  1.00  0.00     0.000 C 
BRANCH   4   5
HETATM    5  C   UNL     1     -19.494  -4.907  -7.181  1.00  0.00     0.000 C 
BRANCH   5   6
HETATM    6  C   UNL     1     -19.625  -3.899  -8.309  1.00  0.00     0.000 C 
BRANCH   6   7
HETATM    7  C   UNL     1     -20.244  -4.562  -9.527  1.00  0.00     0.000 C 
BRANCH   7   8
HETATM    8  C   UNL     1     -21.547  -3.872  -9.889  1.00  0.00    -0.000 C 
BRANCH   8   9
HETATM    9  C   UNL     1     -22.731  -4.710  -9.432  1.00  0.00    -0.005 C 
HETATM   10  C   UNL     1     -23.756  -4.812 -10.543  1.00  0.00     0.005 C 
ENDBRANCH   8   9
ENDBRANCH   7   8
ENDBRANCH   6   7
ENDBRANCH   5   6
ENDBRANCH   4   5
ENDBRANCH   3   4
ENDBRANCH   2   3
ENDBRANCH   1   2
BRANCH   1  11
HETATM   11  C   UNL     1     -21.517  -6.154  -2.708  1.00  0.00     0.111 C 
BRANCH  11  12
HETATM   12  C   UNL     1     -21.459  -7.167  -1.584  1.00  0.00     0.258 C 
HETATM   13  O   UNL     1     -20.575  -8.019  -1.456  1.00  0.00    -0.265 OA
BRANCH  12  14
HETATM   14  O   UNL     1     -22.558  -7.083  -0.786  1.00  0.00    -0.321 OA
BRANCH  14  15
HETATM   15  C   UNL     1     -22.534  -7.965   0.350  1.00  0.00     0.178 C 
BRANCH  15  16
HETATM   16  C   UNL     1     -23.575  -9.072   0.258  1.00  0.00     0.027 C 
BRANCH  16  17
HETATM   17  C   UNL     1     -22.942 -10.384  -0.213  1.00  0.00     0.002 C 
BRANCH  17  18
HETATM   18  C   UNL     1     -23.845 -11.568   0.109  1.00  0.00    -0.000 C 
BRANCH  18  19
HETATM   19  C   UNL     1     -23.027 -12.841   0.292  1.00  0.00    -0.005 C 
HETATM   20  C   UNL     1     -23.299 -13.452   1.653  1.00  0.00     0.005 C 
ENDBRANCH  18  19
ENDBRANCH  17  18
ENDBRANCH  16  17
ENDBRANCH  15  16
ENDBRANCH  14  15
ENDBRANCH  12  14
ENDBRANCH  11  12
ENDBRANCH   1  11
TORSDOF 16
BEGIN_RES ARG D 557
REMARK  4 active torsions:
REMARK  status: ('A' for Active; 'I' for Inactive)
REMARK    1  A    between atoms: CA   and  CB  
REMARK    2  A    between atoms: CB   and  CG  
REMARK    3  A    between atoms: CG   and  CD  
REMARK    4  A    between atoms: CD   and  NE  
REMARK       I    between atoms: NE   and  CZ  
REMARK       I    between atoms: CZ   and  NH1 
REMARK       I    between atoms: CZ   and  NH2 
ROOT
ATOM      1  CA  ARG D 557     -26.217   2.705 -17.014  1.00 35.49     0.159 C 
ENDROOT
BRANCH   1   2
ATOM      2  CB  ARG D 557     -26.789   1.319 -17.183  1.00 35.49     0.034 C 
BRANCH   2   3
ATOM      3  CG  ARG D 557     -25.837   0.203 -17.149  1.00 35.49     0.027 C 
BRANCH   3   4
ATOM      4  CD  ARG D 557     -24.762   0.408 -16.151  1.00 35.49     0.116 C 
BRANCH   4   5
ATOM      5  NE  ARG D 557     -24.915  -0.448 -15.005  1.00 35.49    -0.212 N 
ATOM      6  CZ  ARG D 557     -24.106  -1.425 -14.662  1.00 35.49     0.666 C 
ATOM      7  NH1 ARG D 557     -23.037  -1.742 -15.369  1.00 35.49    -0.235 N 
ATOM      8  NH2 ARG D 557     -24.388  -2.086 -13.577  1.00 35.49    -0.235 N 
ATOM      9  HH  ARG D 557     -22.831  -1.320 -16.086  1.00 35.49     0.174 HD
ATOM     10  HH  ARG D 557     -22.544  -2.388 -15.096  1.00 35.49     0.174 HD
ATOM     11  HH  ARG D 557     -25.081  -1.854 -13.136  1.00 35.49     0.174 HD
ATOM     12  HH  ARG D 557     -23.887  -2.721 -13.321  1.00 35.49     0.174 HD
ATOM     13  HE  ARG D 557     -25.617  -0.362 -14.533  1.00 35.49     0.178 HD
ENDBRANCH   4   5
ENDBRANCH   3   4
ENDBRANCH   2   3
ENDBRANCH   1   2
END_RES ARG D 557
BEGIN_RES GLU D 570
REMARK  3 active torsions:
REMARK  status: ('A' for Active; 'I' for Inactive)
REMARK    5  A    between atoms: CA   and  CB  
REMARK    6  A    between atoms: CB   and  CG  
REMARK    7  A    between atoms: CG   and  CD  
ROOT
ATOM     14  CA  GLU D 570     -18.033  -6.348 -13.375  1.00 32.92     0.160 C 
ENDROOT
BRANCH  14  15
ATOM     15  CB  GLU D 570     -19.500  -6.345 -13.794  1.00 32.92     0.043 C 
BRANCH  15  16
ATOM     16  CG  GLU D 570     -20.440  -5.522 -12.990  1.00 32.92     0.100 C 
BRANCH  16  17
ATOM     17  CD  GLU D 570     -21.741  -5.245 -13.706  1.00 32.92     0.185 C 
ATOM     18  OE1 GLU D 570     -22.272  -4.124 -13.585  1.00 32.92    -0.647 OA
ATOM     19  OE2 GLU D 570     -22.244  -6.164 -14.382  1.00 32.92    -0.647 OA
ENDBRANCH  16  17
ENDBRANCH  15  16
ENDBRANCH  14  15
END_RES GLU D 570
ENDMDL
MODEL 5
REMARK VINA RESULT:      -6.3      5.167     10.018
REMARK  16 active torsions:
REMARK  status: ('A' for Active; 'I' for Inactive)
REMARK    1  A    between atoms: C_2  and  C_3 
REMARK    2  A    between atoms: C_3  and  C_4 
REMARK    3  A    between atoms: C_4  and  C_5 
REMARK    4  A    between atoms: C_5  and  C_6 
REMARK    5  A    between atoms: C_6  and  C_7 
REMARK    6  A    between atoms: C_7  and  C_8 
REMARK    7  A    between atoms: C_8  and  C_9 
REMARK    8  A    between atoms: C_9  and  C_10 
REMARK    9  A    between atoms: C_10  and  C_11 
REMARK   10  A    between atoms: C_11  and  C_12 
REMARK   11  A    between atoms: C_12  and  O_14 
REMARK   12  A    between atoms: O_14  and  C_15 
REMARK   13  A    between atoms: C_15  and  C_16 
REMARK   14  A    between atoms: C_16  and  C_17 
REMARK   15  A    between atoms: C_17  and  C_18 
REMARK   16  A    between atoms: C_18  and  C_19 
ROOT
HETATM    1  C   UNL     1     -23.855  -6.122 -14.427  1.00  0.00     0.010 C 
ENDROOT
BRANCH   1   2
HETATM    2  C   UNL     1     -22.906  -4.954 -14.650  1.00  0.00     0.000 C 
BRANCH   2   3
HETATM    3  C   UNL     1     -22.433  -4.396 -13.315  1.00  0.00     0.000 C 
BRANCH   3   4
HETATM    4  C   UNL     1     -23.198  -5.048 -12.174  1.00  0.00     0.000 C 
BRANCH   4   5
HETATM    5  C   UNL     1     -22.810  -4.411 -10.852  1.00  0.00     0.000 C 
BRANCH   5   6
HETATM    6  C   UNL     1     -21.429  -3.789 -10.961  1.00  0.00     0.000 C 
BRANCH   6   7
HETATM    7  C   UNL     1     -20.558  -4.255  -9.807  1.00  0.00     0.000 C 
BRANCH   7   8
HETATM    8  C   UNL     1     -21.402  -4.434  -8.558  1.00  0.00    -0.000 C 
BRANCH   8   9
HETATM    9  C   UNL     1     -20.588  -4.092  -7.320  1.00  0.00    -0.005 C 
HETATM   10  C   UNL     1     -19.140  -4.488  -7.523  1.00  0.00     0.005 C 
ENDBRANCH   8   9
ENDBRANCH   7   8
ENDBRANCH   6   7
ENDBRANCH   5   6
ENDBRANCH   4   5
ENDBRANCH   3   4
ENDBRANCH   2   3
ENDBRANCH   1   2
BRANCH   1  11
HETATM   11  C   UNL     1     -24.260  -6.792 -15.741  1.00  0.00     0.111 C 
BRANCH  11  12
HETATM   12  C   UNL     1     -25.763  -6.733 -15.918  1.00  0.00     0.258 C 
HETATM   13  O   UNL     1     -26.564  -7.479 -15.350  1.00  0.00    -0.265 OA
BRANCH  12  14
HETATM   14  O   UNL     1     -26.113  -5.815 -16.861  1.00  0.00    -0.321 OA
BRANCH  14  15
HETATM   15  C   UNL     1     -26.424  -6.377 -18.147  1.00  0.00     0.178 C 
BRANCH  15  16
HETATM   16  C   UNL     1     -27.877  -6.162 -18.547  1.00  0.00     0.027 C 
BRANCH  16  17
HETATM   17  C   UNL     1     -28.412  -4.843 -17.985  1.00  0.00     0.002 C 
BRANCH  17  18
HETATM   18  C   UNL     1     -29.931  -4.881 -17.864  1.00  0.00    -0.000 C 
BRANCH  18  19
HETATM   19  C   UNL     1     -30.369  -5.922 -16.841  1.00  0.00    -0.005 C 
HETATM   20  C   UNL     1     -31.239  -6.975 -17.500  1.00  0.00     0.005 C 
ENDBRANCH  18  19
ENDBRANCH  17  18
ENDBRANCH  16  17
ENDBRANCH  15  16
ENDBRANCH  14  15
ENDBRANCH  12  14
ENDBRANCH  11  12
ENDBRANCH   1  11
TORSDOF 16
BEGIN_RES ARG D 557
REMARK  4 active torsions:
REMARK  status: ('A' for Active; 'I' for Inactive)
REMARK    1  A    between atoms: CA   and  CB  
REMARK    2  A    between atoms: CB   and  CG  
REMARK    3  A    between atoms: CG   and  CD  
REMARK    4  A    between atoms: CD   and  NE  
REMARK       I    between atoms: NE   and  CZ  
REMARK       I    between atoms: CZ   and  NH1 
REMARK       I    between atoms: CZ   and  NH2 
ROOT
ATOM      1  CA  ARG D 557     -26.217   2.705 -17.014  1.00 35.49     0.159 C 
ENDROOT
BRANCH   1   2
ATOM      2  CB  ARG D 557     -26.789   1.319 -17.183  1.00 35.49     0.034 C 
BRANCH   2   3
ATOM      3  CG  ARG D 557     -25.944   0.198 -16.753  1.00 35.49     0.027 C 
BRANCH   3   4
ATOM      4  CD  ARG D 557     -26.733  -0.917 -16.183  1.00 35.49     0.116 C 
BRANCH   4   5
ATOM      5  NE  ARG D 557     -26.179  -1.396 -14.944  1.00 35.49    -0.212 N 
ATOM      6  CZ  ARG D 557     -26.188  -2.644 -14.530  1.00 35.49     0.666 C 
ATOM      7  NH1 ARG D 557     -26.741  -3.618 -15.228  1.00 35.49    -0.235 N 
ATOM      8  NH2 ARG D 557     -25.619  -2.901 -13.388  1.00 35.49    -0.235 N 
ATOM      9  HH  ARG D 557     -27.119  -3.472 -15.983  1.00 35.49     0.174 HD
ATOM     10  HH  ARG D 557     -26.715  -4.413 -14.908  1.00 35.49     0.174 HD
ATOM     11  HH  ARG D 557     -25.264  -2.253 -12.963  1.00 35.49     0.174 HD
ATOM     12  HH  ARG D 557     -25.602  -3.695 -13.090  1.00 35.49     0.174 HD
ATOM     13  HE  ARG D 557     -25.866  -0.824 -14.399  1.00 35.49     0.178 HD
ENDBRANCH   4   5
ENDBRANCH   3   4
ENDBRANCH   2   3
ENDBRANCH   1   2
END_RES ARG D 557
BEGIN_RES GLU D 570
REMARK  3 active torsions:
REMARK  status: ('A' for Active; 'I' for Inactive)
REMARK    5  A    between atoms: CA   and  CB  
REMARK    6  A    between atoms: CB   and  CG  
REMARK    7  A    between atoms: CG   and  CD  
ROOT
ATOM     14  CA  GLU D 570     -18.033  -6.348 -13.375  1.00 32.92     0.160 C 
ENDROOT
BRANCH  14  15
ATOM     15  CB  GLU D 570     -19.500  -6.345 -13.794  1.00 32.92     0.043 C 
BRANCH  15  16
ATOM     16  CG  GLU D 570     -20.102  -7.645 -14.187  1.00 32.92     0.100 C 
BRANCH  16  17
ATOM     17  CD  GLU D 570     -20.600  -7.658 -15.613  1.00 32.92     0.185 C 
ATOM     18  OE1 GLU D 570     -21.123  -8.695 -16.063  1.00 32.92    -0.647 OA
ATOM     19  OE2 GLU D 570     -20.448  -6.624 -16.294  1.00 32.92    -0.647 OA
ENDBRANCH  16  17
ENDBRANCH  15  16
ENDBRANCH  14  15
END_RES GLU D 570
ENDMDL
MODEL 6
REMARK VINA RESULT:      -6.2      1.574      8.068
REMARK  16 active torsions:
REMARK  status: ('A' for Active; 'I' for Inactive)
REMARK    1  A    between atoms: C_2  and  C_3 
REMARK    2  A    between atoms: C_3  and  C_4 
REMARK    3  A    between atoms: C_4  and  C_5 
REMARK    4  A    between atoms: C_5  and  C_6 
REMARK    5  A    between atoms: C_6  and  C_7 
REMARK    6  A    between atoms: C_7  and  C_8 
REMARK    7  A    between atoms: C_8  and  C_9 
REMARK    8  A    between atoms: C_9  and  C_10 
REMARK    9  A    between atoms: C_10  and  C_11 
REMARK   10  A    between atoms: C_11  and  C_12 
REMARK   11  A    between atoms: C_12  and  O_14 
REMARK   12  A    between atoms: O_14  and  C_15 
REMARK   13  A    between atoms: C_15  and  C_16 
REMARK   14  A    between atoms: C_16  and  C_17 
REMARK   15  A    between atoms: C_17  and  C_18 
REMARK   16  A    between atoms: C_18  and  C_19 
ROOT
HETATM    1  C   UNL     1     -21.953  -6.647  -3.737  1.00  0.00     0.010 C 
ENDROOT
BRANCH   1   2
HETATM    2  C   UNL     1     -21.602  -5.981  -2.416  1.00  0.00     0.000 C 
BRANCH   2   3
HETATM    3  C   UNL     1     -22.302  -6.691  -1.265  1.00  0.00     0.000 C 
BRANCH   3   4
HETATM    4  C   UNL     1     -21.408  -7.785  -0.703  1.00  0.00     0.000 C 
BRANCH   4   5
HETATM    5  C   UNL     1     -21.982  -8.311   0.601  1.00  0.00     0.000 C 
BRANCH   5   6
HETATM    6  C   UNL     1     -23.341  -8.940   0.353  1.00  0.00     0.000 C 
BRANCH   6   7
HETATM    7  C   UNL     1     -23.192 -10.162  -0.537  1.00  0.00     0.000 C 
BRANCH   7   8
HETATM    8  C   UNL     1     -24.137 -11.257  -0.077  1.00  0.00    -0.000 C 
BRANCH   8   9
HETATM    9  C   UNL     1     -23.448 -12.611  -0.145  1.00  0.00    -0.005 C 
HETATM   10  C   UNL     1     -23.241 -13.161   1.252  1.00  0.00     0.005 C 
ENDBRANCH   8   9
ENDBRANCH   7   8
ENDBRANCH   6   7
ENDBRANCH   5   6
ENDBRANCH   4   5
ENDBRANCH   3   4
ENDBRANCH   2   3
ENDBRANCH   1   2
BRANCH   1  11
HETATM   11  C   UNL     1     -21.263  -5.970  -4.923  1.00  0.00     0.111 C 
BRANCH  11  12
HETATM   12  C   UNL     1     -21.036  -6.969  -6.038  1.00  0.00     0.258 C 
HETATM   13  O   UNL     1     -20.827  -8.173  -5.867  1.00  0.00    -0.265 OA
BRANCH  12  14
HETATM   14  O   UNL     1     -20.993  -6.352  -7.251  1.00  0.00    -0.321 OA
BRANCH  14  15
HETATM   15  C   UNL     1     -19.852  -5.498  -7.441  1.00  0.00     0.178 C 
BRANCH  15  16
HETATM   16  C   UNL     1     -20.218  -4.154  -8.055  1.00  0.00     0.027 C 
BRANCH  16  17
HETATM   17  C   UNL     1     -21.737  -3.962  -8.091  1.00  0.00     0.002 C 
BRANCH  17  18
HETATM   18  C   UNL     1     -22.271  -4.127  -9.509  1.00  0.00    -0.000 C 
BRANCH  18  19
HETATM   19  C   UNL     1     -21.174  -3.877 -10.536  1.00  0.00    -0.005 C 
HETATM   20  C   UNL     1     -21.676  -2.956 -11.631  1.00  0.00     0.005 C 
ENDBRANCH  18  19
ENDBRANCH  17  18
ENDBRANCH  16  17
ENDBRANCH  15  16
ENDBRANCH  14  15
ENDBRANCH  12  14
ENDBRANCH  11  12
ENDBRANCH   1  11
TORSDOF 16
BEGIN_RES ARG D 557
REMARK  4 active torsions:
REMARK  status: ('A' for Active; 'I' for Inactive)
REMARK    1  A    between atoms: CA   and  CB  
REMARK    2  A    between atoms: CB   and  CG  
REMARK    3  A    between atoms: CG   and  CD  
REMARK    4  A    between atoms: CD   and  NE  
REMARK       I    between atoms: NE   and  CZ  
REMARK       I    between atoms: CZ   and  NH1 
REMARK       I    between atoms: CZ   and  NH2 
ROOT
ATOM      1  CA  ARG D 557     -26.217   2.705 -17.014  1.00 35.49     0.159 C 
ENDROOT
BRANCH   1   2
ATOM      2  CB  ARG D 557     -26.789   1.319 -17.183  1.00 35.49     0.034 C 
BRANCH   2   3
ATOM      3  CG  ARG D 557     -28.212   1.149 -16.867  1.00 35.49     0.027 C 
BRANCH   3   4
ATOM      4  CD  ARG D 557     -28.599  -0.277 -16.755  1.00 35.49     0.116 C 
BRANCH   4   5
ATOM      5  NE  ARG D 557     -27.613  -1.052 -16.049  1.00 35.49    -0.212 N 
ATOM      6  CZ  ARG D 557     -27.461  -2.355 -16.126  1.00 35.49     0.666 C 
ATOM      7  NH1 ARG D 557     -28.236  -3.116 -16.877  1.00 35.49    -0.235 N 
ATOM      8  NH2 ARG D 557     -26.499  -2.890 -15.432  1.00 35.49    -0.235 N 
ATOM      9  HH  ARG D 557     -28.874  -2.785 -17.343  1.00 35.49     0.174 HD
ATOM     10  HH  ARG D 557     -28.089  -3.960 -16.890  1.00 35.49     0.174 HD
ATOM     11  HH  ARG D 557     -26.009  -2.373 -14.963  1.00 35.49     0.174 HD
ATOM     12  HH  ARG D 557     -26.367  -3.727 -15.460  1.00 35.49     0.174 HD
ATOM     13  HE  ARG D 557     -27.117  -0.651 -15.487  1.00 35.49     0.178 HD
ENDBRANCH   4   5
ENDBRANCH   3   4
ENDBRANCH   2   3
ENDBRANCH   1   2
END_RES ARG D 557
BEGIN_RES GLU D 570
REMARK  3 active torsions:
REMARK  status: ('A' for Active; 'I' for Inactive)
REMARK    5  A    between atoms: CA   and  CB  
REMARK    6  A    between atoms: CB   and  CG  
REMARK    7  A    between atoms: CG   and  CD  
ROOT
ATOM     14  CA  GLU D 570     -18.033  -6.348 -13.375  1.00 32.92     0.160 C 
ENDROOT
BRANCH  14  15
ATOM     15  CB  GLU D 570     -19.500  -6.345 -13.794  1.00 32.92     0.043 C 
BRANCH  15  16
ATOM     16  CG  GLU D 570     -19.805  -6.047 -15.217  1.00 32.92     0.100 C 
BRANCH  16  17
ATOM     17  CD  GLU D 570     -21.273  -5.786 -15.464  1.00 32.92     0.185 C 
ATOM     18  OE1 GLU D 570     -22.113  -6.587 -15.010  1.00 32.92    -0.647 OA
ATOM     19  OE2 GLU D 570     -21.584  -4.781 -16.131  1.00 32.92    -0.647 OA
ENDBRANCH  16  17
ENDBRANCH  15  16
ENDBRANCH  14  15
END_RES GLU D 570
ENDMDL
MODEL 7
REMARK VINA RESULT:      -6.1      3.976      7.112
REMARK  16 active torsions:
REMARK  status: ('A' for Active; 'I' for Inactive)
REMARK    1  A    between atoms: C_2  and  C_3 
REMARK    2  A    between atoms: C_3  and  C_4 
REMARK    3  A    between atoms: C_4  and  C_5 
REMARK    4  A    between atoms: C_5  and  C_6 
REMARK    5  A    between atoms: C_6  and  C_7 
REMARK    6  A    between atoms: C_7  and  C_8 
REMARK    7  A    between atoms: C_8  and  C_9 
REMARK    8  A    between atoms: C_9  and  C_10 
REMARK    9  A    between atoms: C_10  and  C_11 
REMARK   10  A    between atoms: C_11  and  C_12 
REMARK   11  A    between atoms: C_12  and  O_14 
REMARK   12  A    between atoms: O_14  and  C_15 
REMARK   13  A    between atoms: C_15  and  C_16 
REMARK   14  A    between atoms: C_16  and  C_17 
REMARK   15  A    between atoms: C_17  and  C_18 
REMARK   16  A    between atoms: C_18  and  C_19 
ROOT
HETATM    1  C   UNL     1     -22.407  -4.328 -13.238  1.00  0.00     0.010 C 
ENDROOT
BRANCH   1   2
HETATM    2  C   UNL     1     -22.881  -4.875 -14.576  1.00  0.00     0.000 C 
BRANCH   2   3
HETATM    3  C   UNL     1     -23.790  -6.078 -14.361  1.00  0.00     0.000 C 
BRANCH   3   4
HETATM    4  C   UNL     1     -24.158  -6.702 -15.698  1.00  0.00     0.000 C 
BRANCH   4   5
HETATM    5  C   UNL     1     -25.644  -7.004 -15.743  1.00  0.00     0.000 C 
BRANCH   5   6
HETATM    6  C   UNL     1     -26.357  -5.976 -16.602  1.00  0.00     0.000 C 
BRANCH   6   7
HETATM    7  C   UNL     1     -27.842  -6.289 -16.662  1.00  0.00     0.000 C 
BRANCH   7   8
HETATM    8  C   UNL     1     -28.346  -6.148 -18.087  1.00  0.00    -0.000 C 
BRANCH   8   9
HETATM    9  C   UNL     1     -29.865  -6.085 -18.105  1.00  0.00    -0.005 C 
HETATM   10  C   UNL     1     -30.389  -5.765 -16.719  1.00  0.00     0.005 C 
ENDBRANCH   8   9
ENDBRANCH   7   8
ENDBRANCH   6   7
ENDBRANCH   5   6
ENDBRANCH   4   5
ENDBRANCH   3   4
ENDBRANCH   2   3
ENDBRANCH   1   2
BRANCH   1  11
HETATM   11  C   UNL     1     -22.941  -2.919 -12.972  1.00  0.00     0.111 C 
BRANCH  11  12
HETATM   12  C   UNL     1     -24.280  -2.990 -12.268  1.00  0.00     0.258 C 
HETATM   13  O   UNL     1     -25.369  -3.080 -12.842  1.00  0.00    -0.265 OA
BRANCH  12  14
HETATM   14  O   UNL     1     -24.138  -2.843 -10.922  1.00  0.00    -0.321 OA
BRANCH  14  15
HETATM   15  C   UNL     1     -24.483  -4.013 -10.159  1.00  0.00     0.178 C 
BRANCH  15  16
HETATM   16  C   UNL     1     -23.262  -4.754  -9.632  1.00  0.00     0.027 C 
BRANCH  16  17
HETATM   17  C   UNL     1     -22.137  -3.777  -9.279  1.00  0.00     0.002 C 
BRANCH  17  18
HETATM   18  C   UNL     1     -21.894  -3.752  -7.774  1.00  0.00    -0.000 C 
BRANCH  18  19
HETATM   19  C   UNL     1     -20.431  -4.033  -7.455  1.00  0.00    -0.005 C 
HETATM   20  C   UNL     1     -20.308  -4.738  -6.118  1.00  0.00     0.005 C 
ENDBRANCH  18  19
ENDBRANCH  17  18
ENDBRANCH  16  17
ENDBRANCH  15  16
ENDBRANCH  14  15
ENDBRANCH  12  14
ENDBRANCH  11  12
ENDBRANCH   1  11
TORSDOF 16
BEGIN_RES ARG D 557
REMARK  4 active torsions:
REMARK  status: ('A' for Active; 'I' for Inactive)
REMARK    1  A    between atoms: CA   and  CB  
REMARK    2  A    between atoms: CB   and  CG  
REMARK    3  A    between atoms: CG   and  CD  
REMARK    4  A    between atoms: CD   and  NE  
REMARK       I    between atoms: NE   and  CZ  
REMARK       I    between atoms: CZ   and  NH1 
REMARK       I    between atoms: CZ   and  NH2 
ROOT
ATOM      1  CA  ARG D 557     -26.217   2.705 -17.014  1.00 35.49     0.159 C 
ENDROOT
BRANCH   1   2
ATOM      2  CB  ARG D 557     -26.789   1.319 -17.183  1.00 35.49     0.034 C 
BRANCH   2   3
ATOM      3  CG  ARG D 557     -28.248   1.217 -17.308  1.00 35.49     0.027 C 
BRANCH   3   4
ATOM      4  CD  ARG D 557     -28.810   0.123 -16.484  1.00 35.49     0.116 C 
BRANCH   4   5
ATOM      5  NE  ARG D 557     -27.784  -0.723 -15.933  1.00 35.49    -0.212 N 
ATOM      6  CZ  ARG D 557     -27.607  -1.995 -16.211  1.00 35.49     0.666 C 
ATOM      7  NH1 ARG D 557     -28.390  -2.655 -17.044  1.00 35.49    -0.235 N 
ATOM      8  NH2 ARG D 557     -26.611  -2.602 -15.634  1.00 35.49    -0.235 N 
ATOM      9  HH  ARG D 557     -29.050  -2.276 -17.437  1.00 35.49     0.174 HD
ATOM     10  HH  ARG D 557     -28.224  -3.484 -17.189  1.00 35.49     0.174 HD
ATOM     11  HH  ARG D 557     -26.117  -2.149 -15.106  1.00 35.49     0.174 HD
ATOM     12  HH  ARG D 557     -26.462  -3.422 -15.791  1.00 35.49     0.174 HD
ATOM     13  HE  ARG D 557     -27.279  -0.398 -15.332  1.00 35.49     0.178 HD
ENDBRANCH   4   5
ENDBRANCH   3   4
ENDBRANCH   2   3
ENDBRANCH   1   2
END_RES ARG D 557
BEGIN_RES GLU D 570
REMARK  3 active torsions:
REMARK  status: ('A' for Active; 'I' for Inactive)
REMARK    5  A    between atoms: CA   and  CB  
REMARK    6  A    between atoms: CB   and  CG  
REMARK    7  A    between atoms: CG   and  CD  
ROOT
ATOM     14  CA  GLU D 570     -18.033  -6.348 -13.375  1.00 32.92     0.160 C 
ENDROOT
BRANCH  14  15
ATOM     15  CB  GLU D 570     -19.500  -6.345 -13.794  1.00 32.92     0.043 C 
BRANCH  15  16
ATOM     16  CG  GLU D 570     -20.092  -7.638 -14.225  1.00 32.92     0.100 C 
BRANCH  16  17
ATOM     17  CD  GLU D 570     -20.618  -7.603 -15.641  1.00 32.92     0.185 C 
ATOM     18  OE1 GLU D 570     -21.136  -8.630 -16.119  1.00 32.92    -0.647 OA
ATOM     19  OE2 GLU D 570     -20.496  -6.542 -16.284  1.00 32.92    -0.647 OA
ENDBRANCH  16  17
ENDBRANCH  15  16
ENDBRANCH  14  15
END_RES GLU D 570
ENDMDL
MODEL 8
REMARK VINA RESULT:      -6.0      2.131      7.717
REMARK  16 active torsions:
REMARK  status: ('A' for Active; 'I' for Inactive)
REMARK    1  A    between atoms: C_2  and  C_3 
REMARK    2  A    between atoms: C_3  and  C_4 
REMARK    3  A    between atoms: C_4  and  C_5 
REMARK    4  A    between atoms: C_5  and  C_6 
REMARK    5  A    between atoms: C_6  and  C_7 
REMARK    6  A    between atoms: C_7  and  C_8 
REMARK    7  A    between atoms: C_8  and  C_9 
REMARK    8  A    between atoms: C_9  and  C_10 
REMARK    9  A    between atoms: C_10  and  C_11 
REMARK   10  A    between atoms: C_11  and  C_12 
REMARK   11  A    between atoms: C_12  and  O_14 
REMARK   12  A    between atoms: O_14  and  C_15 
REMARK   13  A    between atoms: C_15  and  C_16 
REMARK   14  A    between atoms: C_16  and  C_17 
REMARK   15  A    between atoms: C_17  and  C_18 
REMARK   16  A    between atoms: C_18  and  C_19 
ROOT
HETATM    1  C   UNL     1     -21.312  -7.248  -3.069  1.00  0.00     0.010 C 
ENDROOT
BRANCH   1   2
HETATM    2  C   UNL     1     -22.009  -6.301  -2.103  1.00  0.00     0.000 C 
BRANCH   2   3
HETATM    3  C   UNL     1     -22.418  -7.044  -0.839  1.00  0.00     0.000 C 
BRANCH   3   4
HETATM    4  C   UNL     1     -21.333  -8.031  -0.438  1.00  0.00     0.000 C 
BRANCH   4   5
HETATM    5  C   UNL     1     -21.927  -9.149   0.400  1.00  0.00     0.000 C 
BRANCH   5   6
HETATM    6  C   UNL     1     -23.243  -9.606  -0.203  1.00  0.00     0.000 C 
BRANCH   6   7
HETATM    7  C   UNL     1     -23.387 -11.111  -0.054  1.00  0.00     0.000 C 
BRANCH   7   8
HETATM    8  C   UNL     1     -23.266 -11.781  -1.411  1.00  0.00    -0.000 C 
BRANCH   8   9
HETATM    9  C   UNL     1     -23.056 -10.737  -2.497  1.00  0.00    -0.005 C 
HETATM   10  C   UNL     1     -21.758 -11.003  -3.231  1.00  0.00     0.005 C 
ENDBRANCH   8   9
ENDBRANCH   7   8
ENDBRANCH   6   7
ENDBRANCH   5   6
ENDBRANCH   4   5
ENDBRANCH   3   4
ENDBRANCH   2   3
ENDBRANCH   1   2
BRANCH   1  11
HETATM   11  C   UNL     1     -21.927  -7.195  -4.469  1.00  0.00     0.111 C 
BRANCH  11  12
HETATM   12  C   UNL     1     -20.907  -7.614  -5.506  1.00  0.00     0.258 C 
HETATM   13  O   UNL     1     -20.027  -8.459  -5.320  1.00  0.00    -0.265 OA
BRANCH  12  14
HETATM   14  O   UNL     1     -21.021  -6.870  -6.640  1.00  0.00    -0.321 OA
BRANCH  14  15
HETATM   15  C   UNL     1     -19.961  -5.917  -6.832  1.00  0.00     0.178 C 
BRANCH  15  16
HETATM   16  C   UNL     1     -20.351  -4.509  -6.406  1.00  0.00     0.027 C 
BRANCH  16  17
HETATM   17  C   UNL     1     -21.471  -3.957  -7.292  1.00  0.00     0.002 C 
BRANCH  17  18
HETATM   18  C   UNL     1     -21.170  -4.204  -8.765  1.00  0.00    -0.000 C 
BRANCH  18  19
HETATM   19  C   UNL     1     -22.424  -4.027  -9.613  1.00  0.00    -0.005 C 
HETATM   20  C   UNL     1     -22.142  -3.110 -10.787  1.00  0.00     0.005 C 
ENDBRANCH  18  19
ENDBRANCH  17  18
ENDBRANCH  16  17
ENDBRANCH  15  16
ENDBRANCH  14  15
ENDBRANCH  12  14
ENDBRANCH  11  12
ENDBRANCH   1  11
TORSDOF 16
BEGIN_RES ARG D 557
REMARK  4 active torsions:
REMARK  status: ('A' for Active; 'I' for Inactive)
REMARK    1  A    between atoms: CA   and  CB  
REMARK    2  A    between atoms: CB   and  CG  
REMARK    3  A    between atoms: CG   and  CD  
REMARK    4  A    between atoms: CD   and  NE  
REMARK       I    between atoms: NE   and  CZ  
REMARK       I    between atoms: CZ   and  NH1 
REMARK       I    between atoms: CZ   and  NH2 
ROOT
ATOM      1  CA  ARG D 557     -26.217   2.705 -17.014  1.00 35.49     0.159 C 
ENDROOT
BRANCH   1   2
ATOM      2  CB  ARG D 557     -26.789   1.319 -17.183  1.00 35.49     0.034 C 
BRANCH   2   3
ATOM      3  CG  ARG D 557     -25.920   0.196 -16.810  1.00 35.49     0.027 C 
BRANCH   3   4
ATOM      4  CD  ARG D 557     -26.653  -0.868 -16.087  1.00 35.49     0.116 C 
BRANCH   4   5
ATOM      5  NE  ARG D 557     -25.829  -1.524 -15.106  1.00 35.49    -0.212 N 
ATOM      6  CZ  ARG D 557     -25.883  -2.798 -14.785  1.00 35.49     0.666 C 
ATOM      7  NH1 ARG D 557     -26.742  -3.633 -15.340  1.00 35.49    -0.235 N 
ATOM      8  NH2 ARG D 557     -25.044  -3.227 -13.889  1.00 35.49    -0.235 N 
ATOM      9  HH  ARG D 557     -27.302  -3.373 -15.934  1.00 35.49     0.174 HD
ATOM     10  HH  ARG D 557     -26.729  -4.453 -15.093  1.00 35.49     0.174 HD
ATOM     11  HH  ARG D 557     -24.495  -2.667 -13.553  1.00 35.49     0.174 HD
ATOM     12  HH  ARG D 557     -25.046  -4.043 -13.658  1.00 35.49     0.174 HD
ATOM     13  HE  ARG D 557     -25.296  -1.046 -14.648  1.00 35.49     0.178 HD
ENDBRANCH   4   5
ENDBRANCH   3   4
ENDBRANCH   2   3
ENDBRANCH   1   2
END_RES ARG D 557
BEGIN_RES GLU D 570
REMARK  3 active torsions:
REMARK  status: ('A' for Active; 'I' for Inactive)
REMARK    5  A    between atoms: CA   and  CB  
REMARK    6  A    between atoms: CB   and  CG  
REMARK    7  A    between atoms: CG   and  CD  
ROOT
ATOM     14  CA  GLU D 570     -18.033  -6.348 -13.375  1.00 32.92     0.160 C 
ENDROOT
BRANCH  14  15
ATOM     15  CB  GLU D 570     -19.500  -6.345 -13.794  1.00 32.92     0.043 C 
BRANCH  15  16
ATOM     16  CG  GLU D 570     -20.430  -5.481 -13.023  1.00 32.92     0.100 C 
BRANCH  16  17
ATOM     17  CD  GLU D 570     -21.711  -5.183 -13.767  1.00 32.92     0.185 C 
ATOM     18  OE1 GLU D 570     -22.800  -5.315 -13.175  1.00 32.92    -0.647 OA
ATOM     19  OE2 GLU D 570     -21.626  -4.829 -14.959  1.00 32.92    -0.647 OA
ENDBRANCH  16  17
ENDBRANCH  15  16
ENDBRANCH  14  15
END_RES GLU D 570
ENDMDL
MODEL 9
REMARK VINA RESULT:      -6.0      2.754      9.187
REMARK  16 active torsions:
REMARK  status: ('A' for Active; 'I' for Inactive)
REMARK    1  A    between atoms: C_2  and  C_3 
REMARK    2  A    between atoms: C_3  and  C_4 
REMARK    3  A    between atoms: C_4  and  C_5 
REMARK    4  A    between atoms: C_5  and  C_6 
REMARK    5  A    between atoms: C_6  and  C_7 
REMARK    6  A    between atoms: C_7  and  C_8 
REMARK    7  A    between atoms: C_8  and  C_9 
REMARK    8  A    between atoms: C_9  and  C_10 
REMARK    9  A    between atoms: C_10  and  C_11 
REMARK   10  A    between atoms: C_11  and  C_12 
REMARK   11  A    between atoms: C_12  and  O_14 
REMARK   12  A    between atoms: O_14  and  C_15 
REMARK   13  A    between atoms: C_15  and  C_16 
REMARK   14  A    between atoms: C_16  and  C_17 
REMARK   15  A    between atoms: C_17  and  C_18 
REMARK   16  A    between atoms: C_18  and  C_19 
ROOT
HETATM    1  C   UNL     1     -20.969  -8.311  -0.783  1.00  0.00     0.010 C 
ENDROOT
BRANCH   1   2
HETATM    2  C   UNL     1     -21.832  -9.564  -0.761  1.00  0.00     0.000 C 
BRANCH   2   3
HETATM    3  C   UNL     1     -23.127  -9.299  -0.005  1.00  0.00     0.000 C 
BRANCH   3   4
HETATM    4  C   UNL     1     -24.001 -10.542  -0.012  1.00  0.00     0.000 C 
BRANCH   4   5
HETATM    5  C   UNL     1     -23.183 -11.756  -0.412  1.00  0.00     0.000 C 
BRANCH   5   6
HETATM    6  C   UNL     1     -23.394 -12.877   0.590  1.00  0.00     0.000 C 
BRANCH   6   7
HETATM    7  C   UNL     1     -22.086 -13.199   1.292  1.00  0.00     0.000 C 
BRANCH   7   8
HETATM    8  C   UNL     1     -22.337 -14.156   2.443  1.00  0.00    -0.000 C 
BRANCH   8   9
HETATM    9  C   UNL     1     -23.798 -14.578   2.469  1.00  0.00    -0.005 C 
HETATM   10  C   UNL     1     -24.174 -15.068   3.852  1.00  0.00     0.005 C 
ENDBRANCH   8   9
ENDBRANCH   7   8
ENDBRANCH   6   7
ENDBRANCH   5   6
ENDBRANCH   4   5
ENDBRANCH   3   4
ENDBRANCH   2   3
ENDBRANCH   1   2
BRANCH   1  11
HETATM   11  C   UNL     1     -20.941  -7.658  -2.166  1.00  0.00     0.111 C 
BRANCH  11  12
HETATM   12  C   UNL     1     -21.930  -6.514  -2.227  1.00  0.00     0.258 C 
HETATM   13  O   UNL     1     -22.526  -6.052  -1.250  1.00  0.00    -0.265 OA
BRANCH  12  14
HETATM   14  O   UNL     1     -22.154  -6.122  -3.511  1.00  0.00    -0.321 OA
BRANCH  14  15
HETATM   15  C   UNL     1     -21.088  -6.444  -4.422  1.00  0.00     0.178 C 
BRANCH  15  16
HETATM   16  C   UNL     1     -20.671  -5.260  -5.282  1.00  0.00     0.027 C 
BRANCH  16  17
HETATM   17  C   UNL     1     -20.324  -5.709  -6.704  1.00  0.00     0.002 C 
BRANCH  17  18
HETATM   18  C   UNL     1     -19.331  -4.749  -7.349  1.00  0.00    -0.000 C 
BRANCH  18  19
HETATM   19  C   UNL     1     -19.965  -4.023  -8.529  1.00  0.00    -0.005 C 
HETATM   20  C   UNL     1     -21.341  -4.589  -8.820  1.00  0.00     0.005 C 
ENDBRANCH  18  19
ENDBRANCH  17  18
ENDBRANCH  16  17
ENDBRANCH  15  16
ENDBRANCH  14  15
ENDBRANCH  12  14
ENDBRANCH  11  12
ENDBRANCH   1  11
TORSDOF 16
BEGIN_RES ARG D 557
REMARK  4 active torsions:
REMARK  status: ('A' for Active; 'I' for Inactive)
REMARK    1  A    between atoms: CA   and  CB  
REMARK    2  A    between atoms: CB   and  CG  
REMARK    3  A    between atoms: CG   and  CD  
REMARK    4  A    between atoms: CD   and  NE  
REMARK       I    between atoms: NE   and  CZ  
REMARK       I    between atoms: CZ   and  NH1 
REMARK       I    between atoms: CZ   and  NH2 
ROOT
ATOM      1  CA  ARG D 557     -26.217   2.705 -17.014  1.00 35.49     0.159 C 
ENDROOT
BRANCH   1   2
ATOM      2  CB  ARG D 557     -26.789   1.319 -17.183  1.00 35.49     0.034 C 
BRANCH   2   3
ATOM      3  CG  ARG D 557     -25.834   0.204 -17.174  1.00 35.49     0.027 C 
BRANCH   3   4
ATOM      4  CD  ARG D 557     -24.739   0.408 -16.198  1.00 35.49     0.116 C 
BRANCH   4   5
ATOM      5  NE  ARG D 557     -24.884  -0.430 -15.037  1.00 35.49    -0.212 N 
ATOM      6  CZ  ARG D 557     -24.067  -1.394 -14.678  1.00 35.49     0.666 C 
ATOM      7  NH1 ARG D 557     -22.996  -1.714 -15.381  1.00 35.49    -0.235 N 
ATOM      8  NH2 ARG D 557     -24.343  -2.038 -13.581  1.00 35.49    -0.235 N 
ATOM      9  HH  ARG D 557     -22.794  -1.302 -16.105  1.00 35.49     0.174 HD
ATOM     10  HH  ARG D 557     -22.498  -2.351 -15.096  1.00 35.49     0.174 HD
ATOM     11  HH  ARG D 557     -25.037  -1.805 -13.144  1.00 35.49     0.174 HD
ATOM     12  HH  ARG D 557     -23.837  -2.664 -13.316  1.00 35.49     0.174 HD
ATOM     13  HE  ARG D 557     -25.587  -0.341 -14.566  1.00 35.49     0.178 HD
ENDBRANCH   4   5
ENDBRANCH   3   4
ENDBRANCH   2   3
ENDBRANCH   1   2
END_RES ARG D 557
BEGIN_RES GLU D 570
REMARK  3 active torsions:
REMARK  status: ('A' for Active; 'I' for Inactive)
REMARK    5  A    between atoms: CA   and  CB  
REMARK    6  A    between atoms: CB   and  CG  
REMARK    7  A    between atoms: CG   and  CD  
ROOT
ATOM     14  CA  GLU D 570     -18.033  -6.348 -13.375  1.00 32.92     0.160 C 
ENDROOT
BRANCH  14  15
ATOM     15  CB  GLU D 570     -19.500  -6.345 -13.794  1.00 32.92     0.043 C 
BRANCH  15  16
ATOM     16  CG  GLU D 570     -20.442  -5.530 -12.984  1.00 32.92     0.100 C 
BRANCH  16  17
ATOM     17  CD  GLU D 570     -21.748  -5.260 -13.693  1.00 32.92     0.185 C 
ATOM     18  OE1 GLU D 570     -22.236  -6.146 -14.421  1.00 32.92    -0.647 OA
ATOM     19  OE2 GLU D 570     -22.281  -4.145 -13.532  1.00 32.92    -0.647 OA
ENDBRANCH  16  17
ENDBRANCH  15  16
ENDBRANCH  14  15
END_RES GLU D 570
ENDMDL
