MODEL 1
REMARK VINA RESULT:      -1.0      0.000      0.000
REMARK WARNING: 32 MAX_TORS EXCEEDED!!!
REMARK  64 active torsions:
REMARK  status: ('A' for Active; 'I' for Inactive)
REMARK    1  A    between atoms: C_2  and  C_3 
REMARK    2  A    between atoms: C_3  and  C_4 
REMARK    3  A    between atoms: C_4  and  C_5 
REMARK    4  A    between atoms: C_5  and  C_6 
REMARK    5  A    between atoms: C_6  and  C_7 
REMARK    6  A    between atoms: C_7  and  C_8 
REMARK    7  A    between atoms: C_8  and  C_9 
REMARK    8  A    between atoms: C_9  and  C_10 
REMARK    9  A    between atoms: C_10  and  C_11 
REMARK   10  A    between atoms: C_11  and  C_12 
REMARK   11  A    between atoms: C_12  and  C_13 
REMARK   12  A    between atoms: C_13  and  C_14 
REMARK   13  A    between atoms: C_14  and  C_15 
REMARK   14  A    between atoms: C_15  and  C_16 
REMARK   15  A    between atoms: C_16  and  C_17 
REMARK   16  A    between atoms: C_17  and  C_18 
REMARK   17  A    between atoms: C_18  and  C_19 
REMARK   18  A    between atoms: C_19  and  C_20 
REMARK   19  A    between atoms: C_19  and  N_35 
REMARK   20  A    between atoms: C_20  and  C_21 
REMARK   21  A    between atoms: C_21  and  C_22 
REMARK   22  A    between atoms: C_22  and  C_23 
REMARK   23  A    between atoms: C_23  and  C_24 
REMARK   24  A    between atoms: C_24  and  C_25 
REMARK   25  A    between atoms: C_25  and  C_26 
REMARK   26  A    between atoms: C_26  and  C_27 
REMARK   27  A    between atoms: C_27  and  C_28 
REMARK   28  A    between atoms: C_28  and  C_29 
REMARK   29  A    between atoms: C_29  and  C_30 
REMARK   30  A    between atoms: C_30  and  C_31 
REMARK   31  A    between atoms: C_31  and  C_32 
REMARK   32  A    between atoms: C_32  and  C_33 
REMARK   33  A    between atoms: N_35  and  C_38 
REMARK   34  A    between atoms: C_38  and  C_39 
REMARK   35  A    between atoms: C_38  and  C_54 
REMARK   36  A    between atoms: C_39  and  C_40 
REMARK   37  A    between atoms: C_40  and  C_41 
REMARK   38  A    between atoms: C_41  and  C_42 
REMARK   39  A    between atoms: C_42  and  C_43 
REMARK   40  A    between atoms: C_43  and  C_44 
REMARK   41  A    between atoms: C_44  and  C_45 
REMARK   42  A    between atoms: C_45  and  C_46 
REMARK   43  A    between atoms: C_46  and  C_47 
REMARK   44  A    between atoms: C_47  and  C_48 
REMARK   45  A    between atoms: C_48  and  C_49 
REMARK   46  A    between atoms: C_49  and  C_50 
REMARK   47  A    between atoms: C_50  and  C_51 
REMARK   48  A    between atoms: C_51  and  C_52 
REMARK   49  A    between atoms: C_54  and  C_55 
REMARK   50  A    between atoms: C_55  and  C_56 
REMARK   51  A    between atoms: C_56  and  C_57 
REMARK   52  A    between atoms: C_57  and  C_58 
REMARK   53  A    between atoms: C_58  and  C_59 
REMARK   54  A    between atoms: C_59  and  C_60 
REMARK   55  A    between atoms: C_60  and  C_61 
REMARK   56  A    between atoms: C_61  and  C_62 
REMARK   57  A    between atoms: C_62  and  C_63 
REMARK   58  A    between atoms: C_63  and  C_64 
REMARK   59  A    between atoms: C_64  and  C_65 
REMARK   60  A    between atoms: C_65  and  C_66 
REMARK   61  A    between atoms: C_66  and  C_67 
REMARK   62  A    between atoms: C_67  and  C_68 
REMARK   63  A    between atoms: C_68  and  C_69 
REMARK   64  A    between atoms: C_69  and  C_70 
ROOT
HETATM    1 CL   UNL     2     -33.262  -2.590 -10.944  1.00  0.00     0.000 Cl
ENDROOT
TORSDOF 64
BEGIN_RES ARG D 557
REMARK  4 active torsions:
REMARK  status: ('A' for Active; 'I' for Inactive)
REMARK    1  A    between atoms: CA   and  CB  
REMARK    2  A    between atoms: CB   and  CG  
REMARK    3  A    between atoms: CG   and  CD  
REMARK    4  A    between atoms: CD   and  NE  
REMARK       I    between atoms: NE   and  CZ  
REMARK       I    between atoms: CZ   and  NH1 
REMARK       I    between atoms: CZ   and  NH2 
ROOT
ATOM      1  CA  ARG D 557     -26.217   2.705 -17.014  1.00 35.49     0.159 C 
ENDROOT
BRANCH   1   2
ATOM      2  CB  ARG D 557     -26.789   1.319 -17.183  1.00 35.49     0.034 C 
BRANCH   2   3
ATOM      3  CG  ARG D 557     -25.835   0.203 -17.162  1.00 35.49     0.027 C 
BRANCH   3   4
ATOM      4  CD  ARG D 557     -24.750   0.407 -16.175  1.00 35.49     0.116 C 
BRANCH   4   5
ATOM      5  NE  ARG D 557     -24.902  -0.438 -15.020  1.00 35.49    -0.212 N 
ATOM      6  CZ  ARG D 557     -24.089  -1.409 -14.667  1.00 35.49     0.666 C 
ATOM      7  NH1 ARG D 557     -23.018  -1.728 -15.369  1.00 35.49    -0.235 N 
ATOM      8  NH2 ARG D 557     -24.370  -2.059 -13.575  1.00 35.49    -0.235 N 
ATOM      9  HH  ARG D 557     -22.813  -1.312 -16.090  1.00 35.49     0.174 HD
ATOM     10  HH  ARG D 557     -22.523  -2.368 -15.089  1.00 35.49     0.174 HD
ATOM     11  HH  ARG D 557     -25.064  -1.826 -13.138  1.00 35.49     0.174 HD
ATOM     12  HH  ARG D 557     -23.867  -2.689 -13.313  1.00 35.49     0.174 HD
ATOM     13  HE  ARG D 557     -25.605  -0.350 -14.550  1.00 35.49     0.178 HD
ENDBRANCH   4   5
ENDBRANCH   3   4
ENDBRANCH   2   3
ENDBRANCH   1   2
END_RES ARG D 557
BEGIN_RES GLU D 570
REMARK  3 active torsions:
REMARK  status: ('A' for Active; 'I' for Inactive)
REMARK    5  A    between atoms: CA   and  CB  
REMARK    6  A    between atoms: CB   and  CG  
REMARK    7  A    between atoms: CG   and  CD  
ROOT
ATOM     14  CA  GLU D 570     -18.033  -6.348 -13.375  1.00 32.92     0.160 C 
ENDROOT
BRANCH  14  15
ATOM     15  CB  GLU D 570     -19.500  -6.345 -13.794  1.00 32.92     0.043 C 
BRANCH  15  16
ATOM     16  CG  GLU D 570     -20.441  -5.527 -12.986  1.00 32.92     0.100 C 
BRANCH  16  17
ATOM     17  CD  GLU D 570     -21.742  -5.247 -13.701  1.00 32.92     0.185 C 
ATOM     18  OE1 GLU D 570     -22.204  -6.107 -14.476  1.00 32.92    -0.647 OA
ATOM     19  OE2 GLU D 570     -22.297  -4.149 -13.498  1.00 32.92    -0.647 OA
ENDBRANCH  16  17
ENDBRANCH  15  16
ENDBRANCH  14  15
END_RES GLU D 570
ENDMDL
MODEL 2
REMARK VINA RESULT:      -1.0      3.236      3.236
REMARK WARNING: 32 MAX_TORS EXCEEDED!!!
REMARK  64 active torsions:
REMARK  status: ('A' for Active; 'I' for Inactive)
REMARK    1  A    between atoms: C_2  and  C_3 
REMARK    2  A    between atoms: C_3  and  C_4 
REMARK    3  A    between atoms: C_4  and  C_5 
REMARK    4  A    between atoms: C_5  and  C_6 
REMARK    5  A    between atoms: C_6  and  C_7 
REMARK    6  A    between atoms: C_7  and  C_8 
REMARK    7  A    between atoms: C_8  and  C_9 
REMARK    8  A    between atoms: C_9  and  C_10 
REMARK    9  A    between atoms: C_10  and  C_11 
REMARK   10  A    between atoms: C_11  and  C_12 
REMARK   11  A    between atoms: C_12  and  C_13 
REMARK   12  A    between atoms: C_13  and  C_14 
REMARK   13  A    between atoms: C_14  and  C_15 
REMARK   14  A    between atoms: C_15  and  C_16 
REMARK   15  A    between atoms: C_16  and  C_17 
REMARK   16  A    between atoms: C_17  and  C_18 
REMARK   17  A    between atoms: C_18  and  C_19 
REMARK   18  A    between atoms: C_19  and  C_20 
REMARK   19  A    between atoms: C_19  and  N_35 
REMARK   20  A    between atoms: C_20  and  C_21 
REMARK   21  A    between atoms: C_21  and  C_22 
REMARK   22  A    between atoms: C_22  and  C_23 
REMARK   23  A    between atoms: C_23  and  C_24 
REMARK   24  A    between atoms: C_24  and  C_25 
REMARK   25  A    between atoms: C_25  and  C_26 
REMARK   26  A    between atoms: C_26  and  C_27 
REMARK   27  A    between atoms: C_27  and  C_28 
REMARK   28  A    between atoms: C_28  and  C_29 
REMARK   29  A    between atoms: C_29  and  C_30 
REMARK   30  A    between atoms: C_30  and  C_31 
REMARK   31  A    between atoms: C_31  and  C_32 
REMARK   32  A    between atoms: C_32  and  C_33 
REMARK   33  A    between atoms: N_35  and  C_38 
REMARK   34  A    between atoms: C_38  and  C_39 
REMARK   35  A    between atoms: C_38  and  C_54 
REMARK   36  A    between atoms: C_39  and  C_40 
REMARK   37  A    between atoms: C_40  and  C_41 
REMARK   38  A    between atoms: C_41  and  C_42 
REMARK   39  A    between atoms: C_42  and  C_43 
REMARK   40  A    between atoms: C_43  and  C_44 
REMARK   41  A    between atoms: C_44  and  C_45 
REMARK   42  A    between atoms: C_45  and  C_46 
REMARK   43  A    between atoms: C_46  and  C_47 
REMARK   44  A    between atoms: C_47  and  C_48 
REMARK   45  A    between atoms: C_48  and  C_49 
REMARK   46  A    between atoms: C_49  and  C_50 
REMARK   47  A    between atoms: C_50  and  C_51 
REMARK   48  A    between atoms: C_51  and  C_52 
REMARK   49  A    between atoms: C_54  and  C_55 
REMARK   50  A    between atoms: C_55  and  C_56 
REMARK   51  A    between atoms: C_56  and  C_57 
REMARK   52  A    between atoms: C_57  and  C_58 
REMARK   53  A    between atoms: C_58  and  C_59 
REMARK   54  A    between atoms: C_59  and  C_60 
REMARK   55  A    between atoms: C_60  and  C_61 
REMARK   56  A    between atoms: C_61  and  C_62 
REMARK   57  A    between atoms: C_62  and  C_63 
REMARK   58  A    between atoms: C_63  and  C_64 
REMARK   59  A    between atoms: C_64  and  C_65 
REMARK   60  A    between atoms: C_65  and  C_66 
REMARK   61  A    between atoms: C_66  and  C_67 
REMARK   62  A    between atoms: C_67  and  C_68 
REMARK   63  A    between atoms: C_68  and  C_69 
REMARK   64  A    between atoms: C_69  and  C_70 
ROOT
HETATM    1 CL   UNL     2     -29.814   7.416 -12.728  1.00  0.00     0.000 Cl
ENDROOT
TORSDOF 64
BEGIN_RES ARG D 557
REMARK  4 active torsions:
REMARK  status: ('A' for Active; 'I' for Inactive)
REMARK    1  A    between atoms: CA   and  CB  
REMARK    2  A    between atoms: CB   and  CG  
REMARK    3  A    between atoms: CG   and  CD  
REMARK    4  A    between atoms: CD   and  NE  
REMARK       I    between atoms: NE   and  CZ  
REMARK       I    between atoms: CZ   and  NH1 
REMARK       I    between atoms: CZ   and  NH2 
ROOT
ATOM      1  CA  ARG D 557     -26.217   2.705 -17.014  1.00 35.49     0.159 C 
ENDROOT
BRANCH   1   2
ATOM      2  CB  ARG D 557     -26.789   1.319 -17.183  1.00 35.49     0.034 C 
BRANCH   2   3
ATOM      3  CG  ARG D 557     -25.835   0.204 -17.164  1.00 35.49     0.027 C 
BRANCH   3   4
ATOM      4  CD  ARG D 557     -24.746   0.409 -16.182  1.00 35.49     0.116 C 
BRANCH   4   5
ATOM      5  NE  ARG D 557     -24.894  -0.435 -15.025  1.00 35.49    -0.212 N 
ATOM      6  CZ  ARG D 557     -24.078  -1.403 -14.672  1.00 35.49     0.666 C 
ATOM      7  NH1 ARG D 557     -23.008  -1.722 -15.377  1.00 35.49    -0.235 N 
ATOM      8  NH2 ARG D 557     -24.356  -2.053 -13.579  1.00 35.49    -0.235 N 
ATOM      9  HH  ARG D 557     -22.806  -1.307 -16.098  1.00 35.49     0.174 HD
ATOM     10  HH  ARG D 557     -22.512  -2.362 -15.096  1.00 35.49     0.174 HD
ATOM     11  HH  ARG D 557     -25.049  -1.820 -13.140  1.00 35.49     0.174 HD
ATOM     12  HH  ARG D 557     -23.851  -2.682 -13.317  1.00 35.49     0.174 HD
ATOM     13  HE  ARG D 557     -25.596  -0.347 -14.553  1.00 35.49     0.178 HD
ENDBRANCH   4   5
ENDBRANCH   3   4
ENDBRANCH   2   3
ENDBRANCH   1   2
END_RES ARG D 557
BEGIN_RES GLU D 570
REMARK  3 active torsions:
REMARK  status: ('A' for Active; 'I' for Inactive)
REMARK    5  A    between atoms: CA   and  CB  
REMARK    6  A    between atoms: CB   and  CG  
REMARK    7  A    between atoms: CG   and  CD  
ROOT
ATOM     14  CA  GLU D 570     -18.033  -6.348 -13.375  1.00 32.92     0.160 C 
ENDROOT
BRANCH  14  15
ATOM     15  CB  GLU D 570     -19.500  -6.345 -13.794  1.00 32.92     0.043 C 
BRANCH  15  16
ATOM     16  CG  GLU D 570     -20.441  -5.526 -12.987  1.00 32.92     0.100 C 
BRANCH  16  17
ATOM     17  CD  GLU D 570     -21.738  -5.238 -13.706  1.00 32.92     0.185 C 
ATOM     18  OE1 GLU D 570     -22.189  -6.084 -14.502  1.00 32.92    -0.647 OA
ATOM     19  OE2 GLU D 570     -22.301  -4.148 -13.483  1.00 32.92    -0.647 OA
ENDBRANCH  16  17
ENDBRANCH  15  16
ENDBRANCH  14  15
END_RES GLU D 570
ENDMDL
MODEL 3
REMARK VINA RESULT:      -0.9      4.480      4.480
REMARK WARNING: 32 MAX_TORS EXCEEDED!!!
REMARK  64 active torsions:
REMARK  status: ('A' for Active; 'I' for Inactive)
REMARK    1  A    between atoms: C_2  and  C_3 
REMARK    2  A    between atoms: C_3  and  C_4 
REMARK    3  A    between atoms: C_4  and  C_5 
REMARK    4  A    between atoms: C_5  and  C_6 
REMARK    5  A    between atoms: C_6  and  C_7 
REMARK    6  A    between atoms: C_7  and  C_8 
REMARK    7  A    between atoms: C_8  and  C_9 
REMARK    8  A    between atoms: C_9  and  C_10 
REMARK    9  A    between atoms: C_10  and  C_11 
REMARK   10  A    between atoms: C_11  and  C_12 
REMARK   11  A    between atoms: C_12  and  C_13 
REMARK   12  A    between atoms: C_13  and  C_14 
REMARK   13  A    between atoms: C_14  and  C_15 
REMARK   14  A    between atoms: C_15  and  C_16 
REMARK   15  A    between atoms: C_16  and  C_17 
REMARK   16  A    between atoms: C_17  and  C_18 
REMARK   17  A    between atoms: C_18  and  C_19 
REMARK   18  A    between atoms: C_19  and  C_20 
REMARK   19  A    between atoms: C_19  and  N_35 
REMARK   20  A    between atoms: C_20  and  C_21 
REMARK   21  A    between atoms: C_21  and  C_22 
REMARK   22  A    between atoms: C_22  and  C_23 
REMARK   23  A    between atoms: C_23  and  C_24 
REMARK   24  A    between atoms: C_24  and  C_25 
REMARK   25  A    between atoms: C_25  and  C_26 
REMARK   26  A    between atoms: C_26  and  C_27 
REMARK   27  A    between atoms: C_27  and  C_28 
REMARK   28  A    between atoms: C_28  and  C_29 
REMARK   29  A    between atoms: C_29  and  C_30 
REMARK   30  A    between atoms: C_30  and  C_31 
REMARK   31  A    between atoms: C_31  and  C_32 
REMARK   32  A    between atoms: C_32  and  C_33 
REMARK   33  A    between atoms: N_35  and  C_38 
REMARK   34  A    between atoms: C_38  and  C_39 
REMARK   35  A    between atoms: C_38  and  C_54 
REMARK   36  A    between atoms: C_39  and  C_40 
REMARK   37  A    between atoms: C_40  and  C_41 
REMARK   38  A    between atoms: C_41  and  C_42 
REMARK   39  A    between atoms: C_42  and  C_43 
REMARK   40  A    between atoms: C_43  and  C_44 
REMARK   41  A    between atoms: C_44  and  C_45 
REMARK   42  A    between atoms: C_45  and  C_46 
REMARK   43  A    between atoms: C_46  and  C_47 
REMARK   44  A    between atoms: C_47  and  C_48 
REMARK   45  A    between atoms: C_48  and  C_49 
REMARK   46  A    between atoms: C_49  and  C_50 
REMARK   47  A    between atoms: C_50  and  C_51 
REMARK   48  A    between atoms: C_51  and  C_52 
REMARK   49  A    between atoms: C_54  and  C_55 
REMARK   50  A    between atoms: C_55  and  C_56 
REMARK   51  A    between atoms: C_56  and  C_57 
REMARK   52  A    between atoms: C_57  and  C_58 
REMARK   53  A    between atoms: C_58  and  C_59 
REMARK   54  A    between atoms: C_59  and  C_60 
REMARK   55  A    between atoms: C_60  and  C_61 
REMARK   56  A    between atoms: C_61  and  C_62 
REMARK   57  A    between atoms: C_62  and  C_63 
REMARK   58  A    between atoms: C_63  and  C_64 
REMARK   59  A    between atoms: C_64  and  C_65 
REMARK   60  A    between atoms: C_65  and  C_66 
REMARK   61  A    between atoms: C_66  and  C_67 
REMARK   62  A    between atoms: C_67  and  C_68 
REMARK   63  A    between atoms: C_68  and  C_69 
REMARK   64  A    between atoms: C_69  and  C_70 
ROOT
HETATM    1 CL   UNL     2     -22.292  -6.318  -1.645  1.00  0.00     0.000 Cl
ENDROOT
TORSDOF 64
BEGIN_RES ARG D 557
REMARK  4 active torsions:
REMARK  status: ('A' for Active; 'I' for Inactive)
REMARK    1  A    between atoms: CA   and  CB  
REMARK    2  A    between atoms: CB   and  CG  
REMARK    3  A    between atoms: CG   and  CD  
REMARK    4  A    between atoms: CD   and  NE  
REMARK       I    between atoms: NE   and  CZ  
REMARK       I    between atoms: CZ   and  NH1 
REMARK       I    between atoms: CZ   and  NH2 
ROOT
ATOM      1  CA  ARG D 557     -26.217   2.705 -17.014  1.00 35.49     0.159 C 
ENDROOT
BRANCH   1   2
ATOM      2  CB  ARG D 557     -26.789   1.319 -17.183  1.00 35.49     0.034 C 
BRANCH   2   3
ATOM      3  CG  ARG D 557     -25.835   0.203 -17.158  1.00 35.49     0.027 C 
BRANCH   3   4
ATOM      4  CD  ARG D 557     -24.749   0.411 -16.174  1.00 35.49     0.116 C 
BRANCH   4   5
ATOM      5  NE  ARG D 557     -24.894  -0.435 -15.019  1.00 35.49    -0.212 N 
ATOM      6  CZ  ARG D 557     -24.080  -1.406 -14.671  1.00 35.49     0.666 C 
ATOM      7  NH1 ARG D 557     -23.014  -1.726 -15.381  1.00 35.49    -0.235 N 
ATOM      8  NH2 ARG D 557     -24.355  -2.057 -13.578  1.00 35.49    -0.235 N 
ATOM      9  HH  ARG D 557     -22.813  -1.310 -16.102  1.00 35.49     0.174 HD
ATOM     10  HH  ARG D 557     -22.518  -2.368 -15.103  1.00 35.49     0.174 HD
ATOM     11  HH  ARG D 557     -25.046  -1.824 -13.136  1.00 35.49     0.174 HD
ATOM     12  HH  ARG D 557     -23.851  -2.688 -13.320  1.00 35.49     0.174 HD
ATOM     13  HE  ARG D 557     -25.594  -0.346 -14.544  1.00 35.49     0.178 HD
ENDBRANCH   4   5
ENDBRANCH   3   4
ENDBRANCH   2   3
ENDBRANCH   1   2
END_RES ARG D 557
BEGIN_RES GLU D 570
REMARK  3 active torsions:
REMARK  status: ('A' for Active; 'I' for Inactive)
REMARK    5  A    between atoms: CA   and  CB  
REMARK    6  A    between atoms: CB   and  CG  
REMARK    7  A    between atoms: CG   and  CD  
ROOT
ATOM     14  CA  GLU D 570     -18.033  -6.348 -13.375  1.00 32.92     0.160 C 
ENDROOT
BRANCH  14  15
ATOM     15  CB  GLU D 570     -19.500  -6.345 -13.794  1.00 32.92     0.043 C 
BRANCH  15  16
ATOM     16  CG  GLU D 570     -20.444  -5.541 -12.975  1.00 32.92     0.100 C 
BRANCH  16  17
ATOM     17  CD  GLU D 570     -21.742  -5.247 -13.691  1.00 32.92     0.185 C 
ATOM     18  OE1 GLU D 570     -22.231  -6.115 -14.438  1.00 32.92    -0.647 OA
ATOM     19  OE2 GLU D 570     -22.265  -4.129 -13.516  1.00 32.92    -0.647 OA
ENDBRANCH  16  17
ENDBRANCH  15  16
ENDBRANCH  14  15
END_RES GLU D 570
ENDMDL
MODEL 4
REMARK VINA RESULT:      -0.9      3.521      3.643
REMARK WARNING: 32 MAX_TORS EXCEEDED!!!
REMARK  64 active torsions:
REMARK  status: ('A' for Active; 'I' for Inactive)
REMARK    1  A    between atoms: C_2  and  C_3 
REMARK    2  A    between atoms: C_3  and  C_4 
REMARK    3  A    between atoms: C_4  and  C_5 
REMARK    4  A    between atoms: C_5  and  C_6 
REMARK    5  A    between atoms: C_6  and  C_7 
REMARK    6  A    between atoms: C_7  and  C_8 
REMARK    7  A    between atoms: C_8  and  C_9 
REMARK    8  A    between atoms: C_9  and  C_10 
REMARK    9  A    between atoms: C_10  and  C_11 
REMARK   10  A    between atoms: C_11  and  C_12 
REMARK   11  A    between atoms: C_12  and  C_13 
REMARK   12  A    between atoms: C_13  and  C_14 
REMARK   13  A    between atoms: C_14  and  C_15 
REMARK   14  A    between atoms: C_15  and  C_16 
REMARK   15  A    between atoms: C_16  and  C_17 
REMARK   16  A    between atoms: C_17  and  C_18 
REMARK   17  A    between atoms: C_18  and  C_19 
REMARK   18  A    between atoms: C_19  and  C_20 
REMARK   19  A    between atoms: C_19  and  N_35 
REMARK   20  A    between atoms: C_20  and  C_21 
REMARK   21  A    between atoms: C_21  and  C_22 
REMARK   22  A    between atoms: C_22  and  C_23 
REMARK   23  A    between atoms: C_23  and  C_24 
REMARK   24  A    between atoms: C_24  and  C_25 
REMARK   25  A    between atoms: C_25  and  C_26 
REMARK   26  A    between atoms: C_26  and  C_27 
REMARK   27  A    between atoms: C_27  and  C_28 
REMARK   28  A    between atoms: C_28  and  C_29 
REMARK   29  A    between atoms: C_29  and  C_30 
REMARK   30  A    between atoms: C_30  and  C_31 
REMARK   31  A    between atoms: C_31  and  C_32 
REMARK   32  A    between atoms: C_32  and  C_33 
REMARK   33  A    between atoms: N_35  and  C_38 
REMARK   34  A    between atoms: C_38  and  C_39 
REMARK   35  A    between atoms: C_38  and  C_54 
REMARK   36  A    between atoms: C_39  and  C_40 
REMARK   37  A    between atoms: C_40  and  C_41 
REMARK   38  A    between atoms: C_41  and  C_42 
REMARK   39  A    between atoms: C_42  and  C_43 
REMARK   40  A    between atoms: C_43  and  C_44 
REMARK   41  A    between atoms: C_44  and  C_45 
REMARK   42  A    between atoms: C_45  and  C_46 
REMARK   43  A    between atoms: C_46  and  C_47 
REMARK   44  A    between atoms: C_47  and  C_48 
REMARK   45  A    between atoms: C_48  and  C_49 
REMARK   46  A    between atoms: C_49  and  C_50 
REMARK   47  A    between atoms: C_50  and  C_51 
REMARK   48  A    between atoms: C_51  and  C_52 
REMARK   49  A    between atoms: C_54  and  C_55 
REMARK   50  A    between atoms: C_55  and  C_56 
REMARK   51  A    between atoms: C_56  and  C_57 
REMARK   52  A    between atoms: C_57  and  C_58 
REMARK   53  A    between atoms: C_58  and  C_59 
REMARK   54  A    between atoms: C_59  and  C_60 
REMARK   55  A    between atoms: C_60  and  C_61 
REMARK   56  A    between atoms: C_61  and  C_62 
REMARK   57  A    between atoms: C_62  and  C_63 
REMARK   58  A    between atoms: C_63  and  C_64 
REMARK   59  A    between atoms: C_64  and  C_65 
REMARK   60  A    between atoms: C_65  and  C_66 
REMARK   61  A    between atoms: C_66  and  C_67 
REMARK   62  A    between atoms: C_67  and  C_68 
REMARK   63  A    between atoms: C_68  and  C_69 
REMARK   64  A    between atoms: C_69  and  C_70 
ROOT
HETATM    1 CL   UNL     2     -26.892   7.196 -11.107  1.00  0.00     0.000 Cl
ENDROOT
TORSDOF 64
BEGIN_RES ARG D 557
REMARK  4 active torsions:
REMARK  status: ('A' for Active; 'I' for Inactive)
REMARK    1  A    between atoms: CA   and  CB  
REMARK    2  A    between atoms: CB   and  CG  
REMARK    3  A    between atoms: CG   and  CD  
REMARK    4  A    between atoms: CD   and  NE  
REMARK       I    between atoms: NE   and  CZ  
REMARK       I    between atoms: CZ   and  NH1 
REMARK       I    between atoms: CZ   and  NH2 
ROOT
ATOM      1  CA  ARG D 557     -26.217   2.705 -17.014  1.00 35.49     0.159 C 
ENDROOT
BRANCH   1   2
ATOM      2  CB  ARG D 557     -26.789   1.319 -17.183  1.00 35.49     0.034 C 
BRANCH   2   3
ATOM      3  CG  ARG D 557     -25.835   0.204 -17.167  1.00 35.49     0.027 C 
BRANCH   3   4
ATOM      4  CD  ARG D 557     -24.751   0.403 -16.177  1.00 35.49     0.116 C 
BRANCH   4   5
ATOM      5  NE  ARG D 557     -24.908  -0.445 -15.024  1.00 35.49    -0.212 N 
ATOM      6  CZ  ARG D 557     -24.097  -1.417 -14.670  1.00 35.49     0.666 C 
ATOM      7  NH1 ARG D 557     -23.024  -1.736 -15.370  1.00 35.49    -0.235 N 
ATOM      8  NH2 ARG D 557     -24.383  -2.070 -13.581  1.00 35.49    -0.235 N 
ATOM      9  HH  ARG D 557     -22.816  -1.319 -16.089  1.00 35.49     0.174 HD
ATOM     10  HH  ARG D 557     -22.531  -2.378 -15.089  1.00 35.49     0.174 HD
ATOM     11  HH  ARG D 557     -25.078  -1.837 -13.145  1.00 35.49     0.174 HD
ATOM     12  HH  ARG D 557     -23.881  -2.701 -13.319  1.00 35.49     0.174 HD
ATOM     13  HE  ARG D 557     -25.612  -0.357 -14.556  1.00 35.49     0.178 HD
ENDBRANCH   4   5
ENDBRANCH   3   4
ENDBRANCH   2   3
ENDBRANCH   1   2
END_RES ARG D 557
BEGIN_RES GLU D 570
REMARK  3 active torsions:
REMARK  status: ('A' for Active; 'I' for Inactive)
REMARK    5  A    between atoms: CA   and  CB  
REMARK    6  A    between atoms: CB   and  CG  
REMARK    7  A    between atoms: CG   and  CD  
ROOT
ATOM     14  CA  GLU D 570     -18.033  -6.348 -13.375  1.00 32.92     0.160 C 
ENDROOT
BRANCH  14  15
ATOM     15  CB  GLU D 570     -19.500  -6.345 -13.794  1.00 32.92     0.043 C 
BRANCH  15  16
ATOM     16  CG  GLU D 570     -20.440  -5.524 -12.988  1.00 32.92     0.100 C 
BRANCH  16  17
ATOM     17  CD  GLU D 570     -21.745  -5.253 -13.701  1.00 32.92     0.185 C 
ATOM     18  OE1 GLU D 570     -22.317  -4.160 -13.521  1.00 32.92    -0.647 OA
ATOM     19  OE2 GLU D 570     -22.208  -6.149 -14.433  1.00 32.92    -0.647 OA
ENDBRANCH  16  17
ENDBRANCH  15  16
ENDBRANCH  14  15
END_RES GLU D 570
ENDMDL
MODEL 5
REMARK VINA RESULT:      -0.8      8.663      8.663
REMARK WARNING: 32 MAX_TORS EXCEEDED!!!
REMARK  64 active torsions:
REMARK  status: ('A' for Active; 'I' for Inactive)
REMARK    1  A    between atoms: C_2  and  C_3 
REMARK    2  A    between atoms: C_3  and  C_4 
REMARK    3  A    between atoms: C_4  and  C_5 
REMARK    4  A    between atoms: C_5  and  C_6 
REMARK    5  A    between atoms: C_6  and  C_7 
REMARK    6  A    between atoms: C_7  and  C_8 
REMARK    7  A    between atoms: C_8  and  C_9 
REMARK    8  A    between atoms: C_9  and  C_10 
REMARK    9  A    between atoms: C_10  and  C_11 
REMARK   10  A    between atoms: C_11  and  C_12 
REMARK   11  A    between atoms: C_12  and  C_13 
REMARK   12  A    between atoms: C_13  and  C_14 
REMARK   13  A    between atoms: C_14  and  C_15 
REMARK   14  A    between atoms: C_15  and  C_16 
REMARK   15  A    between atoms: C_16  and  C_17 
REMARK   16  A    between atoms: C_17  and  C_18 
REMARK   17  A    between atoms: C_18  and  C_19 
REMARK   18  A    between atoms: C_19  and  C_20 
REMARK   19  A    between atoms: C_19  and  N_35 
REMARK   20  A    between atoms: C_20  and  C_21 
REMARK   21  A    between atoms: C_21  and  C_22 
REMARK   22  A    between atoms: C_22  and  C_23 
REMARK   23  A    between atoms: C_23  and  C_24 
REMARK   24  A    between atoms: C_24  and  C_25 
REMARK   25  A    between atoms: C_25  and  C_26 
REMARK   26  A    between atoms: C_26  and  C_27 
REMARK   27  A    between atoms: C_27  and  C_28 
REMARK   28  A    between atoms: C_28  and  C_29 
REMARK   29  A    between atoms: C_29  and  C_30 
REMARK   30  A    between atoms: C_30  and  C_31 
REMARK   31  A    between atoms: C_31  and  C_32 
REMARK   32  A    between atoms: C_32  and  C_33 
REMARK   33  A    between atoms: N_35  and  C_38 
REMARK   34  A    between atoms: C_38  and  C_39 
REMARK   35  A    between atoms: C_38  and  C_54 
REMARK   36  A    between atoms: C_39  and  C_40 
REMARK   37  A    between atoms: C_40  and  C_41 
REMARK   38  A    between atoms: C_41  and  C_42 
REMARK   39  A    between atoms: C_42  and  C_43 
REMARK   40  A    between atoms: C_43  and  C_44 
REMARK   41  A    between atoms: C_44  and  C_45 
REMARK   42  A    between atoms: C_45  and  C_46 
REMARK   43  A    between atoms: C_46  and  C_47 
REMARK   44  A    between atoms: C_47  and  C_48 
REMARK   45  A    between atoms: C_48  and  C_49 
REMARK   46  A    between atoms: C_49  and  C_50 
REMARK   47  A    between atoms: C_50  and  C_51 
REMARK   48  A    between atoms: C_51  and  C_52 
REMARK   49  A    between atoms: C_54  and  C_55 
REMARK   50  A    between atoms: C_55  and  C_56 
REMARK   51  A    between atoms: C_56  and  C_57 
REMARK   52  A    between atoms: C_57  and  C_58 
REMARK   53  A    between atoms: C_58  and  C_59 
REMARK   54  A    between atoms: C_59  and  C_60 
REMARK   55  A    between atoms: C_60  and  C_61 
REMARK   56  A    between atoms: C_61  and  C_62 
REMARK   57  A    between atoms: C_62  and  C_63 
REMARK   58  A    between atoms: C_63  and  C_64 
REMARK   59  A    between atoms: C_64  and  C_65 
REMARK   60  A    between atoms: C_65  and  C_66 
REMARK   61  A    between atoms: C_66  and  C_67 
REMARK   62  A    between atoms: C_67  and  C_68 
REMARK   63  A    between atoms: C_68  and  C_69 
REMARK   64  A    between atoms: C_69  and  C_70 
ROOT
HETATM    1 CL   UNL     2     -13.066   9.040   5.862  1.00  0.00     0.000 Cl
ENDROOT
TORSDOF 64
BEGIN_RES ARG D 557
REMARK  4 active torsions:
REMARK  status: ('A' for Active; 'I' for Inactive)
REMARK    1  A    between atoms: CA   and  CB  
REMARK    2  A    between atoms: CB   and  CG  
REMARK    3  A    between atoms: CG   and  CD  
REMARK    4  A    between atoms: CD   and  NE  
REMARK       I    between atoms: NE   and  CZ  
REMARK       I    between atoms: CZ   and  NH1 
REMARK       I    between atoms: CZ   and  NH2 
ROOT
ATOM      1  CA  ARG D 557     -26.217   2.705 -17.014  1.00 35.49     0.159 C 
ENDROOT
BRANCH   1   2
ATOM      2  CB  ARG D 557     -26.789   1.319 -17.183  1.00 35.49     0.034 C 
BRANCH   2   3
ATOM      3  CG  ARG D 557     -25.835   0.203 -17.162  1.00 35.49     0.027 C 
BRANCH   3   4
ATOM      4  CD  ARG D 557     -24.749   0.408 -16.177  1.00 35.49     0.116 C 
BRANCH   4   5
ATOM      5  NE  ARG D 557     -24.897  -0.438 -15.022  1.00 35.49    -0.212 N 
ATOM      6  CZ  ARG D 557     -24.082  -1.407 -14.671  1.00 35.49     0.666 C 
ATOM      7  NH1 ARG D 557     -23.012  -1.725 -15.376  1.00 35.49    -0.235 N 
ATOM      8  NH2 ARG D 557     -24.360  -2.058 -13.579  1.00 35.49    -0.235 N 
ATOM      9  HH  ARG D 557     -22.808  -1.308 -16.096  1.00 35.49     0.174 HD
ATOM     10  HH  ARG D 557     -22.516  -2.365 -15.096  1.00 35.49     0.174 HD
ATOM     11  HH  ARG D 557     -25.054  -1.827 -13.140  1.00 35.49     0.174 HD
ATOM     12  HH  ARG D 557     -23.856  -2.688 -13.318  1.00 35.49     0.174 HD
ATOM     13  HE  ARG D 557     -25.599  -0.350 -14.551  1.00 35.49     0.178 HD
ENDBRANCH   4   5
ENDBRANCH   3   4
ENDBRANCH   2   3
ENDBRANCH   1   2
END_RES ARG D 557
BEGIN_RES GLU D 570
REMARK  3 active torsions:
REMARK  status: ('A' for Active; 'I' for Inactive)
REMARK    5  A    between atoms: CA   and  CB  
REMARK    6  A    between atoms: CB   and  CG  
REMARK    7  A    between atoms: CG   and  CD  
ROOT
ATOM     14  CA  GLU D 570     -18.033  -6.348 -13.375  1.00 32.92     0.160 C 
ENDROOT
BRANCH  14  15
ATOM     15  CB  GLU D 570     -19.500  -6.345 -13.794  1.00 32.92     0.043 C 
BRANCH  15  16
ATOM     16  CG  GLU D 570     -20.442  -5.531 -12.983  1.00 32.92     0.100 C 
BRANCH  16  17
ATOM     17  CD  GLU D 570     -21.750  -5.263 -13.691  1.00 32.92     0.185 C 
ATOM     18  OE1 GLU D 570     -22.236  -6.149 -14.419  1.00 32.92    -0.647 OA
ATOM     19  OE2 GLU D 570     -22.284  -4.148 -13.529  1.00 32.92    -0.647 OA
ENDBRANCH  16  17
ENDBRANCH  15  16
ENDBRANCH  14  15
END_RES GLU D 570
ENDMDL
MODEL 6
REMARK VINA RESULT:      -0.7      2.689      2.846
REMARK WARNING: 32 MAX_TORS EXCEEDED!!!
REMARK  64 active torsions:
REMARK  status: ('A' for Active; 'I' for Inactive)
REMARK    1  A    between atoms: C_2  and  C_3 
REMARK    2  A    between atoms: C_3  and  C_4 
REMARK    3  A    between atoms: C_4  and  C_5 
REMARK    4  A    between atoms: C_5  and  C_6 
REMARK    5  A    between atoms: C_6  and  C_7 
REMARK    6  A    between atoms: C_7  and  C_8 
REMARK    7  A    between atoms: C_8  and  C_9 
REMARK    8  A    between atoms: C_9  and  C_10 
REMARK    9  A    between atoms: C_10  and  C_11 
REMARK   10  A    between atoms: C_11  and  C_12 
REMARK   11  A    between atoms: C_12  and  C_13 
REMARK   12  A    between atoms: C_13  and  C_14 
REMARK   13  A    between atoms: C_14  and  C_15 
REMARK   14  A    between atoms: C_15  and  C_16 
REMARK   15  A    between atoms: C_16  and  C_17 
REMARK   16  A    between atoms: C_17  and  C_18 
REMARK   17  A    between atoms: C_18  and  C_19 
REMARK   18  A    between atoms: C_19  and  C_20 
REMARK   19  A    between atoms: C_19  and  N_35 
REMARK   20  A    between atoms: C_20  and  C_21 
REMARK   21  A    between atoms: C_21  and  C_22 
REMARK   22  A    between atoms: C_22  and  C_23 
REMARK   23  A    between atoms: C_23  and  C_24 
REMARK   24  A    between atoms: C_24  and  C_25 
REMARK   25  A    between atoms: C_25  and  C_26 
REMARK   26  A    between atoms: C_26  and  C_27 
REMARK   27  A    between atoms: C_27  and  C_28 
REMARK   28  A    between atoms: C_28  and  C_29 
REMARK   29  A    between atoms: C_29  and  C_30 
REMARK   30  A    between atoms: C_30  and  C_31 
REMARK   31  A    between atoms: C_31  and  C_32 
REMARK   32  A    between atoms: C_32  and  C_33 
REMARK   33  A    between atoms: N_35  and  C_38 
REMARK   34  A    between atoms: C_38  and  C_39 
REMARK   35  A    between atoms: C_38  and  C_54 
REMARK   36  A    between atoms: C_39  and  C_40 
REMARK   37  A    between atoms: C_40  and  C_41 
REMARK   38  A    between atoms: C_41  and  C_42 
REMARK   39  A    between atoms: C_42  and  C_43 
REMARK   40  A    between atoms: C_43  and  C_44 
REMARK   41  A    between atoms: C_44  and  C_45 
REMARK   42  A    between atoms: C_45  and  C_46 
REMARK   43  A    between atoms: C_46  and  C_47 
REMARK   44  A    between atoms: C_47  and  C_48 
REMARK   45  A    between atoms: C_48  and  C_49 
REMARK   46  A    between atoms: C_49  and  C_50 
REMARK   47  A    between atoms: C_50  and  C_51 
REMARK   48  A    between atoms: C_51  and  C_52 
REMARK   49  A    between atoms: C_54  and  C_55 
REMARK   50  A    between atoms: C_55  and  C_56 
REMARK   51  A    between atoms: C_56  and  C_57 
REMARK   52  A    between atoms: C_57  and  C_58 
REMARK   53  A    between atoms: C_58  and  C_59 
REMARK   54  A    between atoms: C_59  and  C_60 
REMARK   55  A    between atoms: C_60  and  C_61 
REMARK   56  A    between atoms: C_61  and  C_62 
REMARK   57  A    between atoms: C_62  and  C_63 
REMARK   58  A    between atoms: C_63  and  C_64 
REMARK   59  A    between atoms: C_64  and  C_65 
REMARK   60  A    between atoms: C_65  and  C_66 
REMARK   61  A    between atoms: C_66  and  C_67 
REMARK   62  A    between atoms: C_67  and  C_68 
REMARK   63  A    between atoms: C_68  and  C_69 
REMARK   64  A    between atoms: C_69  and  C_70 
ROOT
HETATM    1 CL   UNL     2     -28.963  -4.819 -18.431  1.00  0.00     0.000 Cl
ENDROOT
TORSDOF 64
BEGIN_RES ARG D 557
REMARK  4 active torsions:
REMARK  status: ('A' for Active; 'I' for Inactive)
REMARK    1  A    between atoms: CA   and  CB  
REMARK    2  A    between atoms: CB   and  CG  
REMARK    3  A    between atoms: CG   and  CD  
REMARK    4  A    between atoms: CD   and  NE  
REMARK       I    between atoms: NE   and  CZ  
REMARK       I    between atoms: CZ   and  NH1 
REMARK       I    between atoms: CZ   and  NH2 
ROOT
ATOM      1  CA  ARG D 557     -26.217   2.705 -17.014  1.00 35.49     0.159 C 
ENDROOT
BRANCH   1   2
ATOM      2  CB  ARG D 557     -26.789   1.319 -17.183  1.00 35.49     0.034 C 
BRANCH   2   3
ATOM      3  CG  ARG D 557     -25.834   0.205 -17.176  1.00 35.49     0.027 C 
BRANCH   3   4
ATOM      4  CD  ARG D 557     -24.760   0.389 -16.173  1.00 35.49     0.116 C 
BRANCH   4   5
ATOM      5  NE  ARG D 557     -24.936  -0.464 -15.027  1.00 35.49    -0.212 N 
ATOM      6  CZ  ARG D 557     -24.127  -1.432 -14.659  1.00 35.49     0.666 C 
ATOM      7  NH1 ARG D 557     -23.036  -1.742 -15.336  1.00 35.49    -0.235 N 
ATOM      8  NH2 ARG D 557     -24.431  -2.091 -13.579  1.00 35.49    -0.235 N 
ATOM      9  HH  ARG D 557     -22.815  -1.320 -16.048  1.00 35.49     0.174 HD
ATOM     10  HH  ARG D 557     -22.545  -2.381 -15.046  1.00 35.49     0.174 HD
ATOM     11  HH  ARG D 557     -25.138  -1.864 -13.157  1.00 35.49     0.174 HD
ATOM     12  HH  ARG D 557     -23.932  -2.720 -13.307  1.00 35.49     0.174 HD
ATOM     13  HE  ARG D 557     -25.651  -0.383 -14.574  1.00 35.49     0.178 HD
ENDBRANCH   4   5
ENDBRANCH   3   4
ENDBRANCH   2   3
ENDBRANCH   1   2
END_RES ARG D 557
BEGIN_RES GLU D 570
REMARK  3 active torsions:
REMARK  status: ('A' for Active; 'I' for Inactive)
REMARK    5  A    between atoms: CA   and  CB  
REMARK    6  A    between atoms: CB   and  CG  
REMARK    7  A    between atoms: CG   and  CD  
ROOT
ATOM     14  CA  GLU D 570     -18.033  -6.348 -13.375  1.00 32.92     0.160 C 
ENDROOT
BRANCH  14  15
ATOM     15  CB  GLU D 570     -19.500  -6.345 -13.794  1.00 32.92     0.043 C 
BRANCH  15  16
ATOM     16  CG  GLU D 570     -20.442  -5.529 -12.984  1.00 32.92     0.100 C 
BRANCH  16  17
ATOM     17  CD  GLU D 570     -21.745  -5.253 -13.697  1.00 32.92     0.185 C 
ATOM     18  OE1 GLU D 570     -22.349  -4.189 -13.463  1.00 32.92    -0.647 OA
ATOM     19  OE2 GLU D 570     -22.175  -6.118 -14.484  1.00 32.92    -0.647 OA
ENDBRANCH  16  17
ENDBRANCH  15  16
ENDBRANCH  14  15
END_RES GLU D 570
ENDMDL
MODEL 7
REMARK VINA RESULT:      -0.7      5.097      5.097
REMARK WARNING: 32 MAX_TORS EXCEEDED!!!
REMARK  64 active torsions:
REMARK  status: ('A' for Active; 'I' for Inactive)
REMARK    1  A    between atoms: C_2  and  C_3 
REMARK    2  A    between atoms: C_3  and  C_4 
REMARK    3  A    between atoms: C_4  and  C_5 
REMARK    4  A    between atoms: C_5  and  C_6 
REMARK    5  A    between atoms: C_6  and  C_7 
REMARK    6  A    between atoms: C_7  and  C_8 
REMARK    7  A    between atoms: C_8  and  C_9 
REMARK    8  A    between atoms: C_9  and  C_10 
REMARK    9  A    between atoms: C_10  and  C_11 
REMARK   10  A    between atoms: C_11  and  C_12 
REMARK   11  A    between atoms: C_12  and  C_13 
REMARK   12  A    between atoms: C_13  and  C_14 
REMARK   13  A    between atoms: C_14  and  C_15 
REMARK   14  A    between atoms: C_15  and  C_16 
REMARK   15  A    between atoms: C_16  and  C_17 
REMARK   16  A    between atoms: C_17  and  C_18 
REMARK   17  A    between atoms: C_18  and  C_19 
REMARK   18  A    between atoms: C_19  and  C_20 
REMARK   19  A    between atoms: C_19  and  N_35 
REMARK   20  A    between atoms: C_20  and  C_21 
REMARK   21  A    between atoms: C_21  and  C_22 
REMARK   22  A    between atoms: C_22  and  C_23 
REMARK   23  A    between atoms: C_23  and  C_24 
REMARK   24  A    between atoms: C_24  and  C_25 
REMARK   25  A    between atoms: C_25  and  C_26 
REMARK   26  A    between atoms: C_26  and  C_27 
REMARK   27  A    between atoms: C_27  and  C_28 
REMARK   28  A    between atoms: C_28  and  C_29 
REMARK   29  A    between atoms: C_29  and  C_30 
REMARK   30  A    between atoms: C_30  and  C_31 
REMARK   31  A    between atoms: C_31  and  C_32 
REMARK   32  A    between atoms: C_32  and  C_33 
REMARK   33  A    between atoms: N_35  and  C_38 
REMARK   34  A    between atoms: C_38  and  C_39 
REMARK   35  A    between atoms: C_38  and  C_54 
REMARK   36  A    between atoms: C_39  and  C_40 
REMARK   37  A    between atoms: C_40  and  C_41 
REMARK   38  A    between atoms: C_41  and  C_42 
REMARK   39  A    between atoms: C_42  and  C_43 
REMARK   40  A    between atoms: C_43  and  C_44 
REMARK   41  A    between atoms: C_44  and  C_45 
REMARK   42  A    between atoms: C_45  and  C_46 
REMARK   43  A    between atoms: C_46  and  C_47 
REMARK   44  A    between atoms: C_47  and  C_48 
REMARK   45  A    between atoms: C_48  and  C_49 
REMARK   46  A    between atoms: C_49  and  C_50 
REMARK   47  A    between atoms: C_50  and  C_51 
REMARK   48  A    between atoms: C_51  and  C_52 
REMARK   49  A    between atoms: C_54  and  C_55 
REMARK   50  A    between atoms: C_55  and  C_56 
REMARK   51  A    between atoms: C_56  and  C_57 
REMARK   52  A    between atoms: C_57  and  C_58 
REMARK   53  A    between atoms: C_58  and  C_59 
REMARK   54  A    between atoms: C_59  and  C_60 
REMARK   55  A    between atoms: C_60  and  C_61 
REMARK   56  A    between atoms: C_61  and  C_62 
REMARK   57  A    between atoms: C_62  and  C_63 
REMARK   58  A    between atoms: C_63  and  C_64 
REMARK   59  A    between atoms: C_64  and  C_65 
REMARK   60  A    between atoms: C_65  and  C_66 
REMARK   61  A    between atoms: C_66  and  C_67 
REMARK   62  A    between atoms: C_67  and  C_68 
REMARK   63  A    between atoms: C_68  and  C_69 
REMARK   64  A    between atoms: C_69  and  C_70 
ROOT
HETATM    1 CL   UNL     2     -21.587  -8.925 -21.400  1.00  0.00     0.000 Cl
ENDROOT
TORSDOF 64
BEGIN_RES ARG D 557
REMARK  4 active torsions:
REMARK  status: ('A' for Active; 'I' for Inactive)
REMARK    1  A    between atoms: CA   and  CB  
REMARK    2  A    between atoms: CB   and  CG  
REMARK    3  A    between atoms: CG   and  CD  
REMARK    4  A    between atoms: CD   and  NE  
REMARK       I    between atoms: NE   and  CZ  
REMARK       I    between atoms: CZ   and  NH1 
REMARK       I    between atoms: CZ   and  NH2 
ROOT
ATOM      1  CA  ARG D 557     -26.217   2.705 -17.014  1.00 35.49     0.159 C 
ENDROOT
BRANCH   1   2
ATOM      2  CB  ARG D 557     -26.789   1.319 -17.183  1.00 35.49     0.034 C 
BRANCH   2   3
ATOM      3  CG  ARG D 557     -25.838   0.202 -17.139  1.00 35.49     0.027 C 
BRANCH   3   4
ATOM      4  CD  ARG D 557     -24.760   0.417 -16.147  1.00 35.49     0.116 C 
BRANCH   4   5
ATOM      5  NE  ARG D 557     -24.900  -0.440 -14.999  1.00 35.49    -0.212 N 
ATOM      6  CZ  ARG D 557     -24.081  -1.411 -14.662  1.00 35.49     0.666 C 
ATOM      7  NH1 ARG D 557     -23.013  -1.719 -15.376  1.00 35.49    -0.235 N 
ATOM      8  NH2 ARG D 557     -24.351  -2.074 -13.575  1.00 35.49    -0.235 N 
ATOM      9  HH  ARG D 557     -22.815  -1.295 -16.093  1.00 35.49     0.174 HD
ATOM     10  HH  ARG D 557     -22.514  -2.361 -15.105  1.00 35.49     0.174 HD
ATOM     11  HH  ARG D 557     -25.043  -1.848 -13.130  1.00 35.49     0.174 HD
ATOM     12  HH  ARG D 557     -23.843  -2.705 -13.323  1.00 35.49     0.174 HD
ATOM     13  HE  ARG D 557     -25.600  -0.360 -14.523  1.00 35.49     0.178 HD
ENDBRANCH   4   5
ENDBRANCH   3   4
ENDBRANCH   2   3
ENDBRANCH   1   2
END_RES ARG D 557
BEGIN_RES GLU D 570
REMARK  3 active torsions:
REMARK  status: ('A' for Active; 'I' for Inactive)
REMARK    5  A    between atoms: CA   and  CB  
REMARK    6  A    between atoms: CB   and  CG  
REMARK    7  A    between atoms: CG   and  CD  
ROOT
ATOM     14  CA  GLU D 570     -18.033  -6.348 -13.375  1.00 32.92     0.160 C 
ENDROOT
BRANCH  14  15
ATOM     15  CB  GLU D 570     -19.500  -6.345 -13.794  1.00 32.92     0.043 C 
BRANCH  15  16
ATOM     16  CG  GLU D 570     -20.443  -5.535 -12.980  1.00 32.92     0.100 C 
BRANCH  16  17
ATOM     17  CD  GLU D 570     -21.743  -5.250 -13.694  1.00 32.92     0.185 C 
ATOM     18  OE1 GLU D 570     -22.240  -6.130 -14.422  1.00 32.92    -0.647 OA
ATOM     19  OE2 GLU D 570     -22.262  -4.127 -13.537  1.00 32.92    -0.647 OA
ENDBRANCH  16  17
ENDBRANCH  15  16
ENDBRANCH  14  15
END_RES GLU D 570
ENDMDL
MODEL 8
REMARK VINA RESULT:      -0.6      6.041      6.041
REMARK WARNING: 32 MAX_TORS EXCEEDED!!!
REMARK  64 active torsions:
REMARK  status: ('A' for Active; 'I' for Inactive)
REMARK    1  A    between atoms: C_2  and  C_3 
REMARK    2  A    between atoms: C_3  and  C_4 
REMARK    3  A    between atoms: C_4  and  C_5 
REMARK    4  A    between atoms: C_5  and  C_6 
REMARK    5  A    between atoms: C_6  and  C_7 
REMARK    6  A    between atoms: C_7  and  C_8 
REMARK    7  A    between atoms: C_8  and  C_9 
REMARK    8  A    between atoms: C_9  and  C_10 
REMARK    9  A    between atoms: C_10  and  C_11 
REMARK   10  A    between atoms: C_11  and  C_12 
REMARK   11  A    between atoms: C_12  and  C_13 
REMARK   12  A    between atoms: C_13  and  C_14 
REMARK   13  A    between atoms: C_14  and  C_15 
REMARK   14  A    between atoms: C_15  and  C_16 
REMARK   15  A    between atoms: C_16  and  C_17 
REMARK   16  A    between atoms: C_17  and  C_18 
REMARK   17  A    between atoms: C_18  and  C_19 
REMARK   18  A    between atoms: C_19  and  C_20 
REMARK   19  A    between atoms: C_19  and  N_35 
REMARK   20  A    between atoms: C_20  and  C_21 
REMARK   21  A    between atoms: C_21  and  C_22 
REMARK   22  A    between atoms: C_22  and  C_23 
REMARK   23  A    between atoms: C_23  and  C_24 
REMARK   24  A    between atoms: C_24  and  C_25 
REMARK   25  A    between atoms: C_25  and  C_26 
REMARK   26  A    between atoms: C_26  and  C_27 
REMARK   27  A    between atoms: C_27  and  C_28 
REMARK   28  A    between atoms: C_28  and  C_29 
REMARK   29  A    between atoms: C_29  and  C_30 
REMARK   30  A    between atoms: C_30  and  C_31 
REMARK   31  A    between atoms: C_31  and  C_32 
REMARK   32  A    between atoms: C_32  and  C_33 
REMARK   33  A    between atoms: N_35  and  C_38 
REMARK   34  A    between atoms: C_38  and  C_39 
REMARK   35  A    between atoms: C_38  and  C_54 
REMARK   36  A    between atoms: C_39  and  C_40 
REMARK   37  A    between atoms: C_40  and  C_41 
REMARK   38  A    between atoms: C_41  and  C_42 
REMARK   39  A    between atoms: C_42  and  C_43 
REMARK   40  A    between atoms: C_43  and  C_44 
REMARK   41  A    between atoms: C_44  and  C_45 
REMARK   42  A    between atoms: C_45  and  C_46 
REMARK   43  A    between atoms: C_46  and  C_47 
REMARK   44  A    between atoms: C_47  and  C_48 
REMARK   45  A    between atoms: C_48  and  C_49 
REMARK   46  A    between atoms: C_49  and  C_50 
REMARK   47  A    between atoms: C_50  and  C_51 
REMARK   48  A    between atoms: C_51  and  C_52 
REMARK   49  A    between atoms: C_54  and  C_55 
REMARK   50  A    between atoms: C_55  and  C_56 
REMARK   51  A    between atoms: C_56  and  C_57 
REMARK   52  A    between atoms: C_57  and  C_58 
REMARK   53  A    between atoms: C_58  and  C_59 
REMARK   54  A    between atoms: C_59  and  C_60 
REMARK   55  A    between atoms: C_60  and  C_61 
REMARK   56  A    between atoms: C_61  and  C_62 
REMARK   57  A    between atoms: C_62  and  C_63 
REMARK   58  A    between atoms: C_63  and  C_64 
REMARK   59  A    between atoms: C_64  and  C_65 
REMARK   60  A    between atoms: C_65  and  C_66 
REMARK   61  A    between atoms: C_66  and  C_67 
REMARK   62  A    between atoms: C_67  and  C_68 
REMARK   63  A    between atoms: C_68  and  C_69 
REMARK   64  A    between atoms: C_69  and  C_70 
ROOT
HETATM    1 CL   UNL     2     -16.799 -11.726 -17.789  1.00  0.00     0.000 Cl
ENDROOT
TORSDOF 64
BEGIN_RES ARG D 557
REMARK  4 active torsions:
REMARK  status: ('A' for Active; 'I' for Inactive)
REMARK    1  A    between atoms: CA   and  CB  
REMARK    2  A    between atoms: CB   and  CG  
REMARK    3  A    between atoms: CG   and  CD  
REMARK    4  A    between atoms: CD   and  NE  
REMARK       I    between atoms: NE   and  CZ  
REMARK       I    between atoms: CZ   and  NH1 
REMARK       I    between atoms: CZ   and  NH2 
ROOT
ATOM      1  CA  ARG D 557     -26.217   2.705 -17.014  1.00 35.49     0.159 C 
ENDROOT
BRANCH   1   2
ATOM      2  CB  ARG D 557     -26.789   1.319 -17.183  1.00 35.49     0.034 C 
BRANCH   2   3
ATOM      3  CG  ARG D 557     -25.835   0.203 -17.162  1.00 35.49     0.027 C 
BRANCH   3   4
ATOM      4  CD  ARG D 557     -24.743   0.413 -16.183  1.00 35.49     0.116 C 
BRANCH   4   5
ATOM      5  NE  ARG D 557     -24.889  -0.423 -15.021  1.00 35.49    -0.212 N 
ATOM      6  CZ  ARG D 557     -24.098  -1.418 -14.686  1.00 35.49     0.666 C 
ATOM      7  NH1 ARG D 557     -23.059  -1.774 -15.418  1.00 35.49    -0.235 N 
ATOM      8  NH2 ARG D 557     -24.369  -2.055 -13.584  1.00 35.49    -0.235 N 
ATOM      9  HH  ARG D 557     -22.861  -1.368 -16.146  1.00 35.49     0.174 HD
ATOM     10  HH  ARG D 557     -22.577  -2.430 -15.148  1.00 35.49     0.174 HD
ATOM     11  HH  ARG D 557     -25.042  -1.798 -13.128  1.00 35.49     0.174 HD
ATOM     12  HH  ARG D 557     -23.879  -2.700 -13.333  1.00 35.49     0.174 HD
ATOM     13  HE  ARG D 557     -25.575  -0.309 -14.531  1.00 35.49     0.178 HD
ENDBRANCH   4   5
ENDBRANCH   3   4
ENDBRANCH   2   3
ENDBRANCH   1   2
END_RES ARG D 557
BEGIN_RES GLU D 570
REMARK  3 active torsions:
REMARK  status: ('A' for Active; 'I' for Inactive)
REMARK    5  A    between atoms: CA   and  CB  
REMARK    6  A    between atoms: CB   and  CG  
REMARK    7  A    between atoms: CG   and  CD  
ROOT
ATOM     14  CA  GLU D 570     -18.033  -6.348 -13.375  1.00 32.92     0.160 C 
ENDROOT
BRANCH  14  15
ATOM     15  CB  GLU D 570     -19.500  -6.345 -13.794  1.00 32.92     0.043 C 
BRANCH  15  16
ATOM     16  CG  GLU D 570     -20.447  -5.557 -12.964  1.00 32.92     0.100 C 
BRANCH  16  17
ATOM     17  CD  GLU D 570     -21.727  -5.216 -13.692  1.00 32.92     0.185 C 
ATOM     18  OE1 GLU D 570     -22.166  -6.009 -14.547  1.00 32.92    -0.647 OA
ATOM     19  OE2 GLU D 570     -22.286  -4.137 -13.417  1.00 32.92    -0.647 OA
ENDBRANCH  16  17
ENDBRANCH  15  16
ENDBRANCH  14  15
END_RES GLU D 570
ENDMDL
MODEL 9
REMARK VINA RESULT:      -0.6      5.320      5.420
REMARK WARNING: 32 MAX_TORS EXCEEDED!!!
REMARK  64 active torsions:
REMARK  status: ('A' for Active; 'I' for Inactive)
REMARK    1  A    between atoms: C_2  and  C_3 
REMARK    2  A    between atoms: C_3  and  C_4 
REMARK    3  A    between atoms: C_4  and  C_5 
REMARK    4  A    between atoms: C_5  and  C_6 
REMARK    5  A    between atoms: C_6  and  C_7 
REMARK    6  A    between atoms: C_7  and  C_8 
REMARK    7  A    between atoms: C_8  and  C_9 
REMARK    8  A    between atoms: C_9  and  C_10 
REMARK    9  A    between atoms: C_10  and  C_11 
REMARK   10  A    between atoms: C_11  and  C_12 
REMARK   11  A    between atoms: C_12  and  C_13 
REMARK   12  A    between atoms: C_13  and  C_14 
REMARK   13  A    between atoms: C_14  and  C_15 
REMARK   14  A    between atoms: C_15  and  C_16 
REMARK   15  A    between atoms: C_16  and  C_17 
REMARK   16  A    between atoms: C_17  and  C_18 
REMARK   17  A    between atoms: C_18  and  C_19 
REMARK   18  A    between atoms: C_19  and  C_20 
REMARK   19  A    between atoms: C_19  and  N_35 
REMARK   20  A    between atoms: C_20  and  C_21 
REMARK   21  A    between atoms: C_21  and  C_22 
REMARK   22  A    between atoms: C_22  and  C_23 
REMARK   23  A    between atoms: C_23  and  C_24 
REMARK   24  A    between atoms: C_24  and  C_25 
REMARK   25  A    between atoms: C_25  and  C_26 
REMARK   26  A    between atoms: C_26  and  C_27 
REMARK   27  A    between atoms: C_27  and  C_28 
REMARK   28  A    between atoms: C_28  and  C_29 
REMARK   29  A    between atoms: C_29  and  C_30 
REMARK   30  A    between atoms: C_30  and  C_31 
REMARK   31  A    between atoms: C_31  and  C_32 
REMARK   32  A    between atoms: C_32  and  C_33 
REMARK   33  A    between atoms: N_35  and  C_38 
REMARK   34  A    between atoms: C_38  and  C_39 
REMARK   35  A    between atoms: C_38  and  C_54 
REMARK   36  A    between atoms: C_39  and  C_40 
REMARK   37  A    between atoms: C_40  and  C_41 
REMARK   38  A    between atoms: C_41  and  C_42 
REMARK   39  A    between atoms: C_42  and  C_43 
REMARK   40  A    between atoms: C_43  and  C_44 
REMARK   41  A    between atoms: C_44  and  C_45 
REMARK   42  A    between atoms: C_45  and  C_46 
REMARK   43  A    between atoms: C_46  and  C_47 
REMARK   44  A    between atoms: C_47  and  C_48 
REMARK   45  A    between atoms: C_48  and  C_49 
REMARK   46  A    between atoms: C_49  and  C_50 
REMARK   47  A    between atoms: C_50  and  C_51 
REMARK   48  A    between atoms: C_51  and  C_52 
REMARK   49  A    between atoms: C_54  and  C_55 
REMARK   50  A    between atoms: C_55  and  C_56 
REMARK   51  A    between atoms: C_56  and  C_57 
REMARK   52  A    between atoms: C_57  and  C_58 
REMARK   53  A    between atoms: C_58  and  C_59 
REMARK   54  A    between atoms: C_59  and  C_60 
REMARK   55  A    between atoms: C_60  and  C_61 
REMARK   56  A    between atoms: C_61  and  C_62 
REMARK   57  A    between atoms: C_62  and  C_63 
REMARK   58  A    between atoms: C_63  and  C_64 
REMARK   59  A    between atoms: C_64  and  C_65 
REMARK   60  A    between atoms: C_65  and  C_66 
REMARK   61  A    between atoms: C_66  and  C_67 
REMARK   62  A    between atoms: C_67  and  C_68 
REMARK   63  A    between atoms: C_68  and  C_69 
REMARK   64  A    between atoms: C_69  and  C_70 
ROOT
HETATM    1 CL   UNL     2     -29.575 -15.364   0.211  1.00  0.00     0.000 Cl
ENDROOT
TORSDOF 64
BEGIN_RES ARG D 557
REMARK  4 active torsions:
REMARK  status: ('A' for Active; 'I' for Inactive)
REMARK    1  A    between atoms: CA   and  CB  
REMARK    2  A    between atoms: CB   and  CG  
REMARK    3  A    between atoms: CG   and  CD  
REMARK    4  A    between atoms: CD   and  NE  
REMARK       I    between atoms: NE   and  CZ  
REMARK       I    between atoms: CZ   and  NH1 
REMARK       I    between atoms: CZ   and  NH2 
ROOT
ATOM      1  CA  ARG D 557     -26.217   2.705 -17.014  1.00 35.49     0.159 C 
ENDROOT
BRANCH   1   2
ATOM      2  CB  ARG D 557     -26.789   1.319 -17.183  1.00 35.49     0.034 C 
BRANCH   2   3
ATOM      3  CG  ARG D 557     -25.860   0.195 -17.010  1.00 35.49     0.027 C 
BRANCH   3   4
ATOM      4  CD  ARG D 557     -26.262  -0.703 -15.903  1.00 35.49     0.116 C 
BRANCH   4   5
ATOM      5  NE  ARG D 557     -25.202  -0.895 -14.949  1.00 35.49    -0.212 N 
ATOM      6  CZ  ARG D 557     -24.891  -2.030 -14.364  1.00 35.49     0.666 C 
ATOM      7  NH1 ARG D 557     -25.554  -3.149 -14.590  1.00 35.49    -0.235 N 
ATOM      8  NH2 ARG D 557     -23.884  -2.024 -13.539  1.00 35.49    -0.235 N 
ATOM      9  HH  ARG D 557     -26.218  -3.176 -15.130  1.00 35.49     0.174 HD
ATOM     10  HH  ARG D 557     -25.304  -3.859 -14.181  1.00 35.49     0.174 HD
ATOM     11  HH  ARG D 557     -23.470  -1.288 -13.419  1.00 35.49     0.174 HD
ATOM     12  HH  ARG D 557     -23.651  -2.738 -13.146  1.00 35.49     0.174 HD
ATOM     13  HE  ARG D 557     -24.769  -0.210 -14.690  1.00 35.49     0.178 HD
ENDBRANCH   4   5
ENDBRANCH   3   4
ENDBRANCH   2   3
ENDBRANCH   1   2
END_RES ARG D 557
BEGIN_RES GLU D 570
REMARK  3 active torsions:
REMARK  status: ('A' for Active; 'I' for Inactive)
REMARK    5  A    between atoms: CA   and  CB  
REMARK    6  A    between atoms: CB   and  CG  
REMARK    7  A    between atoms: CG   and  CD  
ROOT
ATOM     14  CA  GLU D 570     -18.033  -6.348 -13.375  1.00 32.92     0.160 C 
ENDROOT
BRANCH  14  15
ATOM     15  CB  GLU D 570     -19.500  -6.345 -13.794  1.00 32.92     0.043 C 
BRANCH  15  16
ATOM     16  CG  GLU D 570     -20.447  -5.557 -12.964  1.00 32.92     0.100 C 
BRANCH  16  17
ATOM     17  CD  GLU D 570     -21.677  -5.122 -13.726  1.00 32.92     0.185 C 
ATOM     18  OE1 GLU D 570     -22.693  -4.778 -13.091  1.00 32.92    -0.647 OA
ATOM     19  OE2 GLU D 570     -21.631  -5.141 -14.972  1.00 32.92    -0.647 OA
ENDBRANCH  16  17
ENDBRANCH  15  16
ENDBRANCH  14  15
END_RES GLU D 570
ENDMDL
