MODEL 1
REMARK VINA RESULT:      -4.6      0.000      0.000
REMARK  3 active torsions:
REMARK  status: ('A' for Active; 'I' for Inactive)
REMARK    1  A    between atoms: CA_2  and  C_3 
REMARK    2  A    between atoms: CA_2  and  N_6 
REMARK    3  A    between atoms: C_3  and  OXT_5 
ROOT
ATOM      1  CB  ALA A   1     -22.310  -4.416  -9.916  1.00  0.00     0.054 C 
ATOM      2  CA  ALA A   1     -23.405  -3.551  -9.307  1.00  0.00     0.310 C 
ENDROOT
BRANCH   2   3
ATOM      3  C   ALA A   1     -24.644  -3.493 -10.219  1.00  0.00     0.173 C 
ATOM      4  O   ALA A   1     -25.749  -3.112  -9.852  1.00  0.00    -0.648 OA
BRANCH   3   5
ATOM      5  OXT ALA A   1     -24.405  -3.866 -11.496  1.00  0.00    -0.775 OA
ATOM      6  HXT ALA A   1     -23.781  -4.611 -11.590  1.00  0.00     0.167 HD
ENDBRANCH   3   5
ENDBRANCH   2   3
BRANCH   2   7
ATOM      7  N   ALA A   1     -23.767  -4.103  -7.984  1.00  0.00     0.092 N 
ATOM      8  H1  ALA A   1     -24.661  -3.690  -7.701  1.00  0.00     0.313 HD
ATOM      9  H2  ALA A   1     -23.110  -3.725  -7.295  1.00  0.00     0.313 HD
ENDBRANCH   2   7
TORSDOF 3
BEGIN_RES ARG D 557
REMARK  4 active torsions:
REMARK  status: ('A' for Active; 'I' for Inactive)
REMARK    1  A    between atoms: CA   and  CB  
REMARK    2  A    between atoms: CB   and  CG  
REMARK    3  A    between atoms: CG   and  CD  
REMARK    4  A    between atoms: CD   and  NE  
REMARK       I    between atoms: NE   and  CZ  
REMARK       I    between atoms: CZ   and  NH1 
REMARK       I    between atoms: CZ   and  NH2 
ROOT
ATOM      1  CA  ARG D 557     -26.217   2.705 -17.014  1.00 35.49     0.159 C 
ENDROOT
BRANCH   1   2
ATOM      2  CB  ARG D 557     -26.789   1.319 -17.183  1.00 35.49     0.034 C 
BRANCH   2   3
ATOM      3  CG  ARG D 557     -25.856   0.196 -17.028  1.00 35.49     0.027 C 
BRANCH   3   4
ATOM      4  CD  ARG D 557     -26.193  -0.662 -15.869  1.00 35.49     0.116 C 
BRANCH   4   5
ATOM      5  NE  ARG D 557     -25.110  -0.748 -14.925  1.00 35.49    -0.212 N 
ATOM      6  CZ  ARG D 557     -24.698  -1.843 -14.327  1.00 35.49     0.666 C 
ATOM      7  NH1 ARG D 557     -25.267  -3.017 -14.527  1.00 35.49    -0.235 N 
ATOM      8  NH2 ARG D 557     -23.685  -1.739 -13.516  1.00 35.49    -0.235 N 
ATOM      9  HH  ARG D 557     -25.933  -3.109 -15.058  1.00 35.49     0.174 HD
ATOM     10  HH  ARG D 557     -24.953  -3.697 -14.110  1.00 35.49     0.174 HD
ATOM     11  HH  ARG D 557     -23.333  -0.969 -13.412  1.00 35.49     0.174 HD
ATOM     12  HH  ARG D 557     -23.389  -2.424 -13.114  1.00 35.49     0.174 HD
ATOM     13  HE  ARG D 557     -24.733  -0.025 -14.683  1.00 35.49     0.178 HD
ENDBRANCH   4   5
ENDBRANCH   3   4
ENDBRANCH   2   3
ENDBRANCH   1   2
END_RES ARG D 557
BEGIN_RES GLU D 570
REMARK  3 active torsions:
REMARK  status: ('A' for Active; 'I' for Inactive)
REMARK    5  A    between atoms: CA   and  CB  
REMARK    6  A    between atoms: CB   and  CG  
REMARK    7  A    between atoms: CG   and  CD  
ROOT
ATOM     14  CA  GLU D 570     -18.033  -6.348 -13.375  1.00 32.92     0.160 C 
ENDROOT
BRANCH  14  15
ATOM     15  CB  GLU D 570     -19.500  -6.345 -13.794  1.00 32.92     0.043 C 
BRANCH  15  16
ATOM     16  CG  GLU D 570     -20.439  -5.516 -12.994  1.00 32.92     0.100 C 
BRANCH  16  17
ATOM     17  CD  GLU D 570     -21.764  -5.294 -13.685  1.00 32.92     0.185 C 
ATOM     18  OE1 GLU D 570     -22.210  -6.181 -14.438  1.00 32.92    -0.647 OA
ATOM     19  OE2 GLU D 570     -22.355  -4.215 -13.484  1.00 32.92    -0.647 OA
ENDBRANCH  16  17
ENDBRANCH  15  16
ENDBRANCH  14  15
END_RES GLU D 570
ENDMDL
MODEL 2
REMARK VINA RESULT:      -4.4      0.962      1.442
REMARK  3 active torsions:
REMARK  status: ('A' for Active; 'I' for Inactive)
REMARK    1  A    between atoms: CA_2  and  C_3 
REMARK    2  A    between atoms: CA_2  and  N_6 
REMARK    3  A    between atoms: C_3  and  OXT_5 
ROOT
ATOM      1  CB  ALA A   1     -22.827  -4.215  -8.489  1.00  0.00     0.054 C 
ATOM      2  CA  ALA A   1     -23.122  -4.085  -9.978  1.00  0.00     0.310 C 
ENDROOT
BRANCH   2   3
ATOM      3  C   ALA A   1     -24.458  -3.359 -10.221  1.00  0.00     0.173 C 
ATOM      4  O   ALA A   1     -24.993  -3.256 -11.318  1.00  0.00    -0.648 OA
BRANCH   3   5
ATOM      5  OXT ALA A   1     -25.030  -2.867  -9.099  1.00  0.00    -0.775 OA
ATOM      6  HXT ALA A   1     -25.918  -3.225  -8.907  1.00  0.00     0.167 HD
ENDBRANCH   3   5
ENDBRANCH   2   3
BRANCH   2   7
ATOM      7  N   ALA A   1     -22.014  -3.347 -10.620  1.00  0.00     0.092 N 
ATOM      8  H1  ALA A   1     -21.945  -3.660 -11.593  1.00  0.00     0.313 HD
ATOM      9  H2  ALA A   1     -21.136  -3.678 -10.209  1.00  0.00     0.313 HD
ENDBRANCH   2   7
TORSDOF 3
BEGIN_RES ARG D 557
REMARK  4 active torsions:
REMARK  status: ('A' for Active; 'I' for Inactive)
REMARK    1  A    between atoms: CA   and  CB  
REMARK    2  A    between atoms: CB   and  CG  
REMARK    3  A    between atoms: CG   and  CD  
REMARK    4  A    between atoms: CD   and  NE  
REMARK       I    between atoms: NE   and  CZ  
REMARK       I    between atoms: CZ   and  NH1 
REMARK       I    between atoms: CZ   and  NH2 
ROOT
ATOM      1  CA  ARG D 557     -26.217   2.705 -17.014  1.00 35.49     0.159 C 
ENDROOT
BRANCH   1   2
ATOM      2  CB  ARG D 557     -26.789   1.319 -17.183  1.00 35.49     0.034 C 
BRANCH   2   3
ATOM      3  CG  ARG D 557     -25.854   0.196 -17.040  1.00 35.49     0.027 C 
BRANCH   3   4
ATOM      4  CD  ARG D 557     -26.171  -0.656 -15.871  1.00 35.49     0.116 C 
BRANCH   4   5
ATOM      5  NE  ARG D 557     -25.070  -0.743 -14.948  1.00 35.49    -0.212 N 
ATOM      6  CZ  ARG D 557     -24.658  -1.836 -14.346  1.00 35.49     0.666 C 
ATOM      7  NH1 ARG D 557     -25.242  -3.007 -14.522  1.00 35.49    -0.235 N 
ATOM      8  NH2 ARG D 557     -23.628  -1.734 -13.556  1.00 35.49    -0.235 N 
ATOM      9  HH  ARG D 557     -25.920  -3.097 -15.038  1.00 35.49     0.174 HD
ATOM     10  HH  ARG D 557     -24.927  -3.685 -14.104  1.00 35.49     0.174 HD
ATOM     11  HH  ARG D 557     -23.266  -0.966 -13.468  1.00 35.49     0.174 HD
ATOM     12  HH  ARG D 557     -23.330  -2.418 -13.153  1.00 35.49     0.174 HD
ATOM     13  HE  ARG D 557     -24.682  -0.022 -14.721  1.00 35.49     0.178 HD
ENDBRANCH   4   5
ENDBRANCH   3   4
ENDBRANCH   2   3
ENDBRANCH   1   2
END_RES ARG D 557
BEGIN_RES GLU D 570
REMARK  3 active torsions:
REMARK  status: ('A' for Active; 'I' for Inactive)
REMARK    5  A    between atoms: CA   and  CB  
REMARK    6  A    between atoms: CB   and  CG  
REMARK    7  A    between atoms: CG   and  CD  
ROOT
ATOM     14  CA  GLU D 570     -18.033  -6.348 -13.375  1.00 32.92     0.160 C 
ENDROOT
BRANCH  14  15
ATOM     15  CB  GLU D 570     -19.500  -6.345 -13.794  1.00 32.92     0.043 C 
BRANCH  15  16
ATOM     16  CG  GLU D 570     -20.432  -5.488 -13.017  1.00 32.92     0.100 C 
BRANCH  16  17
ATOM     17  CD  GLU D 570     -21.773  -5.313 -13.691  1.00 32.92     0.185 C 
ATOM     18  OE1 GLU D 570     -22.459  -4.308 -13.423  1.00 32.92    -0.647 OA
ATOM     19  OE2 GLU D 570     -22.149  -6.199 -14.483  1.00 32.92    -0.647 OA
ENDBRANCH  16  17
ENDBRANCH  15  16
ENDBRANCH  14  15
END_RES GLU D 570
ENDMDL
MODEL 3
REMARK VINA RESULT:      -4.2      8.335      9.956
REMARK  3 active torsions:
REMARK  status: ('A' for Active; 'I' for Inactive)
REMARK    1  A    between atoms: CA_2  and  C_3 
REMARK    2  A    between atoms: CA_2  and  N_6 
REMARK    3  A    between atoms: C_3  and  OXT_5 
ROOT
ATOM      1  CB  ALA A   1     -29.988 -16.226 -20.884  1.00  0.00     0.054 C 
ATOM      2  CA  ALA A   1     -30.063 -14.705 -20.857  1.00  0.00     0.310 C 
ENDROOT
BRANCH   2   3
ATOM      3  C   ALA A   1     -30.031 -14.170 -19.413  1.00  0.00     0.173 C 
ATOM      4  O   ALA A   1     -29.354 -13.216 -19.050  1.00  0.00    -0.648 OA
BRANCH   3   5
ATOM      5  OXT ALA A   1     -30.856 -14.824 -18.565  1.00  0.00    -0.775 OA
ATOM      6  HXT ALA A   1     -30.905 -15.788 -18.712  1.00  0.00     0.167 HD
ENDBRANCH   3   5
ENDBRANCH   2   3
BRANCH   2   7
ATOM      7  N   ALA A   1     -28.929 -14.159 -21.632  1.00  0.00     0.092 N 
ATOM      8  H1  ALA A   1     -29.185 -14.174 -22.623  1.00  0.00     0.313 HD
ATOM      9  H2  ALA A   1     -28.160 -14.833 -21.581  1.00  0.00     0.313 HD
ENDBRANCH   2   7
TORSDOF 3
BEGIN_RES ARG D 557
REMARK  4 active torsions:
REMARK  status: ('A' for Active; 'I' for Inactive)
REMARK    1  A    between atoms: CA   and  CB  
REMARK    2  A    between atoms: CB   and  CG  
REMARK    3  A    between atoms: CG   and  CD  
REMARK    4  A    between atoms: CD   and  NE  
REMARK       I    between atoms: NE   and  CZ  
REMARK       I    between atoms: CZ   and  NH1 
REMARK       I    between atoms: CZ   and  NH2 
ROOT
ATOM      1  CA  ARG D 557     -26.217   2.705 -17.014  1.00 35.49     0.159 C 
ENDROOT
BRANCH   1   2
ATOM      2  CB  ARG D 557     -26.789   1.319 -17.183  1.00 35.49     0.034 C 
BRANCH   2   3
ATOM      3  CG  ARG D 557     -25.835   0.204 -17.166  1.00 35.49     0.027 C 
BRANCH   3   4
ATOM      4  CD  ARG D 557     -24.749   0.405 -16.179  1.00 35.49     0.116 C 
BRANCH   4   5
ATOM      5  NE  ARG D 557     -24.900  -0.442 -15.026  1.00 35.49    -0.212 N 
ATOM      6  CZ  ARG D 557     -24.088  -1.414 -14.675  1.00 35.49     0.666 C 
ATOM      7  NH1 ARG D 557     -23.019  -1.734 -15.380  1.00 35.49    -0.235 N 
ATOM      8  NH2 ARG D 557     -24.369  -2.066 -13.584  1.00 35.49    -0.235 N 
ATOM      9  HH  ARG D 557     -22.814  -1.317 -16.100  1.00 35.49     0.174 HD
ATOM     10  HH  ARG D 557     -22.524  -2.376 -15.101  1.00 35.49     0.174 HD
ATOM     11  HH  ARG D 557     -25.062  -1.833 -13.145  1.00 35.49     0.174 HD
ATOM     12  HH  ARG D 557     -23.866  -2.698 -13.324  1.00 35.49     0.174 HD
ATOM     13  HE  ARG D 557     -25.602  -0.353 -14.554  1.00 35.49     0.178 HD
ENDBRANCH   4   5
ENDBRANCH   3   4
ENDBRANCH   2   3
ENDBRANCH   1   2
END_RES ARG D 557
BEGIN_RES GLU D 570
REMARK  3 active torsions:
REMARK  status: ('A' for Active; 'I' for Inactive)
REMARK    5  A    between atoms: CA   and  CB  
REMARK    6  A    between atoms: CB   and  CG  
REMARK    7  A    between atoms: CG   and  CD  
ROOT
ATOM     14  CA  GLU D 570     -18.033  -6.348 -13.375  1.00 32.92     0.160 C 
ENDROOT
BRANCH  14  15
ATOM     15  CB  GLU D 570     -19.500  -6.345 -13.794  1.00 32.92     0.043 C 
BRANCH  15  16
ATOM     16  CG  GLU D 570     -20.441  -5.526 -12.987  1.00 32.92     0.100 C 
BRANCH  16  17
ATOM     17  CD  GLU D 570     -21.749  -5.261 -13.695  1.00 32.92     0.185 C 
ATOM     18  OE1 GLU D 570     -22.227  -6.143 -14.434  1.00 32.92    -0.647 OA
ATOM     19  OE2 GLU D 570     -22.293  -4.153 -13.523  1.00 32.92    -0.647 OA
ENDBRANCH  16  17
ENDBRANCH  15  16
ENDBRANCH  14  15
END_RES GLU D 570
ENDMDL
MODEL 4
REMARK VINA RESULT:      -3.9      2.411      2.707
REMARK  3 active torsions:
REMARK  status: ('A' for Active; 'I' for Inactive)
REMARK    1  A    between atoms: CA_2  and  C_3 
REMARK    2  A    between atoms: CA_2  and  N_6 
REMARK    3  A    between atoms: C_3  and  OXT_5 
ROOT
ATOM      1  CB  ALA A   1     -22.213  -4.326  -9.791  1.00  0.00     0.054 C 
ATOM      2  CA  ALA A   1     -23.338  -3.482  -9.206  1.00  0.00     0.310 C 
ENDROOT
BRANCH   2   3
ATOM      3  C   ALA A   1     -24.500  -3.331 -10.205  1.00  0.00     0.173 C 
ATOM      4  O   ALA A   1     -25.675  -3.215  -9.879  1.00  0.00    -0.648 OA
BRANCH   3   5
ATOM      5  OXT ALA A   1     -24.112  -3.295 -11.499  1.00  0.00    -0.775 OA
ATOM      6  HXT ALA A   1     -23.488  -2.575 -11.714  1.00  0.00     0.167 HD
ENDBRANCH   3   5
ENDBRANCH   2   3
BRANCH   2   7
ATOM      7  N   ALA A   1     -23.814  -4.121  -7.960  1.00  0.00     0.092 N 
ATOM      8  H1  ALA A   1     -23.271  -4.977  -7.814  1.00  0.00     0.313 HD
ATOM      9  H2  ALA A   1     -24.760  -4.474  -8.129  1.00  0.00     0.313 HD
ENDBRANCH   2   7
TORSDOF 3
BEGIN_RES ARG D 557
REMARK  4 active torsions:
REMARK  status: ('A' for Active; 'I' for Inactive)
REMARK    1  A    between atoms: CA   and  CB  
REMARK    2  A    between atoms: CB   and  CG  
REMARK    3  A    between atoms: CG   and  CD  
REMARK    4  A    between atoms: CD   and  NE  
REMARK       I    between atoms: NE   and  CZ  
REMARK       I    between atoms: CZ   and  NH1 
REMARK       I    between atoms: CZ   and  NH2 
ROOT
ATOM      1  CA  ARG D 557     -26.217   2.705 -17.014  1.00 35.49     0.159 C 
ENDROOT
BRANCH   1   2
ATOM      2  CB  ARG D 557     -26.789   1.319 -17.183  1.00 35.49     0.034 C 
BRANCH   2   3
ATOM      3  CG  ARG D 557     -28.155   1.103 -16.691  1.00 35.49     0.027 C 
BRANCH   3   4
ATOM      4  CD  ARG D 557     -28.788  -0.093 -17.290  1.00 35.49     0.116 C 
BRANCH   4   5
ATOM      5  NE  ARG D 557     -28.170  -1.314 -16.845  1.00 35.49    -0.212 N 
ATOM      6  CZ  ARG D 557     -28.644  -2.526 -17.027  1.00 35.49     0.666 C 
ATOM      7  NH1 ARG D 557     -29.787  -2.755 -17.647  1.00 35.49    -0.235 N 
ATOM      8  NH2 ARG D 557     -27.938  -3.522 -16.574  1.00 35.49    -0.235 N 
ATOM      9  HH  ARG D 557     -30.267  -2.115 -17.955  1.00 35.49     0.174 HD
ATOM     10  HH  ARG D 557     -30.045  -3.567 -17.739  1.00 35.49     0.174 HD
ATOM     11  HH  ARG D 557     -27.201  -3.344 -16.185  1.00 35.49     0.174 HD
ATOM     12  HH  ARG D 557     -28.210  -4.318 -16.676  1.00 35.49     0.174 HD
ATOM     13  HE  ARG D 557     -27.465  -1.256 -16.372  1.00 35.49     0.178 HD
ENDBRANCH   4   5
ENDBRANCH   3   4
ENDBRANCH   2   3
ENDBRANCH   1   2
END_RES ARG D 557
BEGIN_RES GLU D 570
REMARK  3 active torsions:
REMARK  status: ('A' for Active; 'I' for Inactive)
REMARK    5  A    between atoms: CA   and  CB  
REMARK    6  A    between atoms: CB   and  CG  
REMARK    7  A    between atoms: CG   and  CD  
ROOT
ATOM     14  CA  GLU D 570     -18.033  -6.348 -13.375  1.00 32.92     0.160 C 
ENDROOT
BRANCH  14  15
ATOM     15  CB  GLU D 570     -19.500  -6.345 -13.794  1.00 32.92     0.043 C 
BRANCH  15  16
ATOM     16  CG  GLU D 570     -20.434  -5.495 -13.011  1.00 32.92     0.100 C 
BRANCH  16  17
ATOM     17  CD  GLU D 570     -21.701  -5.163 -13.764  1.00 32.92     0.185 C 
ATOM     18  OE1 GLU D 570     -21.623  -4.822 -14.960  1.00 32.92    -0.647 OA
ATOM     19  OE2 GLU D 570     -22.782  -5.230 -13.147  1.00 32.92    -0.647 OA
ENDBRANCH  16  17
ENDBRANCH  15  16
ENDBRANCH  14  15
END_RES GLU D 570
ENDMDL
MODEL 5
REMARK VINA RESULT:      -3.9      5.636      6.680
REMARK  3 active torsions:
REMARK  status: ('A' for Active; 'I' for Inactive)
REMARK    1  A    between atoms: CA_2  and  C_3 
REMARK    2  A    between atoms: CA_2  and  N_6 
REMARK    3  A    between atoms: C_3  and  OXT_5 
ROOT
ATOM      1  CB  ALA A   1     -32.953  -3.777 -11.611  1.00  0.00     0.054 C 
ATOM      2  CA  ALA A   1     -34.183  -3.566 -12.484  1.00  0.00     0.310 C 
ENDROOT
BRANCH   2   3
ATOM      3  C   ALA A   1     -34.592  -2.081 -12.523  1.00  0.00     0.173 C 
ATOM      4  O   ALA A   1     -34.441  -1.303 -11.589  1.00  0.00    -0.648 OA
BRANCH   3   5
ATOM      5  OXT ALA A   1     -35.106  -1.684 -13.708  1.00  0.00    -0.775 OA
ATOM      6  HXT ALA A   1     -34.863  -2.250 -14.465  1.00  0.00     0.167 HD
ENDBRANCH   3   5
ENDBRANCH   2   3
BRANCH   2   7
ATOM      7  N   ALA A   1     -33.888  -4.052 -13.848  1.00  0.00     0.092 N 
ATOM      8  H1  ALA A   1     -34.753  -4.426 -14.247  1.00  0.00     0.313 HD
ATOM      9  H2  ALA A   1     -33.294  -4.882 -13.765  1.00  0.00     0.313 HD
ENDBRANCH   2   7
TORSDOF 3
BEGIN_RES ARG D 557
REMARK  4 active torsions:
REMARK  status: ('A' for Active; 'I' for Inactive)
REMARK    1  A    between atoms: CA   and  CB  
REMARK    2  A    between atoms: CB   and  CG  
REMARK    3  A    between atoms: CG   and  CD  
REMARK    4  A    between atoms: CD   and  NE  
REMARK       I    between atoms: NE   and  CZ  
REMARK       I    between atoms: CZ   and  NH1 
REMARK       I    between atoms: CZ   and  NH2 
ROOT
ATOM      1  CA  ARG D 557     -26.217   2.705 -17.014  1.00 35.49     0.159 C 
ENDROOT
BRANCH   1   2
ATOM      2  CB  ARG D 557     -26.789   1.319 -17.183  1.00 35.49     0.034 C 
BRANCH   2   3
ATOM      3  CG  ARG D 557     -25.834   0.204 -17.168  1.00 35.49     0.027 C 
BRANCH   3   4
ATOM      4  CD  ARG D 557     -24.735   0.415 -16.198  1.00 35.49     0.116 C 
BRANCH   4   5
ATOM      5  NE  ARG D 557     -24.872  -0.421 -15.034  1.00 35.49    -0.212 N 
ATOM      6  CZ  ARG D 557     -24.055  -1.388 -14.683  1.00 35.49     0.666 C 
ATOM      7  NH1 ARG D 557     -22.993  -1.713 -15.397  1.00 35.49    -0.235 N 
ATOM      8  NH2 ARG D 557     -24.322  -2.030 -13.583  1.00 35.49    -0.235 N 
ATOM      9  HH  ARG D 557     -22.797  -1.303 -16.123  1.00 35.49     0.174 HD
ATOM     10  HH  ARG D 557     -22.494  -2.352 -15.117  1.00 35.49     0.174 HD
ATOM     11  HH  ARG D 557     -25.010  -1.793 -13.138  1.00 35.49     0.174 HD
ATOM     12  HH  ARG D 557     -23.815  -2.657 -13.321  1.00 35.49     0.174 HD
ATOM     13  HE  ARG D 557     -25.569  -0.328 -14.556  1.00 35.49     0.178 HD
ENDBRANCH   4   5
ENDBRANCH   3   4
ENDBRANCH   2   3
ENDBRANCH   1   2
END_RES ARG D 557
BEGIN_RES GLU D 570
REMARK  3 active torsions:
REMARK  status: ('A' for Active; 'I' for Inactive)
REMARK    5  A    between atoms: CA   and  CB  
REMARK    6  A    between atoms: CB   and  CG  
REMARK    7  A    between atoms: CG   and  CD  
ROOT
ATOM     14  CA  GLU D 570     -18.033  -6.348 -13.375  1.00 32.92     0.160 C 
ENDROOT
BRANCH  14  15
ATOM     15  CB  GLU D 570     -19.500  -6.345 -13.794  1.00 32.92     0.043 C 
BRANCH  15  16
ATOM     16  CG  GLU D 570     -20.441  -5.528 -12.986  1.00 32.92     0.100 C 
BRANCH  16  17
ATOM     17  CD  GLU D 570     -21.742  -5.247 -13.701  1.00 32.92     0.185 C 
ATOM     18  OE1 GLU D 570     -22.288  -4.137 -13.550  1.00 32.92    -0.647 OA
ATOM     19  OE2 GLU D 570     -22.229  -6.152 -14.407  1.00 32.92    -0.647 OA
ENDBRANCH  16  17
ENDBRANCH  15  16
ENDBRANCH  14  15
END_RES GLU D 570
ENDMDL
MODEL 6
REMARK VINA RESULT:      -3.8      6.683      8.535
REMARK  3 active torsions:
REMARK  status: ('A' for Active; 'I' for Inactive)
REMARK    1  A    between atoms: CA_2  and  C_3 
REMARK    2  A    between atoms: CA_2  and  N_6 
REMARK    3  A    between atoms: C_3  and  OXT_5 
ROOT
ATOM      1  CB  ALA A   1     -35.241   0.656 -14.139  1.00  0.00     0.054 C 
ATOM      2  CA  ALA A   1     -35.473   0.712 -15.643  1.00  0.00     0.310 C 
ENDROOT
BRANCH   2   3
ATOM      3  C   ALA A   1     -35.745  -0.690 -16.220  1.00  0.00     0.173 C 
ATOM      4  O   ALA A   1     -35.294  -1.725 -15.747  1.00  0.00    -0.648 OA
BRANCH   3   5
ATOM      5  OXT ALA A   1     -36.573  -0.694 -17.289  1.00  0.00    -0.775 OA
ATOM      6  HXT ALA A   1     -36.381  -1.390 -17.946  1.00  0.00     0.167 HD
ENDBRANCH   3   5
ENDBRANCH   2   3
BRANCH   2   7
ATOM      7  N   ALA A   1     -36.617   1.609 -15.915  1.00  0.00     0.092 N 
ATOM      8  H1  ALA A   1     -36.274   2.574 -15.904  1.00  0.00     0.313 HD
ATOM      9  H2  ALA A   1     -37.241   1.576 -15.104  1.00  0.00     0.313 HD
ENDBRANCH   2   7
TORSDOF 3
BEGIN_RES ARG D 557
REMARK  4 active torsions:
REMARK  status: ('A' for Active; 'I' for Inactive)
REMARK    1  A    between atoms: CA   and  CB  
REMARK    2  A    between atoms: CB   and  CG  
REMARK    3  A    between atoms: CG   and  CD  
REMARK    4  A    between atoms: CD   and  NE  
REMARK       I    between atoms: NE   and  CZ  
REMARK       I    between atoms: CZ   and  NH1 
REMARK       I    between atoms: CZ   and  NH2 
ROOT
ATOM      1  CA  ARG D 557     -26.217   2.705 -17.014  1.00 35.49     0.159 C 
ENDROOT
BRANCH   1   2
ATOM      2  CB  ARG D 557     -26.789   1.319 -17.183  1.00 35.49     0.034 C 
BRANCH   2   3
ATOM      3  CG  ARG D 557     -25.867   0.195 -16.982  1.00 35.49     0.027 C 
BRANCH   3   4
ATOM      4  CD  ARG D 557     -26.315  -0.718 -15.906  1.00 35.49     0.116 C 
BRANCH   4   5
ATOM      5  NE  ARG D 557     -25.284  -0.953 -14.930  1.00 35.49    -0.212 N 
ATOM      6  CZ  ARG D 557     -25.018  -2.105 -14.356  1.00 35.49     0.666 C 
ATOM      7  NH1 ARG D 557     -25.706  -3.202 -14.615  1.00 35.49    -0.235 N 
ATOM      8  NH2 ARG D 557     -24.031  -2.140 -13.508  1.00 35.49    -0.235 N 
ATOM      9  HH  ARG D 557     -26.358  -3.203 -15.171  1.00 35.49     0.174 HD
ATOM     10  HH  ARG D 557     -25.485  -3.925 -14.212  1.00 35.49     0.174 HD
ATOM     11  HH  ARG D 557     -23.600  -1.418 -13.366  1.00 35.49     0.174 HD
ATOM     12  HH  ARG D 557     -23.827  -2.866 -13.120  1.00 35.49     0.174 HD
ATOM     13  HE  ARG D 557     -24.839  -0.285 -14.650  1.00 35.49     0.178 HD
ENDBRANCH   4   5
ENDBRANCH   3   4
ENDBRANCH   2   3
ENDBRANCH   1   2
END_RES ARG D 557
BEGIN_RES GLU D 570
REMARK  3 active torsions:
REMARK  status: ('A' for Active; 'I' for Inactive)
REMARK    5  A    between atoms: CA   and  CB  
REMARK    6  A    between atoms: CB   and  CG  
REMARK    7  A    between atoms: CG   and  CD  
ROOT
ATOM     14  CA  GLU D 570     -18.033  -6.348 -13.375  1.00 32.92     0.160 C 
ENDROOT
BRANCH  14  15
ATOM     15  CB  GLU D 570     -19.500  -6.345 -13.794  1.00 32.92     0.043 C 
BRANCH  15  16
ATOM     16  CG  GLU D 570     -20.451  -5.576 -12.951  1.00 32.92     0.100 C 
BRANCH  16  17
ATOM     17  CD  GLU D 570     -21.677  -5.123 -13.708  1.00 32.92     0.185 C 
ATOM     18  OE1 GLU D 570     -21.616  -5.011 -14.948  1.00 32.92    -0.647 OA
ATOM     19  OE2 GLU D 570     -22.706  -4.862 -13.054  1.00 32.92    -0.647 OA
ENDBRANCH  16  17
ENDBRANCH  15  16
ENDBRANCH  14  15
END_RES GLU D 570
ENDMDL
MODEL 7
REMARK VINA RESULT:      -3.8      8.443     10.117
REMARK  3 active torsions:
REMARK  status: ('A' for Active; 'I' for Inactive)
REMARK    1  A    between atoms: CA_2  and  C_3 
REMARK    2  A    between atoms: CA_2  and  N_6 
REMARK    3  A    between atoms: C_3  and  OXT_5 
ROOT
ATOM      1  CB  ALA A   1     -29.696 -16.258 -20.857  1.00  0.00     0.054 C 
ATOM      2  CA  ALA A   1     -29.966 -14.759 -20.874  1.00  0.00     0.310 C 
ENDROOT
BRANCH   2   3
ATOM      3  C   ALA A   1     -30.020 -14.186 -19.445  1.00  0.00     0.173 C 
ATOM      4  O   ALA A   1     -29.380 -13.211 -19.073  1.00  0.00    -0.648 OA
BRANCH   3   5
ATOM      5  OXT ALA A   1     -30.880 -14.831 -18.625  1.00  0.00    -0.775 OA
ATOM      6  HXT ALA A   1     -31.301 -14.263 -17.953  1.00  0.00     0.167 HD
ENDBRANCH   3   5
ENDBRANCH   2   3
BRANCH   2   7
ATOM      7  N   ALA A   1     -28.903 -14.092 -21.654  1.00  0.00     0.092 N 
ATOM      8  H1  ALA A   1     -28.371 -14.814 -22.148  1.00  0.00     0.313 HD
ATOM      9  H2  ALA A   1     -28.218 -13.714 -20.993  1.00  0.00     0.313 HD
ENDBRANCH   2   7
TORSDOF 3
BEGIN_RES ARG D 557
REMARK  4 active torsions:
REMARK  status: ('A' for Active; 'I' for Inactive)
REMARK    1  A    between atoms: CA   and  CB  
REMARK    2  A    between atoms: CB   and  CG  
REMARK    3  A    between atoms: CG   and  CD  
REMARK    4  A    between atoms: CD   and  NE  
REMARK       I    between atoms: NE   and  CZ  
REMARK       I    between atoms: CZ   and  NH1 
REMARK       I    between atoms: CZ   and  NH2 
ROOT
ATOM      1  CA  ARG D 557     -26.217   2.705 -17.014  1.00 35.49     0.159 C 
ENDROOT
BRANCH   1   2
ATOM      2  CB  ARG D 557     -26.789   1.319 -17.183  1.00 35.49     0.034 C 
BRANCH   2   3
ATOM      3  CG  ARG D 557     -28.224   1.160 -16.919  1.00 35.49     0.027 C 
BRANCH   3   4
ATOM      4  CD  ARG D 557     -28.606  -0.256 -16.711  1.00 35.49     0.116 C 
BRANCH   4   5
ATOM      5  NE  ARG D 557     -27.595  -0.992 -15.999  1.00 35.49    -0.212 N 
ATOM      6  CZ  ARG D 557     -27.401  -2.290 -16.063  1.00 35.49     0.666 C 
ATOM      7  NH1 ARG D 557     -28.151  -3.083 -16.806  1.00 35.49    -0.235 N 
ATOM      8  NH2 ARG D 557     -26.422  -2.786 -15.364  1.00 35.49    -0.235 N 
ATOM      9  HH  ARG D 557     -28.800  -2.778 -17.275  1.00 35.49     0.174 HD
ATOM     10  HH  ARG D 557     -27.976  -3.922 -16.810  1.00 35.49     0.174 HD
ATOM     11  HH  ARG D 557     -25.949  -2.249 -14.900  1.00 35.49     0.174 HD
ATOM     12  HH  ARG D 557     -26.263  -3.619 -15.383  1.00 35.49     0.174 HD
ATOM     13  HE  ARG D 557     -27.113  -0.569 -15.441  1.00 35.49     0.178 HD
ENDBRANCH   4   5
ENDBRANCH   3   4
ENDBRANCH   2   3
ENDBRANCH   1   2
END_RES ARG D 557
BEGIN_RES GLU D 570
REMARK  3 active torsions:
REMARK  status: ('A' for Active; 'I' for Inactive)
REMARK    5  A    between atoms: CA   and  CB  
REMARK    6  A    between atoms: CB   and  CG  
REMARK    7  A    between atoms: CG   and  CD  
ROOT
ATOM     14  CA  GLU D 570     -18.033  -6.348 -13.375  1.00 32.92     0.160 C 
ENDROOT
BRANCH  14  15
ATOM     15  CB  GLU D 570     -19.500  -6.345 -13.794  1.00 32.92     0.043 C 
BRANCH  15  16
ATOM     16  CG  GLU D 570     -20.443  -5.534 -12.980  1.00 32.92     0.100 C 
BRANCH  16  17
ATOM     17  CD  GLU D 570     -21.732  -5.226 -13.705  1.00 32.92     0.185 C 
ATOM     18  OE1 GLU D 570     -22.388  -4.220 -13.372  1.00 32.92    -0.647 OA
ATOM     19  OE2 GLU D 570     -22.098  -6.008 -14.605  1.00 32.92    -0.647 OA
ENDBRANCH  16  17
ENDBRANCH  15  16
ENDBRANCH  14  15
END_RES GLU D 570
ENDMDL
MODEL 8
REMARK VINA RESULT:      -3.7      2.069      2.442
REMARK  3 active torsions:
REMARK  status: ('A' for Active; 'I' for Inactive)
REMARK    1  A    between atoms: CA_2  and  C_3 
REMARK    2  A    between atoms: CA_2  and  N_6 
REMARK    3  A    between atoms: C_3  and  OXT_5 
ROOT
ATOM      1  CB  ALA A   1     -22.772  -4.128  -9.983  1.00  0.00     0.054 C 
ATOM      2  CA  ALA A   1     -24.006  -3.306 -10.329  1.00  0.00     0.310 C 
ENDROOT
BRANCH   2   3
ATOM      3  C   ALA A   1     -24.164  -3.149 -11.853  1.00  0.00     0.173 C 
ATOM      4  O   ALA A   1     -25.231  -2.929 -12.413  1.00  0.00    -0.648 OA
BRANCH   3   5
ATOM      5  OXT ALA A   1     -23.002  -3.234 -12.538  1.00  0.00    -0.775 OA
ATOM      6  HXT ALA A   1     -22.871  -2.532 -13.203  1.00  0.00     0.167 HD
ENDBRANCH   3   5
ENDBRANCH   2   3
BRANCH   2   7
ATOM      7  N   ALA A   1     -25.196  -3.970  -9.756  1.00  0.00     0.092 N 
ATOM      8  H1  ALA A   1     -25.383  -4.815 -10.304  1.00  0.00     0.313 HD
ATOM      9  H2  ALA A   1     -26.011  -3.381  -9.954  1.00  0.00     0.313 HD
ENDBRANCH   2   7
TORSDOF 3
BEGIN_RES ARG D 557
REMARK  4 active torsions:
REMARK  status: ('A' for Active; 'I' for Inactive)
REMARK    1  A    between atoms: CA   and  CB  
REMARK    2  A    between atoms: CB   and  CG  
REMARK    3  A    between atoms: CG   and  CD  
REMARK    4  A    between atoms: CD   and  NE  
REMARK       I    between atoms: NE   and  CZ  
REMARK       I    between atoms: CZ   and  NH1 
REMARK       I    between atoms: CZ   and  NH2 
ROOT
ATOM      1  CA  ARG D 557     -26.217   2.705 -17.014  1.00 35.49     0.159 C 
ENDROOT
BRANCH   1   2
ATOM      2  CB  ARG D 557     -26.789   1.319 -17.183  1.00 35.49     0.034 C 
BRANCH   2   3
ATOM      3  CG  ARG D 557     -28.210   1.147 -16.858  1.00 35.49     0.027 C 
BRANCH   3   4
ATOM      4  CD  ARG D 557     -28.567  -0.271 -16.620  1.00 35.49     0.116 C 
BRANCH   4   5
ATOM      5  NE  ARG D 557     -27.538  -0.975 -15.900  1.00 35.49    -0.212 N 
ATOM      6  CZ  ARG D 557     -27.298  -2.265 -15.970  1.00 35.49     0.666 C 
ATOM      7  NH1 ARG D 557     -28.011  -3.080 -16.726  1.00 35.49    -0.235 N 
ATOM      8  NH2 ARG D 557     -26.310  -2.731 -15.263  1.00 35.49    -0.235 N 
ATOM      9  HH  ARG D 557     -28.664  -2.794 -17.202  1.00 35.49     0.174 HD
ATOM     10  HH  ARG D 557     -27.806  -3.912 -16.734  1.00 35.49     0.174 HD
ATOM     11  HH  ARG D 557     -25.862  -2.181 -14.790  1.00 35.49     0.174 HD
ATOM     12  HH  ARG D 557     -26.122  -3.558 -15.285  1.00 35.49     0.174 HD
ATOM     13  HE  ARG D 557     -27.078  -0.539 -15.333  1.00 35.49     0.178 HD
ENDBRANCH   4   5
ENDBRANCH   3   4
ENDBRANCH   2   3
ENDBRANCH   1   2
END_RES ARG D 557
BEGIN_RES GLU D 570
REMARK  3 active torsions:
REMARK  status: ('A' for Active; 'I' for Inactive)
REMARK    5  A    between atoms: CA   and  CB  
REMARK    6  A    between atoms: CB   and  CG  
REMARK    7  A    between atoms: CG   and  CD  
ROOT
ATOM     14  CA  GLU D 570     -18.033  -6.348 -13.375  1.00 32.92     0.160 C 
ENDROOT
BRANCH  14  15
ATOM     15  CB  GLU D 570     -19.500  -6.345 -13.794  1.00 32.92     0.043 C 
BRANCH  15  16
ATOM     16  CG  GLU D 570     -19.801  -6.119 -15.231  1.00 32.92     0.100 C 
BRANCH  16  17
ATOM     17  CD  GLU D 570     -21.100  -5.380 -15.452  1.00 32.92     0.185 C 
ATOM     18  OE1 GLU D 570     -21.776  -5.036 -14.464  1.00 32.92    -0.647 OA
ATOM     19  OE2 GLU D 570     -21.455  -5.158 -16.627  1.00 32.92    -0.647 OA
ENDBRANCH  16  17
ENDBRANCH  15  16
ENDBRANCH  14  15
END_RES GLU D 570
ENDMDL
MODEL 9
REMARK VINA RESULT:      -3.7      2.043      2.410
REMARK  3 active torsions:
REMARK  status: ('A' for Active; 'I' for Inactive)
REMARK    1  A    between atoms: CA_2  and  C_3 
REMARK    2  A    between atoms: CA_2  and  N_6 
REMARK    3  A    between atoms: C_3  and  OXT_5 
ROOT
ATOM      1  CB  ALA A   1     -22.063  -3.913  -9.890  1.00  0.00     0.054 C 
ATOM      2  CA  ALA A   1     -22.975  -4.372  -8.760  1.00  0.00     0.310 C 
ENDROOT
BRANCH   2   3
ATOM      3  C   ALA A   1     -22.266  -4.272  -7.396  1.00  0.00     0.173 C 
ATOM      4  O   ALA A   1     -22.216  -5.184  -6.580  1.00  0.00    -0.648 OA
BRANCH   3   5
ATOM      5  OXT ALA A   1     -21.656  -3.086  -7.179  1.00  0.00    -0.775 OA
ATOM      6  HXT ALA A   1     -20.749  -3.026  -7.536  1.00  0.00     0.167 HD
ENDBRANCH   3   5
ENDBRANCH   2   3
BRANCH   2   7
ATOM      7  N   ALA A   1     -24.196  -3.540  -8.765  1.00  0.00     0.092 N 
ATOM      8  H1  ALA A   1     -23.926  -2.577  -8.546  1.00  0.00     0.313 HD
ATOM      9  H2  ALA A   1     -24.764  -3.810  -7.956  1.00  0.00     0.313 HD
ENDBRANCH   2   7
TORSDOF 3
BEGIN_RES ARG D 557
REMARK  4 active torsions:
REMARK  status: ('A' for Active; 'I' for Inactive)
REMARK    1  A    between atoms: CA   and  CB  
REMARK    2  A    between atoms: CB   and  CG  
REMARK    3  A    between atoms: CG   and  CD  
REMARK    4  A    between atoms: CD   and  NE  
REMARK       I    between atoms: NE   and  CZ  
REMARK       I    between atoms: CZ   and  NH1 
REMARK       I    between atoms: CZ   and  NH2 
ROOT
ATOM      1  CA  ARG D 557     -26.217   2.705 -17.014  1.00 35.49     0.159 C 
ENDROOT
BRANCH   1   2
ATOM      2  CB  ARG D 557     -26.789   1.319 -17.183  1.00 35.49     0.034 C 
BRANCH   2   3
ATOM      3  CG  ARG D 557     -25.836   0.203 -17.156  1.00 35.49     0.027 C 
BRANCH   3   4
ATOM      4  CD  ARG D 557     -24.751   0.411 -16.170  1.00 35.49     0.116 C 
BRANCH   4   5
ATOM      5  NE  ARG D 557     -24.897  -0.437 -15.017  1.00 35.49    -0.212 N 
ATOM      6  CZ  ARG D 557     -24.081  -1.408 -14.669  1.00 35.49     0.666 C 
ATOM      7  NH1 ARG D 557     -23.013  -1.724 -15.377  1.00 35.49    -0.235 N 
ATOM      8  NH2 ARG D 557     -24.357  -2.061 -13.578  1.00 35.49    -0.235 N 
ATOM      9  HH  ARG D 557     -22.811  -1.306 -16.097  1.00 35.49     0.174 HD
ATOM     10  HH  ARG D 557     -22.516  -2.365 -15.100  1.00 35.49     0.174 HD
ATOM     11  HH  ARG D 557     -25.050  -1.830 -13.137  1.00 35.49     0.174 HD
ATOM     12  HH  ARG D 557     -23.852  -2.691 -13.319  1.00 35.49     0.174 HD
ATOM     13  HE  ARG D 557     -25.598  -0.351 -14.543  1.00 35.49     0.178 HD
ENDBRANCH   4   5
ENDBRANCH   3   4
ENDBRANCH   2   3
ENDBRANCH   1   2
END_RES ARG D 557
BEGIN_RES GLU D 570
REMARK  3 active torsions:
REMARK  status: ('A' for Active; 'I' for Inactive)
REMARK    5  A    between atoms: CA   and  CB  
REMARK    6  A    between atoms: CB   and  CG  
REMARK    7  A    between atoms: CG   and  CD  
ROOT
ATOM     14  CA  GLU D 570     -18.033  -6.348 -13.375  1.00 32.92     0.160 C 
ENDROOT
BRANCH  14  15
ATOM     15  CB  GLU D 570     -19.500  -6.345 -13.794  1.00 32.92     0.043 C 
BRANCH  15  16
ATOM     16  CG  GLU D 570     -20.442  -5.532 -12.983  1.00 32.92     0.100 C 
BRANCH  16  17
ATOM     17  CD  GLU D 570     -21.739  -5.240 -13.701  1.00 32.92     0.185 C 
ATOM     18  OE1 GLU D 570     -22.307  -4.149 -13.505  1.00 32.92    -0.647 OA
ATOM     19  OE2 GLU D 570     -22.200  -6.120 -14.455  1.00 32.92    -0.647 OA
ENDBRANCH  16  17
ENDBRANCH  15  16
ENDBRANCH  14  15
END_RES GLU D 570
ENDMDL
