MODEL 1
REMARK VINA RESULT:      -8.3      0.000      0.000
REMARK  16 active torsions:
REMARK  status: ('A' for Active; 'I' for Inactive)
REMARK    1  A    between atoms: C_2  and  C_3 
REMARK    2  A    between atoms: C_3  and  C_4 
REMARK    3  A    between atoms: C_4  and  C_5 
REMARK    4  A    between atoms: C_5  and  C_6 
REMARK    5  A    between atoms: C_6  and  C_7 
REMARK    6  A    between atoms: C_7  and  C_8 
REMARK    7  A    between atoms: C_8  and  C_9 
REMARK    8  A    between atoms: C_9  and  C_10 
REMARK    9  A    between atoms: C_10  and  C_11 
REMARK   10  A    between atoms: C_11  and  C_12 
REMARK   11  A    between atoms: C_12  and  C_13 
REMARK   12  A    between atoms: C_13  and  C_14 
REMARK   13  A    between atoms: C_14  and  C_15 
REMARK   14  A    between atoms: C_15  and  C_16 
REMARK   15  A    between atoms: C_16  and  C_18 
REMARK   16  A    between atoms: C_19  and  O_30 
ROOT
HETATM    1  C   UNL     1     -20.743  -5.611  -5.254  1.00  0.00     0.162 C 
HETATM    2  O   UNL     1     -20.123  -4.595  -5.006  1.00  0.00    -0.292 OA
ENDROOT
BRANCH   1   3
HETATM    3  C   UNL     1     -21.465  -5.801  -6.592  1.00  0.00     0.084 C 
BRANCH   3   4
HETATM    4  C   UNL     1     -20.560  -5.607  -7.801  1.00  0.00     0.008 C 
BRANCH   4   5
HETATM    5  C   UNL     1     -20.650  -4.181  -8.312  1.00  0.00     0.000 C 
BRANCH   5   6
HETATM    6  C   UNL     1     -21.367  -4.137  -9.648  1.00  0.00     0.000 C 
BRANCH   6   7
HETATM    7  C   UNL     1     -22.806  -3.681  -9.463  1.00  0.00     0.000 C 
BRANCH   7   8
HETATM    8  C   UNL     1     -23.500  -3.587 -10.813  1.00  0.00     0.000 C 
BRANCH   8   9
HETATM    9  C   UNL     1     -22.685  -4.298 -11.882  1.00  0.00     0.000 C 
BRANCH   9  10
HETATM   10  C   UNL     1     -22.541  -3.411 -13.109  1.00  0.00     0.000 C 
BRANCH  10  11
HETATM   11  C   UNL     1     -22.755  -4.224 -14.377  1.00  0.00     0.000 C 
BRANCH  11  12
HETATM   12  C   UNL     1     -24.100  -4.935 -14.331  1.00  0.00     0.000 C 
BRANCH  12  13
HETATM   13  C   UNL     1     -23.948  -6.390 -14.748  1.00  0.00     0.000 C 
BRANCH  13  14
HETATM   14  C   UNL     1     -24.984  -6.756 -15.803  1.00  0.00     0.000 C 
BRANCH  14  15
HETATM   15  C   UNL     1     -26.118  -5.738 -15.815  1.00  0.00    -0.000 C 
BRANCH  15  16
HETATM   16  C   UNL     1     -27.155  -6.087 -16.877  1.00  0.00    -0.005 C 
HETATM   17  C   UNL     1     -28.409  -6.660 -16.241  1.00  0.00     0.005 C 
ENDBRANCH  15  16
ENDBRANCH  14  15
ENDBRANCH  13  14
ENDBRANCH  12  13
ENDBRANCH  11  12
ENDBRANCH  10  11
ENDBRANCH   9  10
ENDBRANCH   8   9
ENDBRANCH   7   8
ENDBRANCH   6   7
ENDBRANCH   5   6
ENDBRANCH   4   5
ENDBRANCH   3   4
ENDBRANCH   1   3
BRANCH   1  18
HETATM   18  C   UNL     1     -20.818  -6.719  -4.253  1.00  0.00     0.044 A 
HETATM   19  C   UNL     1     -20.190  -7.961  -4.450  1.00  0.00     0.084 A 
HETATM   20  C   UNL     1     -20.274  -8.912  -3.435  1.00  0.00     0.075 A 
HETATM   21  C   UNL     1     -20.953  -8.644  -2.250  1.00  0.00     0.079 A 
HETATM   22  C   UNL     1     -21.567  -7.411  -2.042  1.00  0.00    -0.024 A 
HETATM   23  O   UNL     1     -20.924  -9.651  -1.329  1.00  0.00    -0.340 OA
HETATM   24  C   UNL     1     -21.511  -6.464  -3.059  1.00  0.00     0.028 A 
HETATM   25  C   UNL     1     -22.288  -7.109  -0.763  1.00  0.00     0.044 C 
HETATM   26  C   UNL     1     -21.823  -8.063   0.330  1.00  0.00     0.042 C 
HETATM   27  C   UNL     1     -21.769  -9.514  -0.176  1.00  0.00     0.061 C 
HETATM   28  C   UNL     1     -21.123 -10.403   0.897  1.00  0.00     0.046 C 
HETATM   29  C   UNL     1     -23.154 -10.081  -0.517  1.00  0.00     0.046 C 
BRANCH  19  30
HETATM   30  O   UNL     1     -19.486  -8.162  -5.607  1.00  0.00    -0.355 OA
HETATM   31  C   UNL     1     -18.558  -9.242  -5.649  1.00  0.00     0.210 C 
ENDBRANCH  19  30
ENDBRANCH   1  18
TORSDOF 16
BEGIN_RES ARG D 557
REMARK  4 active torsions:
REMARK  status: ('A' for Active; 'I' for Inactive)
REMARK    1  A    between atoms: CA   and  CB  
REMARK    2  A    between atoms: CB   and  CG  
REMARK    3  A    between atoms: CG   and  CD  
REMARK    4  A    between atoms: CD   and  NE  
REMARK       I    between atoms: NE   and  CZ  
REMARK       I    between atoms: CZ   and  NH1 
REMARK       I    between atoms: CZ   and  NH2 
ROOT
ATOM      1  CA  ARG D 557     -26.217   2.705 -17.014  1.00 35.49     0.159 C 
ENDROOT
BRANCH   1   2
ATOM      2  CB  ARG D 557     -26.789   1.319 -17.183  1.00 35.49     0.034 C 
BRANCH   2   3
ATOM      3  CG  ARG D 557     -28.229   1.227 -17.451  1.00 35.49     0.027 C 
BRANCH   3   4
ATOM      4  CD  ARG D 557     -28.921   0.313 -16.513  1.00 35.49     0.116 C 
BRANCH   4   5
ATOM      5  NE  ARG D 557     -29.280  -0.933 -17.136  1.00 35.49    -0.212 N 
ATOM      6  CZ  ARG D 557     -28.628  -2.068 -17.017  1.00 35.49     0.666 C 
ATOM      7  NH1 ARG D 557     -27.526  -2.181 -16.298  1.00 35.49    -0.235 N 
ATOM      8  NH2 ARG D 557     -29.111  -3.106 -17.637  1.00 35.49    -0.235 N 
ATOM      9  HH  ARG D 557     -27.192  -1.511 -15.881  1.00 35.49     0.174 HD
ATOM     10  HH  ARG D 557     -27.145  -2.947 -16.255  1.00 35.49     0.174 HD
ATOM     11  HH  ARG D 557     -29.828  -3.005 -18.087  1.00 35.49     0.174 HD
ATOM     12  HH  ARG D 557     -28.719  -3.856 -17.580  1.00 35.49     0.174 HD
ATOM     13  HE  ARG D 557     -29.937  -0.935 -17.676  1.00 35.49     0.178 HD
ENDBRANCH   4   5
ENDBRANCH   3   4
ENDBRANCH   2   3
ENDBRANCH   1   2
END_RES ARG D 557
BEGIN_RES GLU D 570
REMARK  3 active torsions:
REMARK  status: ('A' for Active; 'I' for Inactive)
REMARK    5  A    between atoms: CA   and  CB  
REMARK    6  A    between atoms: CB   and  CG  
REMARK    7  A    between atoms: CG   and  CD  
ROOT
ATOM     14  CA  GLU D 570     -18.033  -6.348 -13.375  1.00 32.92     0.160 C 
ENDROOT
BRANCH  14  15
ATOM     15  CB  GLU D 570     -19.500  -6.345 -13.794  1.00 32.92     0.043 C 
BRANCH  15  16
ATOM     16  CG  GLU D 570     -19.798  -6.201 -15.242  1.00 32.92     0.100 C 
BRANCH  16  17
ATOM     17  CD  GLU D 570     -20.601  -7.355 -15.796  1.00 32.92     0.185 C 
ATOM     18  OE1 GLU D 570     -21.278  -7.181 -16.828  1.00 32.92    -0.647 OA
ATOM     19  OE2 GLU D 570     -20.567  -8.439 -15.182  1.00 32.92    -0.647 OA
ENDBRANCH  16  17
ENDBRANCH  15  16
ENDBRANCH  14  15
END_RES GLU D 570
ENDMDL
MODEL 2
REMARK VINA RESULT:      -8.1      2.277      5.279
REMARK  16 active torsions:
REMARK  status: ('A' for Active; 'I' for Inactive)
REMARK    1  A    between atoms: C_2  and  C_3 
REMARK    2  A    between atoms: C_3  and  C_4 
REMARK    3  A    between atoms: C_4  and  C_5 
REMARK    4  A    between atoms: C_5  and  C_6 
REMARK    5  A    between atoms: C_6  and  C_7 
REMARK    6  A    between atoms: C_7  and  C_8 
REMARK    7  A    between atoms: C_8  and  C_9 
REMARK    8  A    between atoms: C_9  and  C_10 
REMARK    9  A    between atoms: C_10  and  C_11 
REMARK   10  A    between atoms: C_11  and  C_12 
REMARK   11  A    between atoms: C_12  and  C_13 
REMARK   12  A    between atoms: C_13  and  C_14 
REMARK   13  A    between atoms: C_14  and  C_15 
REMARK   14  A    between atoms: C_15  and  C_16 
REMARK   15  A    between atoms: C_16  and  C_18 
REMARK   16  A    between atoms: C_19  and  O_30 
ROOT
HETATM    1  C   UNL     1     -21.523  -8.885  -1.670  1.00  0.00     0.162 C 
HETATM    2  O   UNL     1     -22.467  -9.527  -1.252  1.00  0.00    -0.292 OA
ENDROOT
BRANCH   1   3
HETATM    3  C   UNL     1     -21.319  -7.417  -1.282  1.00  0.00     0.084 C 
BRANCH   3   4
HETATM    4  C   UNL     1     -22.123  -6.448  -2.138  1.00  0.00     0.008 C 
BRANCH   4   5
HETATM    5  C   UNL     1     -21.446  -6.232  -3.480  1.00  0.00     0.000 C 
BRANCH   5   6
HETATM    6  C   UNL     1     -22.360  -6.657  -4.614  1.00  0.00     0.000 C 
BRANCH   6   7
HETATM    7  C   UNL     1     -21.561  -7.353  -5.706  1.00  0.00     0.000 C 
BRANCH   7   8
HETATM    8  C   UNL     1     -20.088  -7.000  -5.577  1.00  0.00     0.000 C 
BRANCH   8   9
HETATM    9  C   UNL     1     -19.648  -6.114  -6.733  1.00  0.00     0.000 C 
BRANCH   9  10
HETATM   10  C   UNL     1     -19.850  -4.650  -6.378  1.00  0.00     0.000 C 
BRANCH  10  11
HETATM   11  C   UNL     1     -20.598  -3.933  -7.492  1.00  0.00     0.000 C 
BRANCH  11  12
HETATM   12  C   UNL     1     -20.614  -4.785  -8.752  1.00  0.00     0.000 C 
BRANCH  12  13
HETATM   13  C   UNL     1     -21.588  -4.210  -9.770  1.00  0.00     0.000 C 
BRANCH  13  14
HETATM   14  C   UNL     1     -20.898  -3.999 -11.113  1.00  0.00     0.000 C 
BRANCH  14  15
HETATM   15  C   UNL     1     -21.927  -3.892 -12.232  1.00  0.00    -0.000 C 
BRANCH  15  16
HETATM   16  C   UNL     1     -22.829  -2.679 -12.031  1.00  0.00    -0.005 C 
HETATM   17  C   UNL     1     -24.293  -3.069 -12.140  1.00  0.00     0.005 C 
ENDBRANCH  15  16
ENDBRANCH  14  15
ENDBRANCH  13  14
ENDBRANCH  12  13
ENDBRANCH  11  12
ENDBRANCH  10  11
ENDBRANCH   9  10
ENDBRANCH   8   9
ENDBRANCH   7   8
ENDBRANCH   6   7
ENDBRANCH   5   6
ENDBRANCH   4   5
ENDBRANCH   3   4
ENDBRANCH   1   3
BRANCH   1  18
HETATM   18  C   UNL     1     -20.519  -9.515  -2.582  1.00  0.00     0.044 A 
HETATM   19  C   UNL     1     -20.891 -10.279  -3.702  1.00  0.00     0.084 A 
HETATM   20  C   UNL     1     -19.882 -10.781  -4.523  1.00  0.00     0.075 A 
HETATM   21  C   UNL     1     -18.540 -10.531  -4.252  1.00  0.00     0.079 A 
HETATM   22  C   UNL     1     -18.165  -9.764  -3.150  1.00  0.00    -0.024 A 
HETATM   23  O   UNL     1     -17.662 -11.052  -5.156  1.00  0.00    -0.340 OA
HETATM   24  C   UNL     1     -19.163  -9.279  -2.311  1.00  0.00     0.028 A 
HETATM   25  C   UNL     1     -16.723  -9.478  -2.859  1.00  0.00     0.044 C 
HETATM   26  C   UNL     1     -15.890  -9.689  -4.117  1.00  0.00     0.042 C 
HETATM   27  C   UNL     1     -16.266 -11.001  -4.826  1.00  0.00     0.061 C 
HETATM   28  C   UNL     1     -15.536 -11.076  -6.175  1.00  0.00     0.046 C 
HETATM   29  C   UNL     1     -15.912 -12.248  -4.005  1.00  0.00     0.046 C 
BRANCH  19  30
HETATM   30  O   UNL     1     -22.223 -10.454  -3.963  1.00  0.00    -0.355 OA
HETATM   31  C   UNL     1     -22.700 -11.782  -4.158  1.00  0.00     0.210 C 
ENDBRANCH  19  30
ENDBRANCH   1  18
TORSDOF 16
BEGIN_RES ARG D 557
REMARK  4 active torsions:
REMARK  status: ('A' for Active; 'I' for Inactive)
REMARK    1  A    between atoms: CA   and  CB  
REMARK    2  A    between atoms: CB   and  CG  
REMARK    3  A    between atoms: CG   and  CD  
REMARK    4  A    between atoms: CD   and  NE  
REMARK       I    between atoms: NE   and  CZ  
REMARK       I    between atoms: CZ   and  NH1 
REMARK       I    between atoms: CZ   and  NH2 
ROOT
ATOM      1  CA  ARG D 557     -26.217   2.705 -17.014  1.00 35.49     0.159 C 
ENDROOT
BRANCH   1   2
ATOM      2  CB  ARG D 557     -26.789   1.319 -17.183  1.00 35.49     0.034 C 
BRANCH   2   3
ATOM      3  CG  ARG D 557     -28.232   1.226 -17.437  1.00 35.49     0.027 C 
BRANCH   3   4
ATOM      4  CD  ARG D 557     -28.910   0.298 -16.504  1.00 35.49     0.116 C 
BRANCH   4   5
ATOM      5  NE  ARG D 557     -29.295  -0.932 -17.145  1.00 35.49    -0.212 N 
ATOM      6  CZ  ARG D 557     -28.669  -2.082 -17.038  1.00 35.49     0.666 C 
ATOM      7  NH1 ARG D 557     -27.575  -2.230 -16.313  1.00 35.49    -0.235 N 
ATOM      8  NH2 ARG D 557     -29.171  -3.101 -17.674  1.00 35.49    -0.235 N 
ATOM      9  HH  ARG D 557     -27.228  -1.574 -15.885  1.00 35.49     0.174 HD
ATOM     10  HH  ARG D 557     -27.212  -3.005 -16.278  1.00 35.49     0.174 HD
ATOM     11  HH  ARG D 557     -29.883  -2.978 -18.127  1.00 35.49     0.174 HD
ATOM     12  HH  ARG D 557     -28.798  -3.860 -17.625  1.00 35.49     0.174 HD
ATOM     13  HE  ARG D 557     -29.948  -0.911 -17.689  1.00 35.49     0.178 HD
ENDBRANCH   4   5
ENDBRANCH   3   4
ENDBRANCH   2   3
ENDBRANCH   1   2
END_RES ARG D 557
BEGIN_RES GLU D 570
REMARK  3 active torsions:
REMARK  status: ('A' for Active; 'I' for Inactive)
REMARK    5  A    between atoms: CA   and  CB  
REMARK    6  A    between atoms: CB   and  CG  
REMARK    7  A    between atoms: CG   and  CD  
ROOT
ATOM     14  CA  GLU D 570     -18.033  -6.348 -13.375  1.00 32.92     0.160 C 
ENDROOT
BRANCH  14  15
ATOM     15  CB  GLU D 570     -19.500  -6.345 -13.794  1.00 32.92     0.043 C 
BRANCH  15  16
ATOM     16  CG  GLU D 570     -19.809  -5.984 -15.202  1.00 32.92     0.100 C 
BRANCH  16  17
ATOM     17  CD  GLU D 570     -21.280  -5.732 -15.436  1.00 32.92     0.185 C 
ATOM     18  OE1 GLU D 570     -22.116  -6.475 -14.887  1.00 32.92    -0.647 OA
ATOM     19  OE2 GLU D 570     -21.600  -4.793 -16.191  1.00 32.92    -0.647 OA
ENDBRANCH  16  17
ENDBRANCH  15  16
ENDBRANCH  14  15
END_RES GLU D 570
ENDMDL
MODEL 3
REMARK VINA RESULT:      -8.1      3.049      6.652
REMARK  16 active torsions:
REMARK  status: ('A' for Active; 'I' for Inactive)
REMARK    1  A    between atoms: C_2  and  C_3 
REMARK    2  A    between atoms: C_3  and  C_4 
REMARK    3  A    between atoms: C_4  and  C_5 
REMARK    4  A    between atoms: C_5  and  C_6 
REMARK    5  A    between atoms: C_6  and  C_7 
REMARK    6  A    between atoms: C_7  and  C_8 
REMARK    7  A    between atoms: C_8  and  C_9 
REMARK    8  A    between atoms: C_9  and  C_10 
REMARK    9  A    between atoms: C_10  and  C_11 
REMARK   10  A    between atoms: C_11  and  C_12 
REMARK   11  A    between atoms: C_12  and  C_13 
REMARK   12  A    between atoms: C_13  and  C_14 
REMARK   13  A    between atoms: C_14  and  C_15 
REMARK   14  A    between atoms: C_15  and  C_16 
REMARK   15  A    between atoms: C_16  and  C_18 
REMARK   16  A    between atoms: C_19  and  O_30 
ROOT
HETATM    1  C   UNL     1     -21.503 -10.317  -0.014  1.00  0.00     0.162 C 
HETATM    2  O   UNL     1     -20.974 -10.367   1.079  1.00  0.00    -0.292 OA
ENDROOT
BRANCH   1   3
HETATM    3  C   UNL     1     -22.913  -9.746  -0.195  1.00  0.00     0.084 C 
BRANCH   3   4
HETATM    4  C   UNL     1     -23.072  -8.337   0.360  1.00  0.00     0.008 C 
BRANCH   4   5
HETATM    5  C   UNL     1     -21.946  -7.442  -0.126  1.00  0.00     0.000 C 
BRANCH   5   6
HETATM    6  C   UNL     1     -22.373  -6.671  -1.361  1.00  0.00     0.000 C 
BRANCH   6   7
HETATM    7  C   UNL     1     -21.291  -6.740  -2.428  1.00  0.00     0.000 C 
BRANCH   7   8
HETATM    8  C   UNL     1     -21.903  -6.520  -3.803  1.00  0.00     0.000 C 
BRANCH   8   9
HETATM    9  C   UNL     1     -21.379  -7.551  -4.791  1.00  0.00     0.000 C 
BRANCH   9  10
HETATM   10  C   UNL     1     -20.593  -6.866  -5.898  1.00  0.00     0.000 C 
BRANCH  10  11
HETATM   11  C   UNL     1     -20.432  -5.384  -5.593  1.00  0.00     0.000 C 
BRANCH  11  12
HETATM   12  C   UNL     1     -19.793  -4.667  -6.773  1.00  0.00     0.000 C 
BRANCH  12  13
HETATM   13  C   UNL     1     -20.427  -5.122  -8.079  1.00  0.00     0.000 C 
BRANCH  13  14
HETATM   14  C   UNL     1     -21.613  -4.235  -8.437  1.00  0.00     0.000 C 
BRANCH  14  15
HETATM   15  C   UNL     1     -21.574  -3.860  -9.914  1.00  0.00    -0.000 C 
BRANCH  15  16
HETATM   16  C   UNL     1     -22.977  -3.592 -10.447  1.00  0.00    -0.005 C 
HETATM   17  C   UNL     1     -23.933  -4.697 -10.033  1.00  0.00     0.005 C 
ENDBRANCH  15  16
ENDBRANCH  14  15
ENDBRANCH  13  14
ENDBRANCH  12  13
ENDBRANCH  11  12
ENDBRANCH  10  11
ENDBRANCH   9  10
ENDBRANCH   8   9
ENDBRANCH   7   8
ENDBRANCH   6   7
ENDBRANCH   5   6
ENDBRANCH   4   5
ENDBRANCH   3   4
ENDBRANCH   1   3
BRANCH   1  18
HETATM   18  C   UNL     1     -20.786 -10.813  -1.229  1.00  0.00     0.044 A 
HETATM   19  C   UNL     1     -20.980 -12.105  -1.747  1.00  0.00     0.084 A 
HETATM   20  C   UNL     1     -20.304 -12.456  -2.915  1.00  0.00     0.075 A 
HETATM   21  C   UNL     1     -19.465 -11.554  -3.562  1.00  0.00     0.079 A 
HETATM   22  C   UNL     1     -19.277 -10.267  -3.060  1.00  0.00    -0.024 A 
HETATM   23  O   UNL     1     -18.897 -12.018  -4.712  1.00  0.00    -0.340 OA
HETATM   24  C   UNL     1     -19.927  -9.915  -1.882  1.00  0.00     0.028 A 
HETATM   25  C   UNL     1     -18.386  -9.285  -3.758  1.00  0.00     0.044 C 
HETATM   26  C   UNL     1     -18.182  -9.711  -5.207  1.00  0.00     0.042 C 
HETATM   27  C   UNL     1     -17.871 -11.213  -5.313  1.00  0.00     0.061 C 
HETATM   28  C   UNL     1     -17.859 -11.626  -6.793  1.00  0.00     0.046 C 
HETATM   29  C   UNL     1     -16.523 -11.591  -4.685  1.00  0.00     0.046 C 
BRANCH  19  30
HETATM   30  O   UNL     1     -21.858 -12.940  -1.111  1.00  0.00    -0.355 OA
HETATM   31  C   UNL     1     -23.085 -13.248  -1.765  1.00  0.00     0.210 C 
ENDBRANCH  19  30
ENDBRANCH   1  18
TORSDOF 16
BEGIN_RES ARG D 557
REMARK  4 active torsions:
REMARK  status: ('A' for Active; 'I' for Inactive)
REMARK    1  A    between atoms: CA   and  CB  
REMARK    2  A    between atoms: CB   and  CG  
REMARK    3  A    between atoms: CG   and  CD  
REMARK    4  A    between atoms: CD   and  NE  
REMARK       I    between atoms: NE   and  CZ  
REMARK       I    between atoms: CZ   and  NH1 
REMARK       I    between atoms: CZ   and  NH2 
ROOT
ATOM      1  CA  ARG D 557     -26.217   2.705 -17.014  1.00 35.49     0.159 C 
ENDROOT
BRANCH   1   2
ATOM      2  CB  ARG D 557     -26.789   1.319 -17.183  1.00 35.49     0.034 C 
BRANCH   2   3
ATOM      3  CG  ARG D 557     -25.839   0.201 -17.126  1.00 35.49     0.027 C 
BRANCH   3   4
ATOM      4  CD  ARG D 557     -24.750   0.435 -16.151  1.00 35.49     0.116 C 
BRANCH   4   5
ATOM      5  NE  ARG D 557     -24.867  -0.414 -14.994  1.00 35.49    -0.212 N 
ATOM      6  CZ  ARG D 557     -24.045  -1.387 -14.669  1.00 35.49     0.666 C 
ATOM      7  NH1 ARG D 557     -22.996  -1.705 -15.406  1.00 35.49    -0.235 N 
ATOM      8  NH2 ARG D 557     -24.292  -2.040 -13.571  1.00 35.49    -0.235 N 
ATOM      9  HH  ARG D 557     -22.813  -1.287 -16.131  1.00 35.49     0.174 HD
ATOM     10  HH  ARG D 557     -22.494  -2.347 -15.143  1.00 35.49     0.174 HD
ATOM     11  HH  ARG D 557     -24.972  -1.808 -13.112  1.00 35.49     0.174 HD
ATOM     12  HH  ARG D 557     -23.782  -2.672 -13.327  1.00 35.49     0.174 HD
ATOM     13  HE  ARG D 557     -25.555  -0.326 -14.502  1.00 35.49     0.178 HD
ENDBRANCH   4   5
ENDBRANCH   3   4
ENDBRANCH   2   3
ENDBRANCH   1   2
END_RES ARG D 557
BEGIN_RES GLU D 570
REMARK  3 active torsions:
REMARK  status: ('A' for Active; 'I' for Inactive)
REMARK    5  A    between atoms: CA   and  CB  
REMARK    6  A    between atoms: CB   and  CG  
REMARK    7  A    between atoms: CG   and  CD  
ROOT
ATOM     14  CA  GLU D 570     -18.033  -6.348 -13.375  1.00 32.92     0.160 C 
ENDROOT
BRANCH  14  15
ATOM     15  CB  GLU D 570     -19.500  -6.345 -13.794  1.00 32.92     0.043 C 
BRANCH  15  16
ATOM     16  CG  GLU D 570     -20.450  -5.569 -12.956  1.00 32.92     0.100 C 
BRANCH  16  17
ATOM     17  CD  GLU D 570     -21.734  -5.233 -13.677  1.00 32.92     0.185 C 
ATOM     18  OE1 GLU D 570     -22.364  -6.144 -14.248  1.00 32.92    -0.647 OA
ATOM     19  OE2 GLU D 570     -22.105  -4.042 -13.686  1.00 32.92    -0.647 OA
ENDBRANCH  16  17
ENDBRANCH  15  16
ENDBRANCH  14  15
END_RES GLU D 570
ENDMDL
MODEL 4
REMARK VINA RESULT:      -8.0      2.220      9.501
REMARK  16 active torsions:
REMARK  status: ('A' for Active; 'I' for Inactive)
REMARK    1  A    between atoms: C_2  and  C_3 
REMARK    2  A    between atoms: C_3  and  C_4 
REMARK    3  A    between atoms: C_4  and  C_5 
REMARK    4  A    between atoms: C_5  and  C_6 
REMARK    5  A    between atoms: C_6  and  C_7 
REMARK    6  A    between atoms: C_7  and  C_8 
REMARK    7  A    between atoms: C_8  and  C_9 
REMARK    8  A    between atoms: C_9  and  C_10 
REMARK    9  A    between atoms: C_10  and  C_11 
REMARK   10  A    between atoms: C_11  and  C_12 
REMARK   11  A    between atoms: C_12  and  C_13 
REMARK   12  A    between atoms: C_13  and  C_14 
REMARK   13  A    between atoms: C_14  and  C_15 
REMARK   14  A    between atoms: C_15  and  C_16 
REMARK   15  A    between atoms: C_16  and  C_18 
REMARK   16  A    between atoms: C_19  and  O_30 
ROOT
HETATM    1  C   UNL     1     -20.304  -5.339  -6.266  1.00  0.00     0.162 C 
HETATM    2  O   UNL     1     -19.684  -4.501  -5.640  1.00  0.00    -0.292 OA
ENDROOT
BRANCH   1   3
HETATM    3  C   UNL     1     -20.219  -6.827  -5.913  1.00  0.00     0.084 C 
BRANCH   3   4
HETATM    4  C   UNL     1     -21.086  -7.217  -4.724  1.00  0.00     0.008 C 
BRANCH   4   5
HETATM    5  C   UNL     1     -20.967  -6.186  -3.616  1.00  0.00     0.000 C 
BRANCH   5   6
HETATM    6  C   UNL     1     -22.056  -6.390  -2.579  1.00  0.00     0.000 C 
BRANCH   6   7
HETATM    7  C   UNL     1     -21.596  -7.376  -1.516  1.00  0.00     0.000 C 
BRANCH   7   8
HETATM    8  C   UNL     1     -22.417  -7.195  -0.249  1.00  0.00     0.000 C 
BRANCH   8   9
HETATM    9  C   UNL     1     -22.980  -8.529   0.218  1.00  0.00     0.000 C 
BRANCH   9  10
HETATM   10  C   UNL     1     -21.857  -9.536   0.405  1.00  0.00     0.000 C 
BRANCH  10  11
HETATM   11  C   UNL     1     -22.325 -10.929   0.010  1.00  0.00     0.000 C 
BRANCH  11  12
HETATM   12  C   UNL     1     -23.450 -10.841  -1.009  1.00  0.00     0.000 C 
BRANCH  12  13
HETATM   13  C   UNL     1     -23.034 -11.494  -2.319  1.00  0.00     0.000 C 
BRANCH  13  14
HETATM   14  C   UNL     1     -22.276 -10.504  -3.195  1.00  0.00     0.000 C 
BRANCH  14  15
HETATM   15  C   UNL     1     -20.875 -11.022  -3.497  1.00  0.00    -0.000 C 
BRANCH  15  16
HETATM   16  C   UNL     1     -19.814 -10.133  -2.858  1.00  0.00    -0.005 C 
HETATM   17  C   UNL     1     -19.052 -10.888  -1.782  1.00  0.00     0.005 C 
ENDBRANCH  15  16
ENDBRANCH  14  15
ENDBRANCH  13  14
ENDBRANCH  12  13
ENDBRANCH  11  12
ENDBRANCH  10  11
ENDBRANCH   9  10
ENDBRANCH   8   9
ENDBRANCH   7   8
ENDBRANCH   6   7
ENDBRANCH   5   6
ENDBRANCH   4   5
ENDBRANCH   3   4
ENDBRANCH   1   3
BRANCH   1  18
HETATM   18  C   UNL     1     -21.179  -4.938  -7.411  1.00  0.00     0.044 A 
HETATM   19  C   UNL     1     -22.548  -4.659  -7.254  1.00  0.00     0.084 A 
HETATM   20  C   UNL     1     -23.269  -4.241  -8.372  1.00  0.00     0.075 A 
HETATM   21  C   UNL     1     -22.655  -4.094  -9.613  1.00  0.00     0.079 A 
HETATM   22  C   UNL     1     -21.296  -4.358  -9.772  1.00  0.00    -0.024 A 
HETATM   23  O   UNL     1     -23.470  -3.645 -10.609  1.00  0.00    -0.340 OA
HETATM   24  C   UNL     1     -20.573  -4.799  -8.669  1.00  0.00     0.028 A 
HETATM   25  C   UNL     1     -20.624  -4.188 -11.101  1.00  0.00     0.044 C 
HETATM   26  C   UNL     1     -21.462  -3.279 -11.992  1.00  0.00     0.042 C 
HETATM   27  C   UNL     1     -22.950  -3.665 -11.947  1.00  0.00     0.061 C 
HETATM   28  C   UNL     1     -23.770  -2.613 -12.708  1.00  0.00     0.046 C 
HETATM   29  C   UNL     1     -23.229  -5.045 -12.559  1.00  0.00     0.046 C 
BRANCH  19  30
HETATM   30  O   UNL     1     -23.099  -4.762  -6.006  1.00  0.00    -0.355 OA
HETATM   31  C   UNL     1     -24.029  -5.814  -5.767  1.00  0.00     0.210 C 
ENDBRANCH  19  30
ENDBRANCH   1  18
TORSDOF 16
BEGIN_RES ARG D 557
REMARK  4 active torsions:
REMARK  status: ('A' for Active; 'I' for Inactive)
REMARK    1  A    between atoms: CA   and  CB  
REMARK    2  A    between atoms: CB   and  CG  
REMARK    3  A    between atoms: CG   and  CD  
REMARK    4  A    between atoms: CD   and  NE  
REMARK       I    between atoms: NE   and  CZ  
REMARK       I    between atoms: CZ   and  NH1 
REMARK       I    between atoms: CZ   and  NH2 
ROOT
ATOM      1  CA  ARG D 557     -26.217   2.705 -17.014  1.00 35.49     0.159 C 
ENDROOT
BRANCH   1   2
ATOM      2  CB  ARG D 557     -26.789   1.319 -17.183  1.00 35.49     0.034 C 
BRANCH   2   3
ATOM      3  CG  ARG D 557     -25.969   0.202 -16.698  1.00 35.49     0.027 C 
BRANCH   3   4
ATOM      4  CD  ARG D 557     -26.778  -0.844 -16.032  1.00 35.49     0.116 C 
BRANCH   4   5
ATOM      5  NE  ARG D 557     -28.021  -1.086 -16.716  1.00 35.49    -0.212 N 
ATOM      6  CZ  ARG D 557     -28.541  -2.266 -16.970  1.00 35.49     0.666 C 
ATOM      7  NH1 ARG D 557     -27.946  -3.393 -16.623  1.00 35.49    -0.235 N 
ATOM      8  NH2 ARG D 557     -29.689  -2.297 -17.583  1.00 35.49    -0.235 N 
ATOM      9  HH  ARG D 557     -27.192  -3.396 -16.217  1.00 35.49     0.174 HD
ATOM     10  HH  ARG D 557     -28.334  -4.133 -16.812  1.00 35.49     0.174 HD
ATOM     11  HH  ARG D 557     -30.053  -1.554 -17.788  1.00 35.49     0.174 HD
ATOM     12  HH  ARG D 557     -30.057  -3.040 -17.760  1.00 35.49     0.174 HD
ATOM     13  HE  ARG D 557     -28.435  -0.418 -17.040  1.00 35.49     0.178 HD
ENDBRANCH   4   5
ENDBRANCH   3   4
ENDBRANCH   2   3
ENDBRANCH   1   2
END_RES ARG D 557
BEGIN_RES GLU D 570
REMARK  3 active torsions:
REMARK  status: ('A' for Active; 'I' for Inactive)
REMARK    5  A    between atoms: CA   and  CB  
REMARK    6  A    between atoms: CB   and  CG  
REMARK    7  A    between atoms: CG   and  CD  
ROOT
ATOM     14  CA  GLU D 570     -18.033  -6.348 -13.375  1.00 32.92     0.160 C 
ENDROOT
BRANCH  14  15
ATOM     15  CB  GLU D 570     -19.500  -6.345 -13.794  1.00 32.92     0.043 C 
BRANCH  15  16
ATOM     16  CG  GLU D 570     -19.797  -6.223 -15.245  1.00 32.92     0.100 C 
BRANCH  16  17
ATOM     17  CD  GLU D 570     -21.245  -5.891 -15.524  1.00 32.92     0.185 C 
ATOM     18  OE1 GLU D 570     -22.078  -6.816 -15.575  1.00 32.92    -0.647 OA
ATOM     19  OE2 GLU D 570     -21.546  -4.696 -15.709  1.00 32.92    -0.647 OA
ENDBRANCH  16  17
ENDBRANCH  15  16
ENDBRANCH  14  15
END_RES GLU D 570
ENDMDL
MODEL 5
REMARK VINA RESULT:      -8.0      2.131      9.458
REMARK  16 active torsions:
REMARK  status: ('A' for Active; 'I' for Inactive)
REMARK    1  A    between atoms: C_2  and  C_3 
REMARK    2  A    between atoms: C_3  and  C_4 
REMARK    3  A    between atoms: C_4  and  C_5 
REMARK    4  A    between atoms: C_5  and  C_6 
REMARK    5  A    between atoms: C_6  and  C_7 
REMARK    6  A    between atoms: C_7  and  C_8 
REMARK    7  A    between atoms: C_8  and  C_9 
REMARK    8  A    between atoms: C_9  and  C_10 
REMARK    9  A    between atoms: C_10  and  C_11 
REMARK   10  A    between atoms: C_11  and  C_12 
REMARK   11  A    between atoms: C_12  and  C_13 
REMARK   12  A    between atoms: C_13  and  C_14 
REMARK   13  A    between atoms: C_14  and  C_15 
REMARK   14  A    between atoms: C_15  and  C_16 
REMARK   15  A    between atoms: C_16  and  C_18 
REMARK   16  A    between atoms: C_19  and  O_30 
ROOT
HETATM    1  C   UNL     1     -20.062  -5.007  -6.436  1.00  0.00     0.162 C 
HETATM    2  O   UNL     1     -19.007  -4.405  -6.392  1.00  0.00    -0.292 OA
ENDROOT
BRANCH   1   3
HETATM    3  C   UNL     1     -20.426  -6.061  -5.386  1.00  0.00     0.084 C 
BRANCH   3   4
HETATM    4  C   UNL     1     -20.443  -7.481  -5.934  1.00  0.00     0.008 C 
BRANCH   4   5
HETATM    5  C   UNL     1     -19.622  -8.404  -5.051  1.00  0.00     0.000 C 
BRANCH   5   6
HETATM    6  C   UNL     1     -20.515  -9.128  -4.061  1.00  0.00     0.000 C 
BRANCH   6   7
HETATM    7  C   UNL     1     -19.896  -9.101  -2.672  1.00  0.00     0.000 C 
BRANCH   7   8
HETATM    8  C   UNL     1     -20.234  -7.792  -1.976  1.00  0.00     0.000 C 
BRANCH   8   9
HETATM    9  C   UNL     1     -21.717  -7.481  -2.119  1.00  0.00     0.000 C 
BRANCH   9  10
HETATM   10  C   UNL     1     -22.247  -6.853  -0.840  1.00  0.00     0.000 C 
BRANCH  10  11
HETATM   11  C   UNL     1     -22.953  -7.899   0.010  1.00  0.00     0.000 C 
BRANCH  11  12
HETATM   12  C   UNL     1     -21.939  -8.845   0.636  1.00  0.00     0.000 C 
BRANCH  12  13
HETATM   13  C   UNL     1     -22.221 -10.280   0.217  1.00  0.00     0.000 C 
BRANCH  13  14
HETATM   14  C   UNL     1     -23.700 -10.467  -0.096  1.00  0.00     0.000 C 
BRANCH  14  15
HETATM   15  C   UNL     1     -23.888 -11.500  -1.201  1.00  0.00    -0.000 C 
BRANCH  15  16
HETATM   16  C   UNL     1     -23.115 -11.105  -2.455  1.00  0.00    -0.005 C 
HETATM   17  C   UNL     1     -22.341 -12.289  -3.008  1.00  0.00     0.005 C 
ENDBRANCH  15  16
ENDBRANCH  14  15
ENDBRANCH  13  14
ENDBRANCH  12  13
ENDBRANCH  11  12
ENDBRANCH  10  11
ENDBRANCH   9  10
ENDBRANCH   8   9
ENDBRANCH   7   8
ENDBRANCH   6   7
ENDBRANCH   5   6
ENDBRANCH   4   5
ENDBRANCH   3   4
ENDBRANCH   1   3
BRANCH   1  18
HETATM   18  C   UNL     1     -21.050  -4.732  -7.525  1.00  0.00     0.044 A 
HETATM   19  C   UNL     1     -22.431  -4.632  -7.286  1.00  0.00     0.084 A 
HETATM   20  C   UNL     1     -23.266  -4.320  -8.359  1.00  0.00     0.075 A 
HETATM   21  C   UNL     1     -22.751  -4.104  -9.633  1.00  0.00     0.079 A 
HETATM   22  C   UNL     1     -21.382  -4.189  -9.875  1.00  0.00    -0.024 A 
HETATM   23  O   UNL     1     -23.677  -3.772 -10.579  1.00  0.00    -0.340 OA
HETATM   24  C   UNL     1     -20.543  -4.524  -8.818  1.00  0.00     0.028 A 
HETATM   25  C   UNL     1     -20.819  -3.944 -11.242  1.00  0.00     0.044 C 
HETATM   26  C   UNL     1     -21.819  -3.158 -12.080  1.00  0.00     0.042 C 
HETATM   27  C   UNL     1     -23.239  -3.734 -11.946  1.00  0.00     0.061 C 
HETATM   28  C   UNL     1     -24.234  -2.803 -12.656  1.00  0.00     0.046 C 
HETATM   29  C   UNL     1     -23.372  -5.143 -12.540  1.00  0.00     0.046 C 
BRANCH  19  30
HETATM   30  O   UNL     1     -22.888  -4.796  -6.007  1.00  0.00    -0.355 OA
HETATM   31  C   UNL     1     -23.838  -5.829  -5.760  1.00  0.00     0.210 C 
ENDBRANCH  19  30
ENDBRANCH   1  18
TORSDOF 16
BEGIN_RES ARG D 557
REMARK  4 active torsions:
REMARK  status: ('A' for Active; 'I' for Inactive)
REMARK    1  A    between atoms: CA   and  CB  
REMARK    2  A    between atoms: CB   and  CG  
REMARK    3  A    between atoms: CG   and  CD  
REMARK    4  A    between atoms: CD   and  NE  
REMARK       I    between atoms: NE   and  CZ  
REMARK       I    between atoms: CZ   and  NH1 
REMARK       I    between atoms: CZ   and  NH2 
ROOT
ATOM      1  CA  ARG D 557     -26.217   2.705 -17.014  1.00 35.49     0.159 C 
ENDROOT
BRANCH   1   2
ATOM      2  CB  ARG D 557     -26.789   1.319 -17.183  1.00 35.49     0.034 C 
BRANCH   2   3
ATOM      3  CG  ARG D 557     -28.247   1.187 -17.068  1.00 35.49     0.027 C 
BRANCH   3   4
ATOM      4  CD  ARG D 557     -28.664  -0.194 -16.735  1.00 35.49     0.116 C 
BRANCH   4   5
ATOM      5  NE  ARG D 557     -27.628  -0.924 -16.053  1.00 35.49    -0.212 N 
ATOM      6  CZ  ARG D 557     -27.434  -2.222 -16.117  1.00 35.49     0.666 C 
ATOM      7  NH1 ARG D 557     -28.207  -3.021 -16.829  1.00 35.49    -0.235 N 
ATOM      8  NH2 ARG D 557     -26.430  -2.712 -15.448  1.00 35.49    -0.235 N 
ATOM      9  HH  ARG D 557     -28.871  -2.719 -17.278  1.00 35.49     0.174 HD
ATOM     10  HH  ARG D 557     -28.030  -3.859 -16.835  1.00 35.49     0.174 HD
ATOM     11  HH  ARG D 557     -25.943  -2.172 -15.003  1.00 35.49     0.174 HD
ATOM     12  HH  ARG D 557     -26.271  -3.545 -15.468  1.00 35.49     0.174 HD
ATOM     13  HE  ARG D 557     -27.127  -0.497 -15.514  1.00 35.49     0.178 HD
ENDBRANCH   4   5
ENDBRANCH   3   4
ENDBRANCH   2   3
ENDBRANCH   1   2
END_RES ARG D 557
BEGIN_RES GLU D 570
REMARK  3 active torsions:
REMARK  status: ('A' for Active; 'I' for Inactive)
REMARK    5  A    between atoms: CA   and  CB  
REMARK    6  A    between atoms: CB   and  CG  
REMARK    7  A    between atoms: CG   and  CD  
ROOT
ATOM     14  CA  GLU D 570     -18.033  -6.348 -13.375  1.00 32.92     0.160 C 
ENDROOT
BRANCH  14  15
ATOM     15  CB  GLU D 570     -19.500  -6.345 -13.794  1.00 32.92     0.043 C 
BRANCH  15  16
ATOM     16  CG  GLU D 570     -20.099  -7.643 -14.198  1.00 32.92     0.100 C 
BRANCH  16  17
ATOM     17  CD  GLU D 570     -21.055  -7.514 -15.361  1.00 32.92     0.185 C 
ATOM     18  OE1 GLU D 570     -21.766  -6.495 -15.450  1.00 32.92    -0.647 OA
ATOM     19  OE2 GLU D 570     -21.106  -8.451 -16.183  1.00 32.92    -0.647 OA
ENDBRANCH  16  17
ENDBRANCH  15  16
ENDBRANCH  14  15
END_RES GLU D 570
ENDMDL
MODEL 6
REMARK VINA RESULT:      -7.8      2.340      6.582
REMARK  16 active torsions:
REMARK  status: ('A' for Active; 'I' for Inactive)
REMARK    1  A    between atoms: C_2  and  C_3 
REMARK    2  A    between atoms: C_3  and  C_4 
REMARK    3  A    between atoms: C_4  and  C_5 
REMARK    4  A    between atoms: C_5  and  C_6 
REMARK    5  A    between atoms: C_6  and  C_7 
REMARK    6  A    between atoms: C_7  and  C_8 
REMARK    7  A    between atoms: C_8  and  C_9 
REMARK    8  A    between atoms: C_9  and  C_10 
REMARK    9  A    between atoms: C_10  and  C_11 
REMARK   10  A    between atoms: C_11  and  C_12 
REMARK   11  A    between atoms: C_12  and  C_13 
REMARK   12  A    between atoms: C_13  and  C_14 
REMARK   13  A    between atoms: C_14  and  C_15 
REMARK   14  A    between atoms: C_15  and  C_16 
REMARK   15  A    between atoms: C_16  and  C_18 
REMARK   16  A    between atoms: C_19  and  O_30 
ROOT
HETATM    1  C   UNL     1     -21.908 -11.297  -1.171  1.00  0.00     0.162 C 
HETATM    2  O   UNL     1     -22.028 -12.308  -0.506  1.00  0.00    -0.292 OA
ENDROOT
BRANCH   1   3
HETATM    3  C   UNL     1     -22.810 -10.080  -0.947  1.00  0.00     0.084 C 
BRANCH   3   4
HETATM    4  C   UNL     1     -22.327  -9.166   0.170  1.00  0.00     0.008 C 
BRANCH   4   5
HETATM    5  C   UNL     1     -21.489  -8.031  -0.393  1.00  0.00     0.000 C 
BRANCH   5   6
HETATM    6  C   UNL     1     -22.375  -6.883  -0.837  1.00  0.00     0.000 C 
BRANCH   6   7
HETATM    7  C   UNL     1     -21.959  -6.397  -2.217  1.00  0.00     0.000 C 
BRANCH   7   8
HETATM    8  C   UNL     1     -20.974  -7.375  -2.838  1.00  0.00     0.000 C 
BRANCH   8   9
HETATM    9  C   UNL     1     -21.504  -7.894  -4.167  1.00  0.00     0.000 C 
BRANCH   9  10
HETATM   10  C   UNL     1     -20.712  -7.295  -5.318  1.00  0.00     0.000 C 
BRANCH  10  11
HETATM   11  C   UNL     1     -21.375  -6.015  -5.806  1.00  0.00     0.000 C 
BRANCH  11  12
HETATM   12  C   UNL     1     -20.347  -4.900  -5.930  1.00  0.00     0.000 C 
BRANCH  12  13
HETATM   13  C   UNL     1     -20.671  -4.008  -7.120  1.00  0.00     0.000 C 
BRANCH  13  14
HETATM   14  C   UNL     1     -21.088  -4.847  -8.321  1.00  0.00     0.000 C 
BRANCH  14  15
HETATM   15  C   UNL     1     -22.232  -4.176  -9.072  1.00  0.00    -0.000 C 
BRANCH  15  16
HETATM   16  C   UNL     1     -21.918  -4.061 -10.559  1.00  0.00    -0.005 C 
HETATM   17  C   UNL     1     -20.441  -4.300 -10.820  1.00  0.00     0.005 C 
ENDBRANCH  15  16
ENDBRANCH  14  15
ENDBRANCH  13  14
ENDBRANCH  12  13
ENDBRANCH  11  12
ENDBRANCH  10  11
ENDBRANCH   9  10
ENDBRANCH   8   9
ENDBRANCH   7   8
ENDBRANCH   6   7
ENDBRANCH   5   6
ENDBRANCH   4   5
ENDBRANCH   3   4
ENDBRANCH   1   3
BRANCH   1  18
HETATM   18  C   UNL     1     -20.864 -11.209  -2.238  1.00  0.00     0.044 A 
HETATM   19  C   UNL     1     -21.141 -11.471  -3.591  1.00  0.00     0.084 A 
HETATM   20  C   UNL     1     -20.113 -11.311  -4.519  1.00  0.00     0.075 A 
HETATM   21  C   UNL     1     -18.845 -10.895  -4.125  1.00  0.00     0.079 A 
HETATM   22  C   UNL     1     -18.566 -10.621  -2.788  1.00  0.00    -0.024 A 
HETATM   23  O   UNL     1     -17.947 -10.746  -5.141  1.00  0.00    -0.340 OA
HETATM   24  C   UNL     1     -19.578 -10.802  -1.850  1.00  0.00     0.028 A 
HETATM   25  C   UNL     1     -17.207 -10.159  -2.357  1.00  0.00     0.044 C 
HETATM   26  C   UNL     1     -16.450  -9.597  -3.554  1.00  0.00     0.042 C 
HETATM   27  C   UNL     1     -16.576 -10.515  -4.781  1.00  0.00     0.061 C 
HETATM   28  C   UNL     1     -15.956  -9.819  -6.002  1.00  0.00     0.046 C 
HETATM   29  C   UNL     1     -15.888 -11.873  -4.586  1.00  0.00     0.046 C 
BRANCH  19  30
HETATM   30  O   UNL     1     -22.416 -11.824  -3.942  1.00  0.00    -0.355 OA
HETATM   31  C   UNL     1     -22.607 -12.519  -5.170  1.00  0.00     0.210 C 
ENDBRANCH  19  30
ENDBRANCH   1  18
TORSDOF 16
BEGIN_RES ARG D 557
REMARK  4 active torsions:
REMARK  status: ('A' for Active; 'I' for Inactive)
REMARK    1  A    between atoms: CA   and  CB  
REMARK    2  A    between atoms: CB   and  CG  
REMARK    3  A    between atoms: CG   and  CD  
REMARK    4  A    between atoms: CD   and  NE  
REMARK       I    between atoms: NE   and  CZ  
REMARK       I    between atoms: CZ   and  NH1 
REMARK       I    between atoms: CZ   and  NH2 
ROOT
ATOM      1  CA  ARG D 557     -26.217   2.705 -17.014  1.00 35.49     0.159 C 
ENDROOT
BRANCH   1   2
ATOM      2  CB  ARG D 557     -26.789   1.319 -17.183  1.00 35.49     0.034 C 
BRANCH   2   3
ATOM      3  CG  ARG D 557     -28.228   1.163 -16.936  1.00 35.49     0.027 C 
BRANCH   3   4
ATOM      4  CD  ARG D 557     -28.603  -0.241 -16.652  1.00 35.49     0.116 C 
BRANCH   4   5
ATOM      5  NE  ARG D 557     -27.577  -0.940 -15.924  1.00 35.49    -0.212 N 
ATOM      6  CZ  ARG D 557     -27.322  -2.227 -16.000  1.00 35.49     0.666 C 
ATOM      7  NH1 ARG D 557     -28.017  -3.043 -16.771  1.00 35.49    -0.235 N 
ATOM      8  NH2 ARG D 557     -26.338  -2.688 -15.283  1.00 35.49    -0.235 N 
ATOM      9  HH  ARG D 557     -28.667  -2.761 -17.252  1.00 35.49     0.174 HD
ATOM     10  HH  ARG D 557     -27.804  -3.873 -16.782  1.00 35.49     0.174 HD
ATOM     11  HH  ARG D 557     -25.902  -2.136 -14.800  1.00 35.49     0.174 HD
ATOM     12  HH  ARG D 557     -26.142  -3.512 -15.309  1.00 35.49     0.174 HD
ATOM     13  HE  ARG D 557     -27.128  -0.503 -15.348  1.00 35.49     0.178 HD
ENDBRANCH   4   5
ENDBRANCH   3   4
ENDBRANCH   2   3
ENDBRANCH   1   2
END_RES ARG D 557
BEGIN_RES GLU D 570
REMARK  3 active torsions:
REMARK  status: ('A' for Active; 'I' for Inactive)
REMARK    5  A    between atoms: CA   and  CB  
REMARK    6  A    between atoms: CB   and  CG  
REMARK    7  A    between atoms: CG   and  CD  
ROOT
ATOM     14  CA  GLU D 570     -18.033  -6.348 -13.375  1.00 32.92     0.160 C 
ENDROOT
BRANCH  14  15
ATOM     15  CB  GLU D 570     -19.500  -6.345 -13.794  1.00 32.92     0.043 C 
BRANCH  15  16
ATOM     16  CG  GLU D 570     -19.797  -6.270 -15.248  1.00 32.92     0.100 C 
BRANCH  16  17
ATOM     17  CD  GLU D 570     -21.007  -5.420 -15.560  1.00 32.92     0.185 C 
ATOM     18  OE1 GLU D 570     -21.309  -5.211 -16.750  1.00 32.92    -0.647 OA
ATOM     19  OE2 GLU D 570     -21.650  -4.946 -14.603  1.00 32.92    -0.647 OA
ENDBRANCH  16  17
ENDBRANCH  15  16
ENDBRANCH  14  15
END_RES GLU D 570
ENDMDL
MODEL 7
REMARK VINA RESULT:      -7.6      2.147      9.617
REMARK  16 active torsions:
REMARK  status: ('A' for Active; 'I' for Inactive)
REMARK    1  A    between atoms: C_2  and  C_3 
REMARK    2  A    between atoms: C_3  and  C_4 
REMARK    3  A    between atoms: C_4  and  C_5 
REMARK    4  A    between atoms: C_5  and  C_6 
REMARK    5  A    between atoms: C_6  and  C_7 
REMARK    6  A    between atoms: C_7  and  C_8 
REMARK    7  A    between atoms: C_8  and  C_9 
REMARK    8  A    between atoms: C_9  and  C_10 
REMARK    9  A    between atoms: C_10  and  C_11 
REMARK   10  A    between atoms: C_11  and  C_12 
REMARK   11  A    between atoms: C_12  and  C_13 
REMARK   12  A    between atoms: C_13  and  C_14 
REMARK   13  A    between atoms: C_14  and  C_15 
REMARK   14  A    between atoms: C_15  and  C_16 
REMARK   15  A    between atoms: C_16  and  C_18 
REMARK   16  A    between atoms: C_19  and  O_30 
ROOT
HETATM    1  C   UNL     1     -20.386  -5.313  -6.140  1.00  0.00     0.162 C 
HETATM    2  O   UNL     1     -20.072  -4.500  -5.291  1.00  0.00    -0.292 OA
ENDROOT
BRANCH   1   3
HETATM    3  C   UNL     1     -19.974  -6.784  -6.029  1.00  0.00     0.084 C 
BRANCH   3   4
HETATM    4  C   UNL     1     -21.157  -7.742  -5.999  1.00  0.00     0.008 C 
BRANCH   4   5
HETATM    5  C   UNL     1     -20.817  -8.984  -5.194  1.00  0.00     0.000 C 
BRANCH   5   6
HETATM    6  C   UNL     1     -21.888  -9.256  -4.156  1.00  0.00     0.000 C 
BRANCH   6   7
HETATM    7  C   UNL     1     -21.432 -10.345  -3.196  1.00  0.00     0.000 C 
BRANCH   7   8
HETATM    8  C   UNL     1     -22.144 -11.650  -3.514  1.00  0.00     0.000 C 
BRANCH   8   9
HETATM    9  C   UNL     1     -23.027 -12.073  -2.350  1.00  0.00     0.000 C 
BRANCH   9  10
HETATM   10  C   UNL     1     -22.561 -11.404  -1.067  1.00  0.00     0.000 C 
BRANCH  10  11
HETATM   11  C   UNL     1     -23.741 -10.778  -0.338  1.00  0.00     0.000 C 
BRANCH  11  12
HETATM   12  C   UNL     1     -23.327  -9.465   0.310  1.00  0.00     0.000 C 
BRANCH  12  13
HETATM   13  C   UNL     1     -21.811  -9.335   0.328  1.00  0.00     0.000 C 
BRANCH  13  14
HETATM   14  C   UNL     1     -21.377  -8.036  -0.339  1.00  0.00     0.000 C 
BRANCH  14  15
HETATM   15  C   UNL     1     -22.592  -7.227  -0.778  1.00  0.00    -0.000 C 
BRANCH  15  16
HETATM   16  C   UNL     1     -22.172  -5.994  -1.570  1.00  0.00    -0.005 C 
HETATM   17  C   UNL     1     -21.122  -6.349  -2.607  1.00  0.00     0.005 C 
ENDBRANCH  15  16
ENDBRANCH  14  15
ENDBRANCH  13  14
ENDBRANCH  12  13
ENDBRANCH  11  12
ENDBRANCH  10  11
ENDBRANCH   9  10
ENDBRANCH   8   9
ENDBRANCH   7   8
ENDBRANCH   6   7
ENDBRANCH   5   6
ENDBRANCH   4   5
ENDBRANCH   3   4
ENDBRANCH   1   3
BRANCH   1  18
HETATM   18  C   UNL     1     -21.193  -4.898  -7.328  1.00  0.00     0.044 A 
HETATM   19  C   UNL     1     -22.567  -4.611  -7.247  1.00  0.00     0.084 A 
HETATM   20  C   UNL     1     -23.221  -4.181  -8.400  1.00  0.00     0.075 A 
HETATM   21  C   UNL     1     -22.538  -4.028  -9.602  1.00  0.00     0.079 A 
HETATM   22  C   UNL     1     -21.174  -4.299  -9.688  1.00  0.00    -0.024 A 
HETATM   23  O   UNL     1     -23.294  -3.566 -10.640  1.00  0.00    -0.340 OA
HETATM   24  C   UNL     1     -20.516  -4.752  -8.549  1.00  0.00     0.028 A 
HETATM   25  C   UNL     1     -20.427  -4.123 -10.975  1.00  0.00     0.044 C 
HETATM   26  C   UNL     1     -21.209  -3.202 -11.905  1.00  0.00     0.042 C 
HETATM   27  C   UNL     1     -22.699  -3.579 -11.947  1.00  0.00     0.061 C 
HETATM   28  C   UNL     1     -23.470  -2.516 -12.744  1.00  0.00     0.046 C 
HETATM   29  C   UNL     1     -22.951  -4.952 -12.584  1.00  0.00     0.046 C 
BRANCH  19  30
HETATM   30  O   UNL     1     -23.188  -4.721  -6.031  1.00  0.00    -0.355 OA
HETATM   31  C   UNL     1     -23.842  -5.947  -5.720  1.00  0.00     0.210 C 
ENDBRANCH  19  30
ENDBRANCH   1  18
TORSDOF 16
BEGIN_RES ARG D 557
REMARK  4 active torsions:
REMARK  status: ('A' for Active; 'I' for Inactive)
REMARK    1  A    between atoms: CA   and  CB  
REMARK    2  A    between atoms: CB   and  CG  
REMARK    3  A    between atoms: CG   and  CD  
REMARK    4  A    between atoms: CD   and  NE  
REMARK       I    between atoms: NE   and  CZ  
REMARK       I    between atoms: CZ   and  NH1 
REMARK       I    between atoms: CZ   and  NH2 
ROOT
ATOM      1  CA  ARG D 557     -26.217   2.705 -17.014  1.00 35.49     0.159 C 
ENDROOT
BRANCH   1   2
ATOM      2  CB  ARG D 557     -26.789   1.319 -17.183  1.00 35.49     0.034 C 
BRANCH   2   3
ATOM      3  CG  ARG D 557     -26.084   0.226 -16.502  1.00 35.49     0.027 C 
BRANCH   3   4
ATOM      4  CD  ARG D 557     -26.984  -0.900 -16.162  1.00 35.49     0.116 C 
BRANCH   4   5
ATOM      5  NE  ARG D 557     -26.308  -1.928 -15.415  1.00 35.49    -0.212 N 
ATOM      6  CZ  ARG D 557     -26.588  -3.212 -15.449  1.00 35.49     0.666 C 
ATOM      7  NH1 ARG D 557     -27.563  -3.706 -16.189  1.00 35.49    -0.235 N 
ATOM      8  NH2 ARG D 557     -25.856  -4.005 -14.721  1.00 35.49    -0.235 N 
ATOM      9  HH  ARG D 557     -28.056  -3.203 -16.677  1.00 35.49     0.174 HD
ATOM     10  HH  ARG D 557     -27.698  -4.552 -16.172  1.00 35.49     0.174 HD
ATOM     11  HH  ARG D 557     -25.228  -3.658 -14.259  1.00 35.49     0.174 HD
ATOM     12  HH  ARG D 557     -26.004  -4.840 -14.720  1.00 35.49     0.174 HD
ATOM     13  HE  ARG D 557     -25.713  -1.690 -14.857  1.00 35.49     0.178 HD
ENDBRANCH   4   5
ENDBRANCH   3   4
ENDBRANCH   2   3
ENDBRANCH   1   2
END_RES ARG D 557
BEGIN_RES GLU D 570
REMARK  3 active torsions:
REMARK  status: ('A' for Active; 'I' for Inactive)
REMARK    5  A    between atoms: CA   and  CB  
REMARK    6  A    between atoms: CB   and  CG  
REMARK    7  A    between atoms: CG   and  CD  
ROOT
ATOM     14  CA  GLU D 570     -18.033  -6.348 -13.375  1.00 32.92     0.160 C 
ENDROOT
BRANCH  14  15
ATOM     15  CB  GLU D 570     -19.500  -6.345 -13.794  1.00 32.92     0.043 C 
BRANCH  15  16
ATOM     16  CG  GLU D 570     -19.805  -6.047 -15.217  1.00 32.92     0.100 C 
BRANCH  16  17
ATOM     17  CD  GLU D 570     -20.795  -7.015 -15.823  1.00 32.92     0.185 C 
ATOM     18  OE1 GLU D 570     -21.578  -6.608 -16.702  1.00 32.92    -0.647 OA
ATOM     19  OE2 GLU D 570     -20.798  -8.188 -15.401  1.00 32.92    -0.647 OA
ENDBRANCH  16  17
ENDBRANCH  15  16
ENDBRANCH  14  15
END_RES GLU D 570
ENDMDL
MODEL 8
REMARK VINA RESULT:      -7.6      2.405      6.629
REMARK  16 active torsions:
REMARK  status: ('A' for Active; 'I' for Inactive)
REMARK    1  A    between atoms: C_2  and  C_3 
REMARK    2  A    between atoms: C_3  and  C_4 
REMARK    3  A    between atoms: C_4  and  C_5 
REMARK    4  A    between atoms: C_5  and  C_6 
REMARK    5  A    between atoms: C_6  and  C_7 
REMARK    6  A    between atoms: C_7  and  C_8 
REMARK    7  A    between atoms: C_8  and  C_9 
REMARK    8  A    between atoms: C_9  and  C_10 
REMARK    9  A    between atoms: C_10  and  C_11 
REMARK   10  A    between atoms: C_11  and  C_12 
REMARK   11  A    between atoms: C_12  and  C_13 
REMARK   12  A    between atoms: C_13  and  C_14 
REMARK   13  A    between atoms: C_14  and  C_15 
REMARK   14  A    between atoms: C_15  and  C_16 
REMARK   15  A    between atoms: C_16  and  C_18 
REMARK   16  A    between atoms: C_19  and  O_30 
ROOT
HETATM    1  C   UNL     1     -20.952 -10.362  -0.293  1.00  0.00     0.162 C 
HETATM    2  O   UNL     1     -20.727 -10.445   0.899  1.00  0.00    -0.292 OA
ENDROOT
BRANCH   1   3
HETATM    3  C   UNL     1     -22.320  -9.917  -0.820  1.00  0.00     0.084 C 
BRANCH   3   4
HETATM    4  C   UNL     1     -23.169  -9.206   0.224  1.00  0.00     0.008 C 
BRANCH   4   5
HETATM    5  C   UNL     1     -23.047  -7.700   0.077  1.00  0.00     0.000 C 
BRANCH   5   6
HETATM    6  C   UNL     1     -21.885  -7.345  -0.831  1.00  0.00     0.000 C 
BRANCH   6   7
HETATM    7  C   UNL     1     -22.306  -6.290  -1.843  1.00  0.00     0.000 C 
BRANCH   7   8
HETATM    8  C   UNL     1     -21.298  -6.227  -2.980  1.00  0.00     0.000 C 
BRANCH   8   9
HETATM    9  C   UNL     1     -21.726  -7.134  -4.124  1.00  0.00     0.000 C 
BRANCH   9  10
HETATM   10  C   UNL     1     -21.568  -6.412  -5.453  1.00  0.00     0.000 C 
BRANCH  10  11
HETATM   11  C   UNL     1     -20.570  -5.272  -5.320  1.00  0.00     0.000 C 
BRANCH  11  12
HETATM   12  C   UNL     1     -20.630  -4.370  -6.544  1.00  0.00     0.000 C 
BRANCH  12  13
HETATM   13  C   UNL     1     -19.544  -4.751  -7.539  1.00  0.00     0.000 C 
BRANCH  13  14
HETATM   14  C   UNL     1     -20.055  -4.620  -8.968  1.00  0.00     0.000 C 
BRANCH  14  15
HETATM   15  C   UNL     1     -21.543  -4.291  -8.976  1.00  0.00    -0.000 C 
BRANCH  15  16
HETATM   16  C   UNL     1     -22.071  -4.178 -10.401  1.00  0.00    -0.005 C 
HETATM   17  C   UNL     1     -21.107  -3.394 -11.274  1.00  0.00     0.005 C 
ENDBRANCH  15  16
ENDBRANCH  14  15
ENDBRANCH  13  14
ENDBRANCH  12  13
ENDBRANCH  11  12
ENDBRANCH  10  11
ENDBRANCH   9  10
ENDBRANCH   8   9
ENDBRANCH   7   8
ENDBRANCH   6   7
ENDBRANCH   5   6
ENDBRANCH   4   5
ENDBRANCH   3   4
ENDBRANCH   1   3
BRANCH   1  18
HETATM   18  C   UNL     1     -19.889 -10.692  -1.292  1.00  0.00     0.044 A 
HETATM   19  C   UNL     1     -19.100 -11.852  -1.200  1.00  0.00     0.084 A 
HETATM   20  C   UNL     1     -18.170 -12.099  -2.209  1.00  0.00     0.075 A 
HETATM   21  C   UNL     1     -18.027 -11.230  -3.286  1.00  0.00     0.079 A 
HETATM   22  C   UNL     1     -18.814 -10.085  -3.390  1.00  0.00    -0.024 A 
HETATM   23  O   UNL     1     -17.106 -11.614  -4.217  1.00  0.00    -0.340 OA
HETATM   24  C   UNL     1     -19.727  -9.816  -2.376  1.00  0.00     0.028 A 
HETATM   25  C   UNL     1     -18.675  -9.151  -4.554  1.00  0.00     0.044 C 
HETATM   26  C   UNL     1     -17.997  -9.869  -5.715  1.00  0.00     0.042 C 
HETATM   27  C   UNL     1     -16.770 -10.666  -5.242  1.00  0.00     0.061 C 
HETATM   28  C   UNL     1     -16.235 -11.513  -6.406  1.00  0.00     0.046 C 
HETATM   29  C   UNL     1     -15.637  -9.769  -4.724  1.00  0.00     0.046 C 
BRANCH  19  30
HETATM   30  O   UNL     1     -19.313 -12.708  -0.154  1.00  0.00    -0.355 OA
HETATM   31  C   UNL     1     -18.364 -13.747   0.068  1.00  0.00     0.210 C 
ENDBRANCH  19  30
ENDBRANCH   1  18
TORSDOF 16
BEGIN_RES ARG D 557
REMARK  4 active torsions:
REMARK  status: ('A' for Active; 'I' for Inactive)
REMARK    1  A    between atoms: CA   and  CB  
REMARK    2  A    between atoms: CB   and  CG  
REMARK    3  A    between atoms: CG   and  CD  
REMARK    4  A    between atoms: CD   and  NE  
REMARK       I    between atoms: NE   and  CZ  
REMARK       I    between atoms: CZ   and  NH1 
REMARK       I    between atoms: CZ   and  NH2 
ROOT
ATOM      1  CA  ARG D 557     -26.217   2.705 -17.014  1.00 35.49     0.159 C 
ENDROOT
BRANCH   1   2
ATOM      2  CB  ARG D 557     -26.789   1.319 -17.183  1.00 35.49     0.034 C 
BRANCH   2   3
ATOM      3  CG  ARG D 557     -28.242   1.180 -17.023  1.00 35.49     0.027 C 
BRANCH   3   4
ATOM      4  CD  ARG D 557     -28.611  -0.023 -16.242  1.00 35.49     0.116 C 
BRANCH   4   5
ATOM      5  NE  ARG D 557     -29.327  -0.986 -17.036  1.00 35.49    -0.212 N 
ATOM      6  CZ  ARG D 557     -29.026  -2.260 -17.155  1.00 35.49     0.666 C 
ATOM      7  NH1 ARG D 557     -27.988  -2.803 -16.546  1.00 35.49    -0.235 N 
ATOM      8  NH2 ARG D 557     -29.800  -2.993 -17.901  1.00 35.49    -0.235 N 
ATOM      9  HH  ARG D 557     -27.466  -2.340 -16.048  1.00 35.49     0.174 HD
ATOM     10  HH  ARG D 557     -27.842  -3.640 -16.658  1.00 35.49     0.174 HD
ATOM     11  HH  ARG D 557     -30.467  -2.617 -18.276  1.00 35.49     0.174 HD
ATOM     12  HH  ARG D 557     -29.640  -3.820 -17.999  1.00 35.49     0.174 HD
ATOM     13  HE  ARG D 557     -29.968  -0.707 -17.520  1.00 35.49     0.178 HD
ENDBRANCH   4   5
ENDBRANCH   3   4
ENDBRANCH   2   3
ENDBRANCH   1   2
END_RES ARG D 557
BEGIN_RES GLU D 570
REMARK  3 active torsions:
REMARK  status: ('A' for Active; 'I' for Inactive)
REMARK    5  A    between atoms: CA   and  CB  
REMARK    6  A    between atoms: CB   and  CG  
REMARK    7  A    between atoms: CG   and  CD  
ROOT
ATOM     14  CA  GLU D 570     -18.033  -6.348 -13.375  1.00 32.92     0.160 C 
ENDROOT
BRANCH  14  15
ATOM     15  CB  GLU D 570     -19.500  -6.345 -13.794  1.00 32.92     0.043 C 
BRANCH  15  16
ATOM     16  CG  GLU D 570     -19.806  -6.029 -15.213  1.00 32.92     0.100 C 
BRANCH  16  17
ATOM     17  CD  GLU D 570     -21.243  -5.615 -15.428  1.00 32.92     0.185 C 
ATOM     18  OE1 GLU D 570     -21.502  -4.750 -16.287  1.00 32.92    -0.647 OA
ATOM     19  OE2 GLU D 570     -22.118  -6.149 -14.718  1.00 32.92    -0.647 OA
ENDBRANCH  16  17
ENDBRANCH  15  16
ENDBRANCH  14  15
END_RES GLU D 570
ENDMDL
MODEL 9
REMARK VINA RESULT:      -7.4      3.214      6.482
REMARK  16 active torsions:
REMARK  status: ('A' for Active; 'I' for Inactive)
REMARK    1  A    between atoms: C_2  and  C_3 
REMARK    2  A    between atoms: C_3  and  C_4 
REMARK    3  A    between atoms: C_4  and  C_5 
REMARK    4  A    between atoms: C_5  and  C_6 
REMARK    5  A    between atoms: C_6  and  C_7 
REMARK    6  A    between atoms: C_7  and  C_8 
REMARK    7  A    between atoms: C_8  and  C_9 
REMARK    8  A    between atoms: C_9  and  C_10 
REMARK    9  A    between atoms: C_10  and  C_11 
REMARK   10  A    between atoms: C_11  and  C_12 
REMARK   11  A    between atoms: C_12  and  C_13 
REMARK   12  A    between atoms: C_13  and  C_14 
REMARK   13  A    between atoms: C_14  and  C_15 
REMARK   14  A    between atoms: C_15  and  C_16 
REMARK   15  A    between atoms: C_16  and  C_18 
REMARK   16  A    between atoms: C_19  and  O_30 
ROOT
HETATM    1  C   UNL     1     -22.116 -10.034   0.054  1.00  0.00     0.162 C 
HETATM    2  O   UNL     1     -21.156 -10.053   0.800  1.00  0.00    -0.292 OA
ENDROOT
BRANCH   1   3
HETATM    3  C   UNL     1     -23.164  -8.920   0.127  1.00  0.00     0.084 C 
BRANCH   3   4
HETATM    4  C   UNL     1     -22.568  -7.522   0.033  1.00  0.00     0.008 C 
BRANCH   4   5
HETATM    5  C   UNL     1     -21.666  -7.407  -1.183  1.00  0.00     0.000 C 
BRANCH   5   6
HETATM    6  C   UNL     1     -22.161  -6.316  -2.113  1.00  0.00     0.000 C 
BRANCH   6   7
HETATM    7  C   UNL     1     -21.236  -6.183  -3.314  1.00  0.00     0.000 C 
BRANCH   7   8
HETATM    8  C   UNL     1     -22.012  -6.434  -4.598  1.00  0.00     0.000 C 
BRANCH   8   9
HETATM    9  C   UNL     1     -21.153  -7.189  -5.601  1.00  0.00     0.000 C 
BRANCH   9  10
HETATM   10  C   UNL     1     -20.506  -6.217  -6.575  1.00  0.00     0.000 C 
BRANCH  10  11
HETATM   11  C   UNL     1     -21.001  -4.802  -6.317  1.00  0.00     0.000 C 
BRANCH  11  12
HETATM   12  C   UNL     1     -20.704  -3.911  -7.513  1.00  0.00     0.000 C 
BRANCH  12  13
HETATM   13  C   UNL     1     -21.251  -4.533  -8.789  1.00  0.00     0.000 C 
BRANCH  13  14
HETATM   14  C   UNL     1     -20.483  -4.027 -10.004  1.00  0.00     0.000 C 
BRANCH  14  15
HETATM   15  C   UNL     1     -21.442  -3.452 -11.041  1.00  0.00    -0.000 C 
BRANCH  15  16
HETATM   16  C   UNL     1     -22.076  -4.560 -11.874  1.00  0.00    -0.005 C 
HETATM   17  C   UNL     1     -23.531  -4.761 -11.488  1.00  0.00     0.005 C 
ENDBRANCH  15  16
ENDBRANCH  14  15
ENDBRANCH  13  14
ENDBRANCH  12  13
ENDBRANCH  11  12
ENDBRANCH  10  11
ENDBRANCH   9  10
ENDBRANCH   8   9
ENDBRANCH   7   8
ENDBRANCH   6   7
ENDBRANCH   5   6
ENDBRANCH   4   5
ENDBRANCH   3   4
ENDBRANCH   1   3
BRANCH   1  18
HETATM   18  C   UNL     1     -22.304 -11.108  -0.970  1.00  0.00     0.044 A 
HETATM   19  C   UNL     1     -22.940 -12.327  -0.679  1.00  0.00     0.084 A 
HETATM   20  C   UNL     1     -23.115 -13.244  -1.715  1.00  0.00     0.075 A 
HETATM   21  C   UNL     1     -22.682 -12.964  -3.007  1.00  0.00     0.079 A 
HETATM   22  C   UNL     1     -22.061 -11.752  -3.305  1.00  0.00    -0.024 A 
HETATM   23  O   UNL     1     -22.949 -13.934  -3.927  1.00  0.00    -0.340 OA
HETATM   24  C   UNL     1     -21.859 -10.840  -2.274  1.00  0.00     0.028 A 
HETATM   25  C   UNL     1     -21.604 -11.437  -4.697  1.00  0.00     0.044 C 
HETATM   26  C   UNL     1     -22.331 -12.330  -5.695  1.00  0.00     0.042 C 
HETATM   27  C   UNL     1     -22.354 -13.794  -5.226  1.00  0.00     0.061 C 
HETATM   28  C   UNL     1     -23.250 -14.614  -6.165  1.00  0.00     0.046 C 
HETATM   29  C   UNL     1     -20.959 -14.433  -5.194  1.00  0.00     0.046 C 
BRANCH  19  30
HETATM   30  O   UNL     1     -23.401 -12.538   0.592  1.00  0.00    -0.355 OA
HETATM   31  C   UNL     1     -22.696 -13.460   1.418  1.00  0.00     0.210 C 
ENDBRANCH  19  30
ENDBRANCH   1  18
TORSDOF 16
BEGIN_RES ARG D 557
REMARK  4 active torsions:
REMARK  status: ('A' for Active; 'I' for Inactive)
REMARK    1  A    between atoms: CA   and  CB  
REMARK    2  A    between atoms: CB   and  CG  
REMARK    3  A    between atoms: CG   and  CD  
REMARK    4  A    between atoms: CD   and  NE  
REMARK       I    between atoms: NE   and  CZ  
REMARK       I    between atoms: CZ   and  NH1 
REMARK       I    between atoms: CZ   and  NH2 
ROOT
ATOM      1  CA  ARG D 557     -26.217   2.705 -17.014  1.00 35.49     0.159 C 
ENDROOT
BRANCH   1   2
ATOM      2  CB  ARG D 557     -26.789   1.319 -17.183  1.00 35.49     0.034 C 
BRANCH   2   3
ATOM      3  CG  ARG D 557     -25.836   0.203 -17.155  1.00 35.49     0.027 C 
BRANCH   3   4
ATOM      4  CD  ARG D 557     -24.721   0.437 -16.208  1.00 35.49     0.116 C 
BRANCH   4   5
ATOM      5  NE  ARG D 557     -24.817  -0.399 -15.040  1.00 35.49    -0.212 N 
ATOM      6  CZ  ARG D 557     -23.981  -1.358 -14.711  1.00 35.49     0.666 C 
ATOM      7  NH1 ARG D 557     -22.935  -1.673 -15.453  1.00 35.49    -0.235 N 
ATOM      8  NH2 ARG D 557     -24.211  -2.001 -13.603  1.00 35.49    -0.235 N 
ATOM      9  HH  ARG D 557     -22.764  -1.261 -16.185  1.00 35.49     0.174 HD
ATOM     10  HH  ARG D 557     -22.423  -2.306 -15.187  1.00 35.49     0.174 HD
ATOM     11  HH  ARG D 557     -24.889  -1.771 -13.140  1.00 35.49     0.174 HD
ATOM     12  HH  ARG D 557     -23.691  -2.624 -13.356  1.00 35.49     0.174 HD
ATOM     13  HE  ARG D 557     -25.502  -0.314 -14.543  1.00 35.49     0.178 HD
ENDBRANCH   4   5
ENDBRANCH   3   4
ENDBRANCH   2   3
ENDBRANCH   1   2
END_RES ARG D 557
BEGIN_RES GLU D 570
REMARK  3 active torsions:
REMARK  status: ('A' for Active; 'I' for Inactive)
REMARK    5  A    between atoms: CA   and  CB  
REMARK    6  A    between atoms: CB   and  CG  
REMARK    7  A    between atoms: CG   and  CD  
ROOT
ATOM     14  CA  GLU D 570     -18.033  -6.348 -13.375  1.00 32.92     0.160 C 
ENDROOT
BRANCH  14  15
ATOM     15  CB  GLU D 570     -19.500  -6.345 -13.794  1.00 32.92     0.043 C 
BRANCH  15  16
ATOM     16  CG  GLU D 570     -19.817  -5.898 -15.175  1.00 32.92     0.100 C 
BRANCH  16  17
ATOM     17  CD  GLU D 570     -21.289  -5.633 -15.386  1.00 32.92     0.185 C 
ATOM     18  OE1 GLU D 570     -22.108  -6.541 -15.143  1.00 32.92    -0.647 OA
ATOM     19  OE2 GLU D 570     -21.626  -4.512 -15.815  1.00 32.92    -0.647 OA
ENDBRANCH  16  17
ENDBRANCH  15  16
ENDBRANCH  14  15
END_RES GLU D 570
ENDMDL
