MODEL 1
REMARK VINA RESULT:      -1.0      0.000      0.000
REMARK  7 active torsions:
REMARK  status: ('A' for Active; 'I' for Inactive)
REMARK    1  A    between atoms: C_2  and  C_10 
REMARK    2  A    between atoms: C_4  and  O_9 
REMARK    3  A    between atoms: C_5  and  O_8 
REMARK    4  A    between atoms: C_6  and  O_7 
REMARK    5  A    between atoms: C_14  and  O_22 
REMARK    6  A    between atoms: C_16  and  O_21 
REMARK    7  A    between atoms: C_19  and  O_20 
ROOT
HETATM    1 CL   UNL     2     -29.853   7.490 -12.753  1.00  0.00     0.000 Cl
ENDROOT
TORSDOF 7
BEGIN_RES ARG D 557
REMARK  4 active torsions:
REMARK  status: ('A' for Active; 'I' for Inactive)
REMARK    1  A    between atoms: CA   and  CB  
REMARK    2  A    between atoms: CB   and  CG  
REMARK    3  A    between atoms: CG   and  CD  
REMARK    4  A    between atoms: CD   and  NE  
REMARK       I    between atoms: NE   and  CZ  
REMARK       I    between atoms: CZ   and  NH1 
REMARK       I    between atoms: CZ   and  NH2 
ROOT
ATOM      1  CA  ARG D 557     -26.217   2.705 -17.014  1.00 35.49     0.159 C 
ENDROOT
BRANCH   1   2
ATOM      2  CB  ARG D 557     -26.789   1.319 -17.183  1.00 35.49     0.034 C 
BRANCH   2   3
ATOM      3  CG  ARG D 557     -25.835   0.204 -17.166  1.00 35.49     0.027 C 
BRANCH   3   4
ATOM      4  CD  ARG D 557     -24.753   0.402 -16.175  1.00 35.49     0.116 C 
BRANCH   4   5
ATOM      5  NE  ARG D 557     -24.909  -0.448 -15.024  1.00 35.49    -0.212 N 
ATOM      6  CZ  ARG D 557     -24.094  -1.416 -14.668  1.00 35.49     0.666 C 
ATOM      7  NH1 ARG D 557     -23.016  -1.728 -15.365  1.00 35.49    -0.235 N 
ATOM      8  NH2 ARG D 557     -24.380  -2.072 -13.581  1.00 35.49    -0.235 N 
ATOM      9  HH  ARG D 557     -22.808  -1.308 -16.082  1.00 35.49     0.174 HD
ATOM     10  HH  ARG D 557     -22.521  -2.368 -15.083  1.00 35.49     0.174 HD
ATOM     11  HH  ARG D 557     -25.078  -1.844 -13.148  1.00 35.49     0.174 HD
ATOM     12  HH  ARG D 557     -23.876  -2.701 -13.318  1.00 35.49     0.174 HD
ATOM     13  HE  ARG D 557     -25.615  -0.365 -14.558  1.00 35.49     0.178 HD
ENDBRANCH   4   5
ENDBRANCH   3   4
ENDBRANCH   2   3
ENDBRANCH   1   2
END_RES ARG D 557
BEGIN_RES GLU D 570
REMARK  3 active torsions:
REMARK  status: ('A' for Active; 'I' for Inactive)
REMARK    5  A    between atoms: CA   and  CB  
REMARK    6  A    between atoms: CB   and  CG  
REMARK    7  A    between atoms: CG   and  CD  
ROOT
ATOM     14  CA  GLU D 570     -18.033  -6.348 -13.375  1.00 32.92     0.160 C 
ENDROOT
BRANCH  14  15
ATOM     15  CB  GLU D 570     -19.500  -6.345 -13.794  1.00 32.92     0.043 C 
BRANCH  15  16
ATOM     16  CG  GLU D 570     -20.444  -5.542 -12.974  1.00 32.92     0.100 C 
BRANCH  16  17
ATOM     17  CD  GLU D 570     -21.745  -5.254 -13.687  1.00 32.92     0.185 C 
ATOM     18  OE1 GLU D 570     -22.295  -4.148 -13.519  1.00 32.92    -0.647 OA
ATOM     19  OE2 GLU D 570     -22.228  -6.149 -14.409  1.00 32.92    -0.647 OA
ENDBRANCH  16  17
ENDBRANCH  15  16
ENDBRANCH  14  15
END_RES GLU D 570
ENDMDL
MODEL 2
REMARK VINA RESULT:      -0.9      3.841      3.841
REMARK  7 active torsions:
REMARK  status: ('A' for Active; 'I' for Inactive)
REMARK    1  A    between atoms: C_2  and  C_10 
REMARK    2  A    between atoms: C_4  and  O_9 
REMARK    3  A    between atoms: C_5  and  O_8 
REMARK    4  A    between atoms: C_6  and  O_7 
REMARK    5  A    between atoms: C_14  and  O_22 
REMARK    6  A    between atoms: C_16  and  O_21 
REMARK    7  A    between atoms: C_19  and  O_20 
ROOT
HETATM    1 CL   UNL     2     -37.004   0.514  -4.873  1.00  0.00     0.000 Cl
ENDROOT
TORSDOF 7
BEGIN_RES ARG D 557
REMARK  4 active torsions:
REMARK  status: ('A' for Active; 'I' for Inactive)
REMARK    1  A    between atoms: CA   and  CB  
REMARK    2  A    between atoms: CB   and  CG  
REMARK    3  A    between atoms: CG   and  CD  
REMARK    4  A    between atoms: CD   and  NE  
REMARK       I    between atoms: NE   and  CZ  
REMARK       I    between atoms: CZ   and  NH1 
REMARK       I    between atoms: CZ   and  NH2 
ROOT
ATOM      1  CA  ARG D 557     -26.217   2.705 -17.014  1.00 35.49     0.159 C 
ENDROOT
BRANCH   1   2
ATOM      2  CB  ARG D 557     -26.789   1.319 -17.183  1.00 35.49     0.034 C 
BRANCH   2   3
ATOM      3  CG  ARG D 557     -25.832   0.206 -17.188  1.00 35.49     0.027 C 
BRANCH   3   4
ATOM      4  CD  ARG D 557     -24.752   0.385 -16.191  1.00 35.49     0.116 C 
BRANCH   4   5
ATOM      5  NE  ARG D 557     -24.937  -0.453 -15.036  1.00 35.49    -0.212 N 
ATOM      6  CZ  ARG D 557     -24.141  -1.429 -14.660  1.00 35.49     0.666 C 
ATOM      7  NH1 ARG D 557     -23.057  -1.761 -15.337  1.00 35.49    -0.235 N 
ATOM      8  NH2 ARG D 557     -24.451  -2.072 -13.571  1.00 35.49    -0.235 N 
ATOM      9  HH  ARG D 557     -22.833  -1.351 -16.055  1.00 35.49     0.174 HD
ATOM     10  HH  ARG D 557     -22.574  -2.405 -15.042  1.00 35.49     0.174 HD
ATOM     11  HH  ARG D 557     -25.153  -1.830 -13.150  1.00 35.49     0.174 HD
ATOM     12  HH  ARG D 557     -23.960  -2.705 -13.295  1.00 35.49     0.174 HD
ATOM     13  HE  ARG D 557     -25.649  -0.356 -14.581  1.00 35.49     0.178 HD
ENDBRANCH   4   5
ENDBRANCH   3   4
ENDBRANCH   2   3
ENDBRANCH   1   2
END_RES ARG D 557
BEGIN_RES GLU D 570
REMARK  3 active torsions:
REMARK  status: ('A' for Active; 'I' for Inactive)
REMARK    5  A    between atoms: CA   and  CB  
REMARK    6  A    between atoms: CB   and  CG  
REMARK    7  A    between atoms: CG   and  CD  
ROOT
ATOM     14  CA  GLU D 570     -18.033  -6.348 -13.375  1.00 32.92     0.160 C 
ENDROOT
BRANCH  14  15
ATOM     15  CB  GLU D 570     -19.500  -6.345 -13.794  1.00 32.92     0.043 C 
BRANCH  15  16
ATOM     16  CG  GLU D 570     -20.442  -5.532 -12.982  1.00 32.92     0.100 C 
BRANCH  16  17
ATOM     17  CD  GLU D 570     -21.681  -5.128 -13.746  1.00 32.92     0.185 C 
ATOM     18  OE1 GLU D 570     -22.362  -4.170 -13.333  1.00 32.92    -0.647 OA
ATOM     19  OE2 GLU D 570     -21.984  -5.787 -14.760  1.00 32.92    -0.647 OA
ENDBRANCH  16  17
ENDBRANCH  15  16
ENDBRANCH  14  15
END_RES GLU D 570
ENDMDL
MODEL 3
REMARK VINA RESULT:      -0.9      5.826      5.900
REMARK  7 active torsions:
REMARK  status: ('A' for Active; 'I' for Inactive)
REMARK    1  A    between atoms: C_2  and  C_10 
REMARK    2  A    between atoms: C_4  and  O_9 
REMARK    3  A    between atoms: C_5  and  O_8 
REMARK    4  A    between atoms: C_6  and  O_7 
REMARK    5  A    between atoms: C_14  and  O_22 
REMARK    6  A    between atoms: C_16  and  O_21 
REMARK    7  A    between atoms: C_19  and  O_20 
ROOT
HETATM    1 CL   UNL     2     -22.263  -6.346  -1.604  1.00  0.00     0.000 Cl
ENDROOT
TORSDOF 7
BEGIN_RES ARG D 557
REMARK  4 active torsions:
REMARK  status: ('A' for Active; 'I' for Inactive)
REMARK    1  A    between atoms: CA   and  CB  
REMARK    2  A    between atoms: CB   and  CG  
REMARK    3  A    between atoms: CG   and  CD  
REMARK    4  A    between atoms: CD   and  NE  
REMARK       I    between atoms: NE   and  CZ  
REMARK       I    between atoms: CZ   and  NH1 
REMARK       I    between atoms: CZ   and  NH2 
ROOT
ATOM      1  CA  ARG D 557     -26.217   2.705 -17.014  1.00 35.49     0.159 C 
ENDROOT
BRANCH   1   2
ATOM      2  CB  ARG D 557     -26.789   1.319 -17.183  1.00 35.49     0.034 C 
BRANCH   2   3
ATOM      3  CG  ARG D 557     -25.837   0.202 -17.142  1.00 35.49     0.027 C 
BRANCH   3   4
ATOM      4  CD  ARG D 557     -24.740   0.431 -16.174  1.00 35.49     0.116 C 
BRANCH   4   5
ATOM      5  NE  ARG D 557     -24.867  -0.399 -15.005  1.00 35.49    -0.212 N 
ATOM      6  CZ  ARG D 557     -24.064  -1.386 -14.673  1.00 35.49     0.666 C 
ATOM      7  NH1 ARG D 557     -23.029  -1.738 -15.414  1.00 35.49    -0.235 N 
ATOM      8  NH2 ARG D 557     -24.317  -2.019 -13.565  1.00 35.49    -0.235 N 
ATOM      9  HH  ARG D 557     -22.842  -1.334 -16.146  1.00 35.49     0.174 HD
ATOM     10  HH  ARG D 557     -22.539  -2.387 -15.145  1.00 35.49     0.174 HD
ATOM     11  HH  ARG D 557     -24.988  -1.764 -13.103  1.00 35.49     0.174 HD
ATOM     12  HH  ARG D 557     -23.820  -2.658 -13.315  1.00 35.49     0.174 HD
ATOM     13  HE  ARG D 557     -25.548  -0.289 -14.509  1.00 35.49     0.178 HD
ENDBRANCH   4   5
ENDBRANCH   3   4
ENDBRANCH   2   3
ENDBRANCH   1   2
END_RES ARG D 557
BEGIN_RES GLU D 570
REMARK  3 active torsions:
REMARK  status: ('A' for Active; 'I' for Inactive)
REMARK    5  A    between atoms: CA   and  CB  
REMARK    6  A    between atoms: CB   and  CG  
REMARK    7  A    between atoms: CG   and  CD  
ROOT
ATOM     14  CA  GLU D 570     -18.033  -6.348 -13.375  1.00 32.92     0.160 C 
ENDROOT
BRANCH  14  15
ATOM     15  CB  GLU D 570     -19.500  -6.345 -13.794  1.00 32.92     0.043 C 
BRANCH  15  16
ATOM     16  CG  GLU D 570     -20.437  -5.511 -12.999  1.00 32.92     0.100 C 
BRANCH  16  17
ATOM     17  CD  GLU D 570     -21.745  -5.251 -13.710  1.00 32.92     0.185 C 
ATOM     18  OE1 GLU D 570     -22.205  -6.127 -14.468  1.00 32.92    -0.647 OA
ATOM     19  OE2 GLU D 570     -22.306  -4.154 -13.521  1.00 32.92    -0.647 OA
ENDBRANCH  16  17
ENDBRANCH  15  16
ENDBRANCH  14  15
END_RES GLU D 570
ENDMDL
MODEL 4
REMARK VINA RESULT:      -0.9      5.054      5.054
REMARK  7 active torsions:
REMARK  status: ('A' for Active; 'I' for Inactive)
REMARK    1  A    between atoms: C_2  and  C_10 
REMARK    2  A    between atoms: C_4  and  O_9 
REMARK    3  A    between atoms: C_5  and  O_8 
REMARK    4  A    between atoms: C_6  and  O_7 
REMARK    5  A    between atoms: C_14  and  O_22 
REMARK    6  A    between atoms: C_16  and  O_21 
REMARK    7  A    between atoms: C_19  and  O_20 
ROOT
HETATM    1 CL   UNL     2     -29.163   6.523   3.968  1.00  0.00     0.000 Cl
ENDROOT
TORSDOF 7
BEGIN_RES ARG D 557
REMARK  4 active torsions:
REMARK  status: ('A' for Active; 'I' for Inactive)
REMARK    1  A    between atoms: CA   and  CB  
REMARK    2  A    between atoms: CB   and  CG  
REMARK    3  A    between atoms: CG   and  CD  
REMARK    4  A    between atoms: CD   and  NE  
REMARK       I    between atoms: NE   and  CZ  
REMARK       I    between atoms: CZ   and  NH1 
REMARK       I    between atoms: CZ   and  NH2 
ROOT
ATOM      1  CA  ARG D 557     -26.217   2.705 -17.014  1.00 35.49     0.159 C 
ENDROOT
BRANCH   1   2
ATOM      2  CB  ARG D 557     -26.789   1.319 -17.183  1.00 35.49     0.034 C 
BRANCH   2   3
ATOM      3  CG  ARG D 557     -25.835   0.203 -17.158  1.00 35.49     0.027 C 
BRANCH   3   4
ATOM      4  CD  ARG D 557     -24.756   0.406 -16.165  1.00 35.49     0.116 C 
BRANCH   4   5
ATOM      5  NE  ARG D 557     -24.908  -0.449 -15.017  1.00 35.49    -0.212 N 
ATOM      6  CZ  ARG D 557     -24.092  -1.417 -14.666  1.00 35.49     0.666 C 
ATOM      7  NH1 ARG D 557     -23.016  -1.726 -15.366  1.00 35.49    -0.235 N 
ATOM      8  NH2 ARG D 557     -24.375  -2.077 -13.580  1.00 35.49    -0.235 N 
ATOM      9  HH  ARG D 557     -22.810  -1.303 -16.082  1.00 35.49     0.174 HD
ATOM     10  HH  ARG D 557     -22.519  -2.366 -15.087  1.00 35.49     0.174 HD
ATOM     11  HH  ARG D 557     -25.072  -1.851 -13.145  1.00 35.49     0.174 HD
ATOM     12  HH  ARG D 557     -23.870  -2.706 -13.320  1.00 35.49     0.174 HD
ATOM     13  HE  ARG D 557     -25.614  -0.367 -14.549  1.00 35.49     0.178 HD
ENDBRANCH   4   5
ENDBRANCH   3   4
ENDBRANCH   2   3
ENDBRANCH   1   2
END_RES ARG D 557
BEGIN_RES GLU D 570
REMARK  3 active torsions:
REMARK  status: ('A' for Active; 'I' for Inactive)
REMARK    5  A    between atoms: CA   and  CB  
REMARK    6  A    between atoms: CB   and  CG  
REMARK    7  A    between atoms: CG   and  CD  
ROOT
ATOM     14  CA  GLU D 570     -18.033  -6.348 -13.375  1.00 32.92     0.160 C 
ENDROOT
BRANCH  14  15
ATOM     15  CB  GLU D 570     -19.500  -6.345 -13.794  1.00 32.92     0.043 C 
BRANCH  15  16
ATOM     16  CG  GLU D 570     -20.444  -5.542 -12.975  1.00 32.92     0.100 C 
BRANCH  16  17
ATOM     17  CD  GLU D 570     -21.742  -5.248 -13.690  1.00 32.92     0.185 C 
ATOM     18  OE1 GLU D 570     -22.310  -4.157 -13.490  1.00 32.92    -0.647 OA
ATOM     19  OE2 GLU D 570     -22.205  -6.124 -14.447  1.00 32.92    -0.647 OA
ENDBRANCH  16  17
ENDBRANCH  15  16
ENDBRANCH  14  15
END_RES GLU D 570
ENDMDL
MODEL 5
REMARK VINA RESULT:      -0.9      7.912      7.912
REMARK  7 active torsions:
REMARK  status: ('A' for Active; 'I' for Inactive)
REMARK    1  A    between atoms: C_2  and  C_10 
REMARK    2  A    between atoms: C_4  and  O_9 
REMARK    3  A    between atoms: C_5  and  O_8 
REMARK    4  A    between atoms: C_6  and  O_7 
REMARK    5  A    between atoms: C_14  and  O_22 
REMARK    6  A    between atoms: C_16  and  O_21 
REMARK    7  A    between atoms: C_19  and  O_20 
ROOT
HETATM    1 CL   UNL     2     -29.751 -15.233   0.374  1.00  0.00     0.000 Cl
ENDROOT
TORSDOF 7
BEGIN_RES ARG D 557
REMARK  4 active torsions:
REMARK  status: ('A' for Active; 'I' for Inactive)
REMARK    1  A    between atoms: CA   and  CB  
REMARK    2  A    between atoms: CB   and  CG  
REMARK    3  A    between atoms: CG   and  CD  
REMARK    4  A    between atoms: CD   and  NE  
REMARK       I    between atoms: NE   and  CZ  
REMARK       I    between atoms: CZ   and  NH1 
REMARK       I    between atoms: CZ   and  NH2 
ROOT
ATOM      1  CA  ARG D 557     -26.217   2.705 -17.014  1.00 35.49     0.159 C 
ENDROOT
BRANCH   1   2
ATOM      2  CB  ARG D 557     -26.789   1.319 -17.183  1.00 35.49     0.034 C 
BRANCH   2   3
ATOM      3  CG  ARG D 557     -25.836   0.203 -17.157  1.00 35.49     0.027 C 
BRANCH   3   4
ATOM      4  CD  ARG D 557     -24.752   0.410 -16.169  1.00 35.49     0.116 C 
BRANCH   4   5
ATOM      5  NE  ARG D 557     -24.900  -0.440 -15.016  1.00 35.49    -0.212 N 
ATOM      6  CZ  ARG D 557     -24.087  -1.412 -14.669  1.00 35.49     0.666 C 
ATOM      7  NH1 ARG D 557     -23.018  -1.729 -15.377  1.00 35.49    -0.235 N 
ATOM      8  NH2 ARG D 557     -24.364  -2.066 -13.579  1.00 35.49    -0.235 N 
ATOM      9  HH  ARG D 557     -22.815  -1.310 -16.096  1.00 35.49     0.174 HD
ATOM     10  HH  ARG D 557     -22.523  -2.371 -15.100  1.00 35.49     0.174 HD
ATOM     11  HH  ARG D 557     -25.057  -1.834 -13.138  1.00 35.49     0.174 HD
ATOM     12  HH  ARG D 557     -23.860  -2.697 -13.321  1.00 35.49     0.174 HD
ATOM     13  HE  ARG D 557     -25.602  -0.353 -14.543  1.00 35.49     0.178 HD
ENDBRANCH   4   5
ENDBRANCH   3   4
ENDBRANCH   2   3
ENDBRANCH   1   2
END_RES ARG D 557
BEGIN_RES GLU D 570
REMARK  3 active torsions:
REMARK  status: ('A' for Active; 'I' for Inactive)
REMARK    5  A    between atoms: CA   and  CB  
REMARK    6  A    between atoms: CB   and  CG  
REMARK    7  A    between atoms: CG   and  CD  
ROOT
ATOM     14  CA  GLU D 570     -18.033  -6.348 -13.375  1.00 32.92     0.160 C 
ENDROOT
BRANCH  14  15
ATOM     15  CB  GLU D 570     -19.500  -6.345 -13.794  1.00 32.92     0.043 C 
BRANCH  15  16
ATOM     16  CG  GLU D 570     -20.443  -5.538 -12.978  1.00 32.92     0.100 C 
BRANCH  16  17
ATOM     17  CD  GLU D 570     -21.741  -5.245 -13.695  1.00 32.92     0.185 C 
ATOM     18  OE1 GLU D 570     -22.297  -4.144 -13.515  1.00 32.92    -0.647 OA
ATOM     19  OE2 GLU D 570     -22.215  -6.132 -14.431  1.00 32.92    -0.647 OA
ENDBRANCH  16  17
ENDBRANCH  15  16
ENDBRANCH  14  15
END_RES GLU D 570
ENDMDL
MODEL 6
REMARK VINA RESULT:      -0.8      3.881      3.881
REMARK  7 active torsions:
REMARK  status: ('A' for Active; 'I' for Inactive)
REMARK    1  A    between atoms: C_2  and  C_10 
REMARK    2  A    between atoms: C_4  and  O_9 
REMARK    3  A    between atoms: C_5  and  O_8 
REMARK    4  A    between atoms: C_6  and  O_7 
REMARK    5  A    between atoms: C_14  and  O_22 
REMARK    6  A    between atoms: C_16  and  O_21 
REMARK    7  A    between atoms: C_19  and  O_20 
ROOT
HETATM    1 CL   UNL     2     -23.844   5.920  -1.481  1.00  0.00     0.000 Cl
ENDROOT
TORSDOF 7
BEGIN_RES ARG D 557
REMARK  4 active torsions:
REMARK  status: ('A' for Active; 'I' for Inactive)
REMARK    1  A    between atoms: CA   and  CB  
REMARK    2  A    between atoms: CB   and  CG  
REMARK    3  A    between atoms: CG   and  CD  
REMARK    4  A    between atoms: CD   and  NE  
REMARK       I    between atoms: NE   and  CZ  
REMARK       I    between atoms: CZ   and  NH1 
REMARK       I    between atoms: CZ   and  NH2 
ROOT
ATOM      1  CA  ARG D 557     -26.217   2.705 -17.014  1.00 35.49     0.159 C 
ENDROOT
BRANCH   1   2
ATOM      2  CB  ARG D 557     -26.789   1.319 -17.183  1.00 35.49     0.034 C 
BRANCH   2   3
ATOM      3  CG  ARG D 557     -25.834   0.205 -17.176  1.00 35.49     0.027 C 
BRANCH   3   4
ATOM      4  CD  ARG D 557     -24.768   0.381 -16.163  1.00 35.49     0.116 C 
BRANCH   4   5
ATOM      5  NE  ARG D 557     -24.953  -0.481 -15.025  1.00 35.49    -0.212 N 
ATOM      6  CZ  ARG D 557     -24.146  -1.451 -14.658  1.00 35.49     0.666 C 
ATOM      7  NH1 ARG D 557     -23.049  -1.754 -15.328  1.00 35.49    -0.235 N 
ATOM      8  NH2 ARG D 557     -24.459  -2.118 -13.585  1.00 35.49    -0.235 N 
ATOM      9  HH  ARG D 557     -22.823  -1.326 -16.035  1.00 35.49     0.174 HD
ATOM     10  HH  ARG D 557     -22.560  -2.395 -15.039  1.00 35.49     0.174 HD
ATOM     11  HH  ARG D 557     -25.169  -1.896 -13.169  1.00 35.49     0.174 HD
ATOM     12  HH  ARG D 557     -23.961  -2.749 -13.315  1.00 35.49     0.174 HD
ATOM     13  HE  ARG D 557     -25.672  -0.403 -14.578  1.00 35.49     0.178 HD
ENDBRANCH   4   5
ENDBRANCH   3   4
ENDBRANCH   2   3
ENDBRANCH   1   2
END_RES ARG D 557
BEGIN_RES GLU D 570
REMARK  3 active torsions:
REMARK  status: ('A' for Active; 'I' for Inactive)
REMARK    5  A    between atoms: CA   and  CB  
REMARK    6  A    between atoms: CB   and  CG  
REMARK    7  A    between atoms: CG   and  CD  
ROOT
ATOM     14  CA  GLU D 570     -18.033  -6.348 -13.375  1.00 32.92     0.160 C 
ENDROOT
BRANCH  14  15
ATOM     15  CB  GLU D 570     -19.500  -6.345 -13.794  1.00 32.92     0.043 C 
BRANCH  15  16
ATOM     16  CG  GLU D 570     -20.441  -5.527 -12.986  1.00 32.92     0.100 C 
BRANCH  16  17
ATOM     17  CD  GLU D 570     -21.739  -5.240 -13.704  1.00 32.92     0.185 C 
ATOM     18  OE1 GLU D 570     -22.363  -4.197 -13.431  1.00 32.92    -0.647 OA
ATOM     19  OE2 GLU D 570     -22.143  -6.074 -14.538  1.00 32.92    -0.647 OA
ENDBRANCH  16  17
ENDBRANCH  15  16
ENDBRANCH  14  15
END_RES GLU D 570
ENDMDL
MODEL 7
REMARK VINA RESULT:      -0.8      6.892      6.892
REMARK  7 active torsions:
REMARK  status: ('A' for Active; 'I' for Inactive)
REMARK    1  A    between atoms: C_2  and  C_10 
REMARK    2  A    between atoms: C_4  and  O_9 
REMARK    3  A    between atoms: C_5  and  O_8 
REMARK    4  A    between atoms: C_6  and  O_7 
REMARK    5  A    between atoms: C_14  and  O_22 
REMARK    6  A    between atoms: C_16  and  O_21 
REMARK    7  A    between atoms: C_19  and  O_20 
ROOT
HETATM    1 CL   UNL     2     -29.888 -15.077  -9.109  1.00  0.00     0.000 Cl
ENDROOT
TORSDOF 7
BEGIN_RES ARG D 557
REMARK  4 active torsions:
REMARK  status: ('A' for Active; 'I' for Inactive)
REMARK    1  A    between atoms: CA   and  CB  
REMARK    2  A    between atoms: CB   and  CG  
REMARK    3  A    between atoms: CG   and  CD  
REMARK    4  A    between atoms: CD   and  NE  
REMARK       I    between atoms: NE   and  CZ  
REMARK       I    between atoms: CZ   and  NH1 
REMARK       I    between atoms: CZ   and  NH2 
ROOT
ATOM      1  CA  ARG D 557     -26.217   2.705 -17.014  1.00 35.49     0.159 C 
ENDROOT
BRANCH   1   2
ATOM      2  CB  ARG D 557     -26.789   1.319 -17.183  1.00 35.49     0.034 C 
BRANCH   2   3
ATOM      3  CG  ARG D 557     -25.834   0.204 -17.168  1.00 35.49     0.027 C 
BRANCH   3   4
ATOM      4  CD  ARG D 557     -24.745   0.407 -16.187  1.00 35.49     0.116 C 
BRANCH   4   5
ATOM      5  NE  ARG D 557     -24.893  -0.436 -15.030  1.00 35.49    -0.212 N 
ATOM      6  CZ  ARG D 557     -24.078  -1.404 -14.675  1.00 35.49     0.666 C 
ATOM      7  NH1 ARG D 557     -23.008  -1.724 -15.378  1.00 35.49    -0.235 N 
ATOM      8  NH2 ARG D 557     -24.357  -2.053 -13.582  1.00 35.49    -0.235 N 
ATOM      9  HH  ARG D 557     -22.804  -1.309 -16.100  1.00 35.49     0.174 HD
ATOM     10  HH  ARG D 557     -22.511  -2.363 -15.097  1.00 35.49     0.174 HD
ATOM     11  HH  ARG D 557     -25.051  -1.820 -13.144  1.00 35.49     0.174 HD
ATOM     12  HH  ARG D 557     -23.852  -2.682 -13.319  1.00 35.49     0.174 HD
ATOM     13  HE  ARG D 557     -25.596  -0.348 -14.559  1.00 35.49     0.178 HD
ENDBRANCH   4   5
ENDBRANCH   3   4
ENDBRANCH   2   3
ENDBRANCH   1   2
END_RES ARG D 557
BEGIN_RES GLU D 570
REMARK  3 active torsions:
REMARK  status: ('A' for Active; 'I' for Inactive)
REMARK    5  A    between atoms: CA   and  CB  
REMARK    6  A    between atoms: CB   and  CG  
REMARK    7  A    between atoms: CG   and  CD  
ROOT
ATOM     14  CA  GLU D 570     -18.033  -6.348 -13.375  1.00 32.92     0.160 C 
ENDROOT
BRANCH  14  15
ATOM     15  CB  GLU D 570     -19.500  -6.345 -13.794  1.00 32.92     0.043 C 
BRANCH  15  16
ATOM     16  CG  GLU D 570     -20.441  -5.527 -12.986  1.00 32.92     0.100 C 
BRANCH  16  17
ATOM     17  CD  GLU D 570     -21.744  -5.251 -13.699  1.00 32.92     0.185 C 
ATOM     18  OE1 GLU D 570     -22.311  -4.156 -13.521  1.00 32.92    -0.647 OA
ATOM     19  OE2 GLU D 570     -22.211  -6.146 -14.431  1.00 32.92    -0.647 OA
ENDBRANCH  16  17
ENDBRANCH  15  16
ENDBRANCH  14  15
END_RES GLU D 570
ENDMDL
MODEL 8
REMARK VINA RESULT:      -0.8      3.719      3.719
REMARK  7 active torsions:
REMARK  status: ('A' for Active; 'I' for Inactive)
REMARK    1  A    between atoms: C_2  and  C_10 
REMARK    2  A    between atoms: C_4  and  O_9 
REMARK    3  A    between atoms: C_5  and  O_8 
REMARK    4  A    between atoms: C_6  and  O_7 
REMARK    5  A    between atoms: C_14  and  O_22 
REMARK    6  A    between atoms: C_16  and  O_21 
REMARK    7  A    between atoms: C_19  and  O_20 
ROOT
HETATM    1 CL   UNL     2     -24.657  -3.255  -9.640  1.00  0.00     0.000 Cl
ENDROOT
TORSDOF 7
BEGIN_RES ARG D 557
REMARK  4 active torsions:
REMARK  status: ('A' for Active; 'I' for Inactive)
REMARK    1  A    between atoms: CA   and  CB  
REMARK    2  A    between atoms: CB   and  CG  
REMARK    3  A    between atoms: CG   and  CD  
REMARK    4  A    between atoms: CD   and  NE  
REMARK       I    between atoms: NE   and  CZ  
REMARK       I    between atoms: CZ   and  NH1 
REMARK       I    between atoms: CZ   and  NH2 
ROOT
ATOM      1  CA  ARG D 557     -26.217   2.705 -17.014  1.00 35.49     0.159 C 
ENDROOT
BRANCH   1   2
ATOM      2  CB  ARG D 557     -26.789   1.319 -17.183  1.00 35.49     0.034 C 
BRANCH   2   3
ATOM      3  CG  ARG D 557     -25.834   0.204 -17.173  1.00 35.49     0.027 C 
BRANCH   3   4
ATOM      4  CD  ARG D 557     -24.749   0.400 -16.185  1.00 35.49     0.116 C 
BRANCH   4   5
ATOM      5  NE  ARG D 557     -24.908  -0.445 -15.030  1.00 35.49    -0.212 N 
ATOM      6  CZ  ARG D 557     -24.096  -1.413 -14.669  1.00 35.49     0.666 C 
ATOM      7  NH1 ARG D 557     -23.018  -1.730 -15.363  1.00 35.49    -0.235 N 
ATOM      8  NH2 ARG D 557     -24.384  -2.064 -13.580  1.00 35.49    -0.235 N 
ATOM      9  HH  ARG D 557     -22.808  -1.314 -16.081  1.00 35.49     0.174 HD
ATOM     10  HH  ARG D 557     -22.524  -2.369 -15.077  1.00 35.49     0.174 HD
ATOM     11  HH  ARG D 557     -25.083  -1.832 -13.148  1.00 35.49     0.174 HD
ATOM     12  HH  ARG D 557     -23.882  -2.692 -13.312  1.00 35.49     0.174 HD
ATOM     13  HE  ARG D 557     -25.615  -0.358 -14.566  1.00 35.49     0.178 HD
ENDBRANCH   4   5
ENDBRANCH   3   4
ENDBRANCH   2   3
ENDBRANCH   1   2
END_RES ARG D 557
BEGIN_RES GLU D 570
REMARK  3 active torsions:
REMARK  status: ('A' for Active; 'I' for Inactive)
REMARK    5  A    between atoms: CA   and  CB  
REMARK    6  A    between atoms: CB   and  CG  
REMARK    7  A    between atoms: CG   and  CD  
ROOT
ATOM     14  CA  GLU D 570     -18.033  -6.348 -13.375  1.00 32.92     0.160 C 
ENDROOT
BRANCH  14  15
ATOM     15  CB  GLU D 570     -19.500  -6.345 -13.794  1.00 32.92     0.043 C 
BRANCH  15  16
ATOM     16  CG  GLU D 570     -20.443  -5.535 -12.980  1.00 32.92     0.100 C 
BRANCH  16  17
ATOM     17  CD  GLU D 570     -21.746  -5.255 -13.692  1.00 32.92     0.185 C 
ATOM     18  OE1 GLU D 570     -22.309  -4.157 -13.515  1.00 32.92    -0.647 OA
ATOM     19  OE2 GLU D 570     -22.217  -6.149 -14.423  1.00 32.92    -0.647 OA
ENDBRANCH  16  17
ENDBRANCH  15  16
ENDBRANCH  14  15
END_RES GLU D 570
ENDMDL
MODEL 9
REMARK VINA RESULT:      -0.7      4.852      4.941
REMARK  7 active torsions:
REMARK  status: ('A' for Active; 'I' for Inactive)
REMARK    1  A    between atoms: C_2  and  C_10 
REMARK    2  A    between atoms: C_4  and  O_9 
REMARK    3  A    between atoms: C_5  and  O_8 
REMARK    4  A    between atoms: C_6  and  O_7 
REMARK    5  A    between atoms: C_14  and  O_22 
REMARK    6  A    between atoms: C_16  and  O_21 
REMARK    7  A    between atoms: C_19  and  O_20 
ROOT
HETATM    1 CL   UNL     2     -36.308   8.661   1.940  1.00  0.00     0.000 Cl
ENDROOT
TORSDOF 7
BEGIN_RES ARG D 557
REMARK  4 active torsions:
REMARK  status: ('A' for Active; 'I' for Inactive)
REMARK    1  A    between atoms: CA   and  CB  
REMARK    2  A    between atoms: CB   and  CG  
REMARK    3  A    between atoms: CG   and  CD  
REMARK    4  A    between atoms: CD   and  NE  
REMARK       I    between atoms: NE   and  CZ  
REMARK       I    between atoms: CZ   and  NH1 
REMARK       I    between atoms: CZ   and  NH2 
ROOT
ATOM      1  CA  ARG D 557     -26.217   2.705 -17.014  1.00 35.49     0.159 C 
ENDROOT
BRANCH   1   2
ATOM      2  CB  ARG D 557     -26.789   1.319 -17.183  1.00 35.49     0.034 C 
BRANCH   2   3
ATOM      3  CG  ARG D 557     -25.836   0.203 -17.154  1.00 35.49     0.027 C 
BRANCH   3   4
ATOM      4  CD  ARG D 557     -24.753   0.411 -16.166  1.00 35.49     0.116 C 
BRANCH   4   5
ATOM      5  NE  ARG D 557     -24.899  -0.439 -15.014  1.00 35.49    -0.212 N 
ATOM      6  CZ  ARG D 557     -24.086  -1.413 -14.670  1.00 35.49     0.666 C 
ATOM      7  NH1 ARG D 557     -23.020  -1.731 -15.381  1.00 35.49    -0.235 N 
ATOM      8  NH2 ARG D 557     -24.361  -2.068 -13.580  1.00 35.49    -0.235 N 
ATOM      9  HH  ARG D 557     -22.818  -1.312 -16.101  1.00 35.49     0.174 HD
ATOM     10  HH  ARG D 557     -22.524  -2.374 -15.106  1.00 35.49     0.174 HD
ATOM     11  HH  ARG D 557     -25.052  -1.836 -13.137  1.00 35.49     0.174 HD
ATOM     12  HH  ARG D 557     -23.858  -2.700 -13.324  1.00 35.49     0.174 HD
ATOM     13  HE  ARG D 557     -25.599  -0.352 -14.539  1.00 35.49     0.178 HD
ENDBRANCH   4   5
ENDBRANCH   3   4
ENDBRANCH   2   3
ENDBRANCH   1   2
END_RES ARG D 557
BEGIN_RES GLU D 570
REMARK  3 active torsions:
REMARK  status: ('A' for Active; 'I' for Inactive)
REMARK    5  A    between atoms: CA   and  CB  
REMARK    6  A    between atoms: CB   and  CG  
REMARK    7  A    between atoms: CG   and  CD  
ROOT
ATOM     14  CA  GLU D 570     -18.033  -6.348 -13.375  1.00 32.92     0.160 C 
ENDROOT
BRANCH  14  15
ATOM     15  CB  GLU D 570     -19.500  -6.345 -13.794  1.00 32.92     0.043 C 
BRANCH  15  16
ATOM     16  CG  GLU D 570     -20.444  -5.543 -12.974  1.00 32.92     0.100 C 
BRANCH  16  17
ATOM     17  CD  GLU D 570     -21.745  -5.253 -13.687  1.00 32.92     0.185 C 
ATOM     18  OE1 GLU D 570     -22.245  -6.132 -14.415  1.00 32.92    -0.647 OA
ATOM     19  OE2 GLU D 570     -22.260  -4.129 -13.530  1.00 32.92    -0.647 OA
ENDBRANCH  16  17
ENDBRANCH  15  16
ENDBRANCH  14  15
END_RES GLU D 570
ENDMDL
