MODEL 1
REMARK VINA RESULT:      -7.9      0.000      0.000
REMARK  12 active torsions:
REMARK  status: ('A' for Active; 'I' for Inactive)
REMARK    1  A    between atoms: C_1  and  C_2 
REMARK    2  A    between atoms: C_1  and  O_23 
REMARK    3  A    between atoms: C_3  and  O_22 
REMARK    4  A    between atoms: C_4  and  O_21 
REMARK    5  A    between atoms: C_5  and  O_20 
REMARK    6  A    between atoms: C_6  and  O_8 
REMARK    7  A    between atoms: O_8  and  C_9 
REMARK    8  A    between atoms: C_10  and  C_18 
REMARK    9  A    between atoms: C_12  and  O_17 
REMARK   10  A    between atoms: C_13  and  O_16 
REMARK   11  A    between atoms: C_14  and  O_15 
REMARK   12  A    between atoms: C_18  and  O_19 
ROOT
HETATM    1  O   UNL     1     -24.502  -2.713 -12.140  1.00  0.00    -0.348 OA
ENDROOT
BRANCH   1   2
HETATM    2  C   UNL     1     -23.641  -3.519 -11.308  1.00  0.00     0.292 C 
HETATM    3  C   UNL     1     -24.387  -3.885 -10.014  1.00  0.00     0.204 C 
HETATM    4  C   UNL     1     -23.450  -4.749  -9.159  1.00  0.00     0.183 C 
HETATM    5  C   UNL     1     -22.139  -3.997  -8.850  1.00  0.00     0.180 C 
HETATM    6  C   UNL     1     -21.501  -3.454 -10.146  1.00  0.00     0.179 C 
HETATM    7  O   UNL     1     -22.470  -2.785 -10.974  1.00  0.00    -0.348 OA
BRANCH   3   8
HETATM    8  O   UNL     1     -24.732  -2.691  -9.277  1.00  0.00    -0.388 OA
HETATM    9  H   UNL     1     -24.317  -2.795  -8.397  1.00  0.00     0.210 HD
ENDBRANCH   3   8
BRANCH   4  10
HETATM   10  O   UNL     1     -24.105  -5.134  -7.950  1.00  0.00    -0.390 OA
HETATM   11  H   UNL     1     -25.002  -4.744  -7.999  1.00  0.00     0.210 HD
ENDBRANCH   4  10
BRANCH   5  12
HETATM   12  O   UNL     1     -22.406  -2.902  -7.952  1.00  0.00    -0.390 OA
HETATM   13  H   UNL     1     -21.614  -2.815  -7.384  1.00  0.00     0.210 HD
ENDBRANCH   5  12
BRANCH   6  14
HETATM   14  C   UNL     1     -20.754  -4.545 -10.933  1.00  0.00     0.198 C 
BRANCH  14  15
HETATM   15  O   UNL     1     -19.935  -3.971 -11.953  1.00  0.00    -0.398 OA
HETATM   16  H   UNL     1     -20.405  -3.193 -12.307  1.00  0.00     0.209 HD
ENDBRANCH  14  15
ENDBRANCH   6  14
ENDBRANCH   1   2
BRANCH   1  17
HETATM   17  C   UNL     1     -24.763  -3.352 -13.422  1.00  0.00     0.187 C 
HETATM   18  C   UNL     1     -23.940  -4.647 -13.602  1.00  0.00     0.180 C 
HETATM   19  O   UNL     1     -22.542  -4.373 -13.670  1.00  0.00    -0.349 OA
HETATM   20  C   UNL     1     -22.128  -3.490 -14.691  1.00  0.00     0.288 C 
HETATM   21  C   UNL     1     -22.901  -2.152 -14.710  1.00  0.00     0.204 C 
HETATM   22  C   UNL     1     -24.414  -2.366 -14.549  1.00  0.00     0.183 C 
BRANCH  18  23
HETATM   23  C   UNL     1     -24.478  -5.515 -14.747  1.00  0.00     0.198 C 
BRANCH  23  24
HETATM   24  O   UNL     1     -24.161  -6.884 -14.482  1.00  0.00    -0.398 OA
HETATM   25  H   UNL     1     -24.835  -7.217 -13.858  1.00  0.00     0.209 HD
ENDBRANCH  23  24
ENDBRANCH  18  23
BRANCH  20  26
HETATM   26  O   UNL     1     -22.177  -4.135 -15.955  1.00  0.00    -0.369 OA
HETATM   27  H   UNL     1     -22.843  -3.663 -16.494  1.00  0.00     0.212 HD
ENDBRANCH  20  26
BRANCH  21  28
HETATM   28  O   UNL     1     -22.654  -1.498 -15.972  1.00  0.00    -0.388 OA
HETATM   29  H   UNL     1     -23.510  -1.379 -16.425  1.00  0.00     0.210 HD
ENDBRANCH  21  28
BRANCH  22  30
HETATM   30  O   UNL     1     -25.087  -1.117 -14.310  1.00  0.00    -0.390 OA
HETATM   31  H   UNL     1     -26.039  -1.283 -14.436  1.00  0.00     0.210 HD
ENDBRANCH  22  30
ENDBRANCH   1  17
TORSDOF 12
BEGIN_RES ARG D 557
REMARK  4 active torsions:
REMARK  status: ('A' for Active; 'I' for Inactive)
REMARK    1  A    between atoms: CA   and  CB  
REMARK    2  A    between atoms: CB   and  CG  
REMARK    3  A    between atoms: CG   and  CD  
REMARK    4  A    between atoms: CD   and  NE  
REMARK       I    between atoms: NE   and  CZ  
REMARK       I    between atoms: CZ   and  NH1 
REMARK       I    between atoms: CZ   and  NH2 
ROOT
ATOM      1  CA  ARG D 557     -26.217   2.705 -17.014  1.00 35.49     0.159 C 
ENDROOT
BRANCH   1   2
ATOM      2  CB  ARG D 557     -26.789   1.319 -17.183  1.00 35.49     0.034 C 
BRANCH   2   3
ATOM      3  CG  ARG D 557     -28.231   1.226 -17.439  1.00 35.49     0.027 C 
BRANCH   3   4
ATOM      4  CD  ARG D 557     -28.912   0.301 -16.505  1.00 35.49     0.116 C 
BRANCH   4   5
ATOM      5  NE  ARG D 557     -29.255  -0.948 -17.133  1.00 35.49    -0.212 N 
ATOM      6  CZ  ARG D 557     -28.600  -2.080 -17.001  1.00 35.49     0.666 C 
ATOM      7  NH1 ARG D 557     -27.511  -2.186 -16.263  1.00 35.49    -0.235 N 
ATOM      8  NH2 ARG D 557     -29.067  -3.120 -17.628  1.00 35.49    -0.235 N 
ATOM      9  HH  ARG D 557     -27.187  -1.515 -15.840  1.00 35.49     0.174 HD
ATOM     10  HH  ARG D 557     -27.127  -2.951 -16.212  1.00 35.49     0.174 HD
ATOM     11  HH  ARG D 557     -29.776  -3.023 -18.091  1.00 35.49     0.174 HD
ATOM     12  HH  ARG D 557     -28.673  -3.869 -17.564  1.00 35.49     0.174 HD
ATOM     13  HE  ARG D 557     -29.902  -0.953 -17.685  1.00 35.49     0.178 HD
ENDBRANCH   4   5
ENDBRANCH   3   4
ENDBRANCH   2   3
ENDBRANCH   1   2
END_RES ARG D 557
BEGIN_RES GLU D 570
REMARK  3 active torsions:
REMARK  status: ('A' for Active; 'I' for Inactive)
REMARK    5  A    between atoms: CA   and  CB  
REMARK    6  A    between atoms: CB   and  CG  
REMARK    7  A    between atoms: CG   and  CD  
ROOT
ATOM     14  CA  GLU D 570     -18.033  -6.348 -13.375  1.00 32.92     0.160 C 
ENDROOT
BRANCH  14  15
ATOM     15  CB  GLU D 570     -19.500  -6.345 -13.794  1.00 32.92     0.043 C 
BRANCH  15  16
ATOM     16  CG  GLU D 570     -19.796  -6.342 -15.250  1.00 32.92     0.100 C 
BRANCH  16  17
ATOM     17  CD  GLU D 570     -20.806  -7.393 -15.648  1.00 32.92     0.185 C 
ATOM     18  OE1 GLU D 570     -20.607  -8.579 -15.321  1.00 32.92    -0.647 OA
ATOM     19  OE2 GLU D 570     -21.799  -7.029 -16.309  1.00 32.92    -0.647 OA
ENDBRANCH  16  17
ENDBRANCH  15  16
ENDBRANCH  14  15
END_RES GLU D 570
ENDMDL
MODEL 2
REMARK VINA RESULT:      -7.6      4.095      7.253
REMARK  12 active torsions:
REMARK  status: ('A' for Active; 'I' for Inactive)
REMARK    1  A    between atoms: C_1  and  C_2 
REMARK    2  A    between atoms: C_1  and  O_23 
REMARK    3  A    between atoms: C_3  and  O_22 
REMARK    4  A    between atoms: C_4  and  O_21 
REMARK    5  A    between atoms: C_5  and  O_20 
REMARK    6  A    between atoms: C_6  and  O_8 
REMARK    7  A    between atoms: O_8  and  C_9 
REMARK    8  A    between atoms: C_10  and  C_18 
REMARK    9  A    between atoms: C_12  and  O_17 
REMARK   10  A    between atoms: C_13  and  O_16 
REMARK   11  A    between atoms: C_14  and  O_15 
REMARK   12  A    between atoms: C_18  and  O_19 
ROOT
HETATM    1  O   UNL     1     -26.952  -6.126 -17.260  1.00  0.00    -0.348 OA
ENDROOT
BRANCH   1   2
HETATM    2  C   UNL     1     -25.812  -6.879 -17.728  1.00  0.00     0.292 C 
HETATM    3  C   UNL     1     -24.837  -7.099 -16.560  1.00  0.00     0.204 C 
HETATM    4  C   UNL     1     -23.645  -7.908 -17.088  1.00  0.00     0.183 C 
HETATM    5  C   UNL     1     -22.956  -7.173 -18.255  1.00  0.00     0.180 C 
HETATM    6  C   UNL     1     -23.984  -6.775 -19.334  1.00  0.00     0.179 C 
HETATM    7  O   UNL     1     -25.147  -6.155 -18.755  1.00  0.00    -0.348 OA
BRANCH   3   8
HETATM    8  O   UNL     1     -24.360  -5.830 -16.056  1.00  0.00    -0.388 OA
HETATM    9  H   UNL     1     -25.098  -5.200 -16.189  1.00  0.00     0.210 HD
ENDBRANCH   3   8
BRANCH   4  10
HETATM   10  O   UNL     1     -22.716  -8.158 -16.032  1.00  0.00    -0.390 OA
HETATM   11  H   UNL     1     -22.262  -8.992 -16.270  1.00  0.00     0.210 HD
ENDBRANCH   4  10
BRANCH   5  12
HETATM   12  O   UNL     1     -22.294  -5.992 -17.763  1.00  0.00    -0.390 OA
HETATM   13  H   UNL     1     -21.371  -6.255 -17.572  1.00  0.00     0.210 HD
ENDBRANCH   5  12
BRANCH   6  14
HETATM   14  C   UNL     1     -24.375  -7.958 -20.237  1.00  0.00     0.198 C 
BRANCH  14  15
HETATM   15  O   UNL     1     -23.216  -8.657 -20.695  1.00  0.00    -0.398 OA
HETATM   16  H   UNL     1     -23.105  -9.446 -20.134  1.00  0.00     0.209 HD
ENDBRANCH  14  15
ENDBRANCH   6  14
ENDBRANCH   1   2
BRANCH   1  17
HETATM   17  C   UNL     1     -28.153  -6.947 -17.208  1.00  0.00     0.187 C 
HETATM   18  C   UNL     1     -29.205  -6.500 -18.248  1.00  0.00     0.180 C 
HETATM   19  O   UNL     1     -29.706  -5.196 -17.957  1.00  0.00    -0.349 OA
HETATM   20  C   UNL     1     -30.300  -5.025 -16.688  1.00  0.00     0.288 C 
HETATM   21  C   UNL     1     -29.408  -5.490 -15.514  1.00  0.00     0.204 C 
HETATM   22  C   UNL     1     -28.759  -6.854 -15.798  1.00  0.00     0.183 C 
BRANCH  18  23
HETATM   23  C   UNL     1     -30.286  -7.566 -18.467  1.00  0.00     0.198 C 
BRANCH  23  24
HETATM   24  O   UNL     1     -29.706  -8.690 -19.132  1.00  0.00    -0.398 OA
HETATM   25  H   UNL     1     -28.856  -8.390 -19.510  1.00  0.00     0.209 HD
ENDBRANCH  23  24
ENDBRANCH  18  23
BRANCH  20  26
HETATM   26  O   UNL     1     -31.575  -5.646 -16.648  1.00  0.00    -0.369 OA
HETATM   27  H   UNL     1     -31.426  -6.613 -16.656  1.00  0.00     0.212 HD
ENDBRANCH  20  26
BRANCH  21  28
HETATM   28  O   UNL     1     -30.227  -5.600 -14.332  1.00  0.00    -0.388 OA
HETATM   29  H   UNL     1     -29.637  -5.734 -13.566  1.00  0.00     0.210 HD
ENDBRANCH  21  28
BRANCH  22  30
HETATM   30  O   UNL     1     -27.742  -7.151 -14.826  1.00  0.00    -0.390 OA
HETATM   31  H   UNL     1     -27.915  -8.055 -14.506  1.00  0.00     0.210 HD
ENDBRANCH  22  30
ENDBRANCH   1  17
TORSDOF 12
BEGIN_RES ARG D 557
REMARK  4 active torsions:
REMARK  status: ('A' for Active; 'I' for Inactive)
REMARK    1  A    between atoms: CA   and  CB  
REMARK    2  A    between atoms: CB   and  CG  
REMARK    3  A    between atoms: CG   and  CD  
REMARK    4  A    between atoms: CD   and  NE  
REMARK       I    between atoms: NE   and  CZ  
REMARK       I    between atoms: CZ   and  NH1 
REMARK       I    between atoms: CZ   and  NH2 
ROOT
ATOM      1  CA  ARG D 557     -26.217   2.705 -17.014  1.00 35.49     0.159 C 
ENDROOT
BRANCH   1   2
ATOM      2  CB  ARG D 557     -26.789   1.319 -17.183  1.00 35.49     0.034 C 
BRANCH   2   3
ATOM      3  CG  ARG D 557     -25.931   0.197 -16.782  1.00 35.49     0.027 C 
BRANCH   3   4
ATOM      4  CD  ARG D 557     -26.692  -0.883 -16.113  1.00 35.49     0.116 C 
BRANCH   4   5
ATOM      5  NE  ARG D 557     -25.980  -1.431 -14.988  1.00 35.49    -0.212 N 
ATOM      6  CZ  ARG D 557     -25.901  -2.705 -14.675  1.00 35.49     0.666 C 
ATOM      7  NH1 ARG D 557     -26.501  -3.646 -15.380  1.00 35.49    -0.235 N 
ATOM      8  NH2 ARG D 557     -25.193  -3.023 -13.631  1.00 35.49    -0.235 N 
ATOM      9  HH  ARG D 557     -26.970  -3.459 -16.072  1.00 35.49     0.174 HD
ATOM     10  HH  ARG D 557     -26.412  -4.461 -15.129  1.00 35.49     0.174 HD
ATOM     11  HH  ARG D 557     -24.810  -2.395 -13.200  1.00 35.49     0.174 HD
ATOM     12  HH  ARG D 557     -25.115  -3.836 -13.400  1.00 35.49     0.174 HD
ATOM     13  HE  ARG D 557     -25.623  -0.888 -14.439  1.00 35.49     0.178 HD
ENDBRANCH   4   5
ENDBRANCH   3   4
ENDBRANCH   2   3
ENDBRANCH   1   2
END_RES ARG D 557
BEGIN_RES GLU D 570
REMARK  3 active torsions:
REMARK  status: ('A' for Active; 'I' for Inactive)
REMARK    5  A    between atoms: CA   and  CB  
REMARK    6  A    between atoms: CB   and  CG  
REMARK    7  A    between atoms: CG   and  CD  
ROOT
ATOM     14  CA  GLU D 570     -18.033  -6.348 -13.375  1.00 32.92     0.160 C 
ENDROOT
BRANCH  14  15
ATOM     15  CB  GLU D 570     -19.500  -6.345 -13.794  1.00 32.92     0.043 C 
BRANCH  15  16
ATOM     16  CG  GLU D 570     -20.442  -5.530 -12.984  1.00 32.92     0.100 C 
BRANCH  16  17
ATOM     17  CD  GLU D 570     -21.724  -5.209 -13.716  1.00 32.92     0.185 C 
ATOM     18  OE1 GLU D 570     -22.646  -4.640 -13.101  1.00 32.92    -0.647 OA
ATOM     19  OE2 GLU D 570     -21.814  -5.546 -14.913  1.00 32.92    -0.647 OA
ENDBRANCH  16  17
ENDBRANCH  15  16
ENDBRANCH  14  15
END_RES GLU D 570
ENDMDL
MODEL 3
REMARK VINA RESULT:      -7.0      3.731      7.025
REMARK  12 active torsions:
REMARK  status: ('A' for Active; 'I' for Inactive)
REMARK    1  A    between atoms: C_1  and  C_2 
REMARK    2  A    between atoms: C_1  and  O_23 
REMARK    3  A    between atoms: C_3  and  O_22 
REMARK    4  A    between atoms: C_4  and  O_21 
REMARK    5  A    between atoms: C_5  and  O_20 
REMARK    6  A    between atoms: C_6  and  O_8 
REMARK    7  A    between atoms: O_8  and  C_9 
REMARK    8  A    between atoms: C_10  and  C_18 
REMARK    9  A    between atoms: C_12  and  O_17 
REMARK   10  A    between atoms: C_13  and  O_16 
REMARK   11  A    between atoms: C_14  and  O_15 
REMARK   12  A    between atoms: C_18  and  O_19 
ROOT
HETATM    1  O   UNL     1     -26.530  -6.842 -16.387  1.00  0.00    -0.348 OA
ENDROOT
BRANCH   1   2
HETATM    2  C   UNL     1     -25.329  -7.275 -17.062  1.00  0.00     0.292 C 
HETATM    3  C   UNL     1     -24.162  -7.285 -16.061  1.00  0.00     0.204 C 
HETATM    4  C   UNL     1     -22.907  -7.758 -16.807  1.00  0.00     0.183 C 
HETATM    5  C   UNL     1     -22.601  -6.838 -18.006  1.00  0.00     0.180 C 
HETATM    6  C   UNL     1     -23.848  -6.672 -18.900  1.00  0.00     0.179 C 
HETATM    7  O   UNL     1     -25.022  -6.376 -18.121  1.00  0.00    -0.348 OA
BRANCH   3   8
HETATM    8  O   UNL     1     -23.931  -5.954 -15.545  1.00  0.00    -0.388 OA
HETATM    9  H   UNL     1     -24.452  -5.355 -16.117  1.00  0.00     0.210 HD
ENDBRANCH   3   8
BRANCH   4  10
HETATM   10  O   UNL     1     -21.794  -7.804 -15.912  1.00  0.00    -0.390 OA
HETATM   11  H   UNL     1     -22.079  -7.321 -15.110  1.00  0.00     0.210 HD
ENDBRANCH   4  10
BRANCH   5  12
HETATM   12  O   UNL     1     -22.174  -5.546 -17.533  1.00  0.00    -0.390 OA
HETATM   13  H   UNL     1     -21.339  -5.345 -18.004  1.00  0.00     0.210 HD
ENDBRANCH   5  12
BRANCH   6  14
HETATM   14  C   UNL     1     -24.079  -7.885 -19.818  1.00  0.00     0.198 C 
BRANCH  14  15
HETATM   15  O   UNL     1     -25.367  -7.826 -20.431  1.00  0.00    -0.398 OA
HETATM   16  H   UNL     1     -25.960  -7.339 -19.828  1.00  0.00     0.209 HD
ENDBRANCH  14  15
ENDBRANCH   6  14
ENDBRANCH   1   2
BRANCH   1  17
HETATM   17  C   UNL     1     -27.095  -5.652 -17.007  1.00  0.00     0.187 C 
HETATM   18  C   UNL     1     -27.667  -4.670 -15.962  1.00  0.00     0.180 C 
HETATM   19  O   UNL     1     -28.790  -5.228 -15.280  1.00  0.00    -0.349 OA
HETATM   20  C   UNL     1     -29.875  -5.629 -16.090  1.00  0.00     0.288 C 
HETATM   21  C   UNL     1     -29.475  -6.571 -17.247  1.00  0.00     0.204 C 
HETATM   22  C   UNL     1     -28.213  -6.078 -17.973  1.00  0.00     0.183 C 
BRANCH  18  23
HETATM   23  C   UNL     1     -27.908  -3.275 -16.555  1.00  0.00     0.198 C 
BRANCH  23  24
HETATM   24  O   UNL     1     -27.157  -2.315 -15.809  1.00  0.00    -0.398 OA
HETATM   25  H   UNL     1     -26.250  -2.316 -16.174  1.00  0.00     0.209 HD
ENDBRANCH  23  24
ENDBRANCH  18  23
BRANCH  20  26
HETATM   26  O   UNL     1     -30.586  -4.496 -16.566  1.00  0.00    -0.369 OA
HETATM   27  H   UNL     1     -30.881  -3.991 -15.781  1.00  0.00     0.212 HD
ENDBRANCH  20  26
BRANCH  21  28
HETATM   28  O   UNL     1     -30.564  -6.627 -18.191  1.00  0.00    -0.388 OA
HETATM   29  H   UNL     1     -30.440  -7.416 -18.752  1.00  0.00     0.210 HD
ENDBRANCH  21  28
BRANCH  22  30
HETATM   30  O   UNL     1     -27.708  -7.085 -18.868  1.00  0.00    -0.390 OA
HETATM   31  H   UNL     1     -27.170  -7.693 -18.330  1.00  0.00     0.210 HD
ENDBRANCH  22  30
ENDBRANCH   1  17
TORSDOF 12
BEGIN_RES ARG D 557
REMARK  4 active torsions:
REMARK  status: ('A' for Active; 'I' for Inactive)
REMARK    1  A    between atoms: CA   and  CB  
REMARK    2  A    between atoms: CB   and  CG  
REMARK    3  A    between atoms: CG   and  CD  
REMARK    4  A    between atoms: CD   and  NE  
REMARK       I    between atoms: NE   and  CZ  
REMARK       I    between atoms: CZ   and  NH1 
REMARK       I    between atoms: CZ   and  NH2 
ROOT
ATOM      1  CA  ARG D 557     -26.217   2.705 -17.014  1.00 35.49     0.159 C 
ENDROOT
BRANCH   1   2
ATOM      2  CB  ARG D 557     -26.789   1.319 -17.183  1.00 35.49     0.034 C 
BRANCH   2   3
ATOM      3  CG  ARG D 557     -25.835   0.203 -17.160  1.00 35.49     0.027 C 
BRANCH   3   4
ATOM      4  CD  ARG D 557     -24.739   0.418 -16.188  1.00 35.49     0.116 C 
BRANCH   4   5
ATOM      5  NE  ARG D 557     -24.855  -0.445 -15.041  1.00 35.49    -0.212 N 
ATOM      6  CZ  ARG D 557     -24.015  -1.401 -14.712  1.00 35.49     0.666 C 
ATOM      7  NH1 ARG D 557     -22.947  -1.687 -15.434  1.00 35.49    -0.235 N 
ATOM      8  NH2 ARG D 557     -24.265  -2.071 -13.625  1.00 35.49    -0.235 N 
ATOM      9  HH  ARG D 557     -22.762  -1.257 -16.152  1.00 35.49     0.174 HD
ATOM     10  HH  ARG D 557     -22.434  -2.319 -15.168  1.00 35.49     0.174 HD
ATOM     11  HH  ARG D 557     -24.958  -1.859 -13.174  1.00 35.49     0.174 HD
ATOM     12  HH  ARG D 557     -23.744  -2.692 -13.377  1.00 35.49     0.174 HD
ATOM     13  HE  ARG D 557     -25.552  -0.378 -14.560  1.00 35.49     0.178 HD
ENDBRANCH   4   5
ENDBRANCH   3   4
ENDBRANCH   2   3
ENDBRANCH   1   2
END_RES ARG D 557
BEGIN_RES GLU D 570
REMARK  3 active torsions:
REMARK  status: ('A' for Active; 'I' for Inactive)
REMARK    5  A    between atoms: CA   and  CB  
REMARK    6  A    between atoms: CB   and  CG  
REMARK    7  A    between atoms: CG   and  CD  
ROOT
ATOM     14  CA  GLU D 570     -18.033  -6.348 -13.375  1.00 32.92     0.160 C 
ENDROOT
BRANCH  14  15
ATOM     15  CB  GLU D 570     -19.500  -6.345 -13.794  1.00 32.92     0.043 C 
BRANCH  15  16
ATOM     16  CG  GLU D 570     -20.454  -5.589 -12.942  1.00 32.92     0.100 C 
BRANCH  16  17
ATOM     17  CD  GLU D 570     -21.604  -5.000 -13.724  1.00 32.92     0.185 C 
ATOM     18  OE1 GLU D 570     -22.631  -4.643 -13.115  1.00 32.92    -0.647 OA
ATOM     19  OE2 GLU D 570     -21.484  -4.910 -14.962  1.00 32.92    -0.647 OA
ENDBRANCH  16  17
ENDBRANCH  15  16
ENDBRANCH  14  15
END_RES GLU D 570
ENDMDL
MODEL 4
REMARK VINA RESULT:      -6.7      1.519      2.087
REMARK  12 active torsions:
REMARK  status: ('A' for Active; 'I' for Inactive)
REMARK    1  A    between atoms: C_1  and  C_2 
REMARK    2  A    between atoms: C_1  and  O_23 
REMARK    3  A    between atoms: C_3  and  O_22 
REMARK    4  A    between atoms: C_4  and  O_21 
REMARK    5  A    between atoms: C_5  and  O_20 
REMARK    6  A    between atoms: C_6  and  O_8 
REMARK    7  A    between atoms: O_8  and  C_9 
REMARK    8  A    between atoms: C_10  and  C_18 
REMARK    9  A    between atoms: C_12  and  O_17 
REMARK   10  A    between atoms: C_13  and  O_16 
REMARK   11  A    between atoms: C_14  and  O_15 
REMARK   12  A    between atoms: C_18  and  O_19 
ROOT
HETATM    1  O   UNL     1     -22.297  -3.653 -11.337  1.00  0.00    -0.348 OA
ENDROOT
BRANCH   1   2
HETATM    2  C   UNL     1     -21.961  -4.279 -10.080  1.00  0.00     0.292 C 
HETATM    3  C   UNL     1     -23.110  -4.056  -9.082  1.00  0.00     0.204 C 
HETATM    4  C   UNL     1     -22.726  -4.740  -7.763  1.00  0.00     0.183 C 
HETATM    5  C   UNL     1     -21.400  -4.175  -7.217  1.00  0.00     0.180 C 
HETATM    6  C   UNL     1     -20.300  -4.216  -8.299  1.00  0.00     0.179 C 
HETATM    7  O   UNL     1     -20.775  -3.697  -9.555  1.00  0.00    -0.348 OA
BRANCH   3   8
HETATM    8  O   UNL     1     -23.302  -2.643  -8.843  1.00  0.00    -0.388 OA
HETATM    9  H   UNL     1     -23.711  -2.579  -7.956  1.00  0.00     0.210 HD
ENDBRANCH   3   8
BRANCH   4  10
HETATM   10  O   UNL     1     -23.774  -4.580  -6.805  1.00  0.00    -0.390 OA
HETATM   11  H   UNL     1     -24.122  -5.480  -6.640  1.00  0.00     0.210 HD
ENDBRANCH   4  10
BRANCH   5  12
HETATM   12  O   UNL     1     -21.592  -2.816  -6.780  1.00  0.00    -0.390 OA
HETATM   13  H   UNL     1     -20.800  -2.583  -6.254  1.00  0.00     0.210 HD
ENDBRANCH   5  12
BRANCH   6  14
HETATM   14  C   UNL     1     -19.696  -5.621  -8.469  1.00  0.00     0.198 C 
BRANCH  14  15
HETATM   15  O   UNL     1     -19.748  -6.352  -7.243  1.00  0.00    -0.398 OA
HETATM   16  H   UNL     1     -20.477  -6.995  -7.312  1.00  0.00     0.209 HD
ENDBRANCH  14  15
ENDBRANCH   6  14
ENDBRANCH   1   2
BRANCH   1  17
HETATM   17  C   UNL     1     -23.306  -4.412 -12.062  1.00  0.00     0.187 C 
HETATM   18  C   UNL     1     -22.802  -4.872 -13.447  1.00  0.00     0.180 C 
HETATM   19  O   UNL     1     -22.566  -3.762 -14.313  1.00  0.00    -0.349 OA
HETATM   20  C   UNL     1     -23.668  -2.912 -14.549  1.00  0.00     0.288 C 
HETATM   21  C   UNL     1     -24.352  -2.403 -13.261  1.00  0.00     0.204 C 
HETATM   22  C   UNL     1     -24.556  -3.534 -12.240  1.00  0.00     0.183 C 
BRANCH  18  23
HETATM   23  C   UNL     1     -23.688  -5.973 -14.046  1.00  0.00     0.198 C 
BRANCH  23  24
HETATM   24  O   UNL     1     -23.436  -6.062 -15.450  1.00  0.00    -0.398 OA
HETATM   25  H   UNL     1     -22.497  -5.827 -15.587  1.00  0.00     0.209 HD
ENDBRANCH  23  24
ENDBRANCH  18  23
BRANCH  20  26
HETATM   26  O   UNL     1     -24.600  -3.535 -15.420  1.00  0.00    -0.369 OA
HETATM   27  H   UNL     1     -25.336  -2.904 -15.554  1.00  0.00     0.212 HD
ENDBRANCH  20  26
BRANCH  21  28
HETATM   28  O   UNL     1     -25.639  -1.853 -13.610  1.00  0.00    -0.388 OA
HETATM   29  H   UNL     1     -25.905  -1.232 -12.906  1.00  0.00     0.210 HD
ENDBRANCH  21  28
BRANCH  22  30
HETATM   30  O   UNL     1     -24.951  -3.007 -10.961  1.00  0.00    -0.390 OA
HETATM   31  H   UNL     1     -24.548  -3.582 -10.285  1.00  0.00     0.210 HD
ENDBRANCH  22  30
ENDBRANCH   1  17
TORSDOF 12
BEGIN_RES ARG D 557
REMARK  4 active torsions:
REMARK  status: ('A' for Active; 'I' for Inactive)
REMARK    1  A    between atoms: CA   and  CB  
REMARK    2  A    between atoms: CB   and  CG  
REMARK    3  A    between atoms: CG   and  CD  
REMARK    4  A    between atoms: CD   and  NE  
REMARK       I    between atoms: NE   and  CZ  
REMARK       I    between atoms: CZ   and  NH1 
REMARK       I    between atoms: CZ   and  NH2 
ROOT
ATOM      1  CA  ARG D 557     -26.217   2.705 -17.014  1.00 35.49     0.159 C 
ENDROOT
BRANCH   1   2
ATOM      2  CB  ARG D 557     -26.789   1.319 -17.183  1.00 35.49     0.034 C 
BRANCH   2   3
ATOM      3  CG  ARG D 557     -28.236   1.225 -17.411  1.00 35.49     0.027 C 
BRANCH   3   4
ATOM      4  CD  ARG D 557     -28.894   0.280 -16.480  1.00 35.49     0.116 C 
BRANCH   4   5
ATOM      5  NE  ARG D 557     -29.195  -0.979 -17.108  1.00 35.49    -0.212 N 
ATOM      6  CZ  ARG D 557     -28.510  -2.092 -16.966  1.00 35.49     0.666 C 
ATOM      7  NH1 ARG D 557     -27.426  -2.166 -16.216  1.00 35.49    -0.235 N 
ATOM      8  NH2 ARG D 557     -28.941  -3.147 -17.595  1.00 35.49    -0.235 N 
ATOM      9  HH  ARG D 557     -27.125  -1.485 -15.792  1.00 35.49     0.174 HD
ATOM     10  HH  ARG D 557     -27.021  -2.920 -16.159  1.00 35.49     0.174 HD
ATOM     11  HH  ARG D 557     -29.648  -3.071 -18.066  1.00 35.49     0.174 HD
ATOM     12  HH  ARG D 557     -28.527  -3.884 -17.525  1.00 35.49     0.174 HD
ATOM     13  HE  ARG D 557     -29.836  -1.004 -17.666  1.00 35.49     0.178 HD
ENDBRANCH   4   5
ENDBRANCH   3   4
ENDBRANCH   2   3
ENDBRANCH   1   2
END_RES ARG D 557
BEGIN_RES GLU D 570
REMARK  3 active torsions:
REMARK  status: ('A' for Active; 'I' for Inactive)
REMARK    5  A    between atoms: CA   and  CB  
REMARK    6  A    between atoms: CB   and  CG  
REMARK    7  A    between atoms: CG   and  CD  
ROOT
ATOM     14  CA  GLU D 570     -18.033  -6.348 -13.375  1.00 32.92     0.160 C 
ENDROOT
BRANCH  14  15
ATOM     15  CB  GLU D 570     -19.500  -6.345 -13.794  1.00 32.92     0.043 C 
BRANCH  15  16
ATOM     16  CG  GLU D 570     -20.074  -7.624 -14.285  1.00 32.92     0.100 C 
BRANCH  16  17
ATOM     17  CD  GLU D 570     -20.719  -7.497 -15.645  1.00 32.92     0.185 C 
ATOM     18  OE1 GLU D 570     -20.546  -6.453 -16.302  1.00 32.92    -0.647 OA
ATOM     19  OE2 GLU D 570     -21.418  -8.446 -16.052  1.00 32.92    -0.647 OA
ENDBRANCH  16  17
ENDBRANCH  15  16
ENDBRANCH  14  15
END_RES GLU D 570
ENDMDL
MODEL 5
REMARK VINA RESULT:      -6.7      1.615      2.914
REMARK  12 active torsions:
REMARK  status: ('A' for Active; 'I' for Inactive)
REMARK    1  A    between atoms: C_1  and  C_2 
REMARK    2  A    between atoms: C_1  and  O_23 
REMARK    3  A    between atoms: C_3  and  O_22 
REMARK    4  A    between atoms: C_4  and  O_21 
REMARK    5  A    between atoms: C_5  and  O_20 
REMARK    6  A    between atoms: C_6  and  O_8 
REMARK    7  A    between atoms: O_8  and  C_9 
REMARK    8  A    between atoms: C_10  and  C_18 
REMARK    9  A    between atoms: C_12  and  O_17 
REMARK   10  A    between atoms: C_13  and  O_16 
REMARK   11  A    between atoms: C_14  and  O_15 
REMARK   12  A    between atoms: C_18  and  O_19 
ROOT
HETATM    1  O   UNL     1     -21.844  -3.656 -11.766  1.00  0.00    -0.348 OA
ENDROOT
BRANCH   1   2
HETATM    2  C   UNL     1     -21.742  -3.693 -10.326  1.00  0.00     0.292 C 
HETATM    3  C   UNL     1     -20.260  -3.781  -9.926  1.00  0.00     0.204 C 
HETATM    4  C   UNL     1     -20.187  -3.808  -8.394  1.00  0.00     0.183 C 
HETATM    5  C   UNL     1     -20.984  -5.001  -7.828  1.00  0.00     0.180 C 
HETATM    6  C   UNL     1     -22.418  -5.019  -8.398  1.00  0.00     0.179 C 
HETATM    7  O   UNL     1     -22.423  -4.837  -9.826  1.00  0.00    -0.348 OA
BRANCH   3   8
HETATM    8  O   UNL     1     -19.667  -4.991 -10.450  1.00  0.00    -0.388 OA
HETATM    9  H   UNL     1     -18.845  -5.126  -9.936  1.00  0.00     0.210 HD
ENDBRANCH   3   8
BRANCH   4  10
HETATM   10  O   UNL     1     -18.824  -3.869  -7.969  1.00  0.00    -0.390 OA
HETATM   11  H   UNL     1     -18.731  -3.182  -7.278  1.00  0.00     0.210 HD
ENDBRANCH   4  10
BRANCH   5  12
HETATM   12  O   UNL     1     -20.319  -6.234  -8.161  1.00  0.00    -0.390 OA
HETATM   13  H   UNL     1     -19.566  -5.991  -8.738  1.00  0.00     0.210 HD
ENDBRANCH   5  12
BRANCH   6  14
HETATM   14  C   UNL     1     -23.339  -4.001  -7.703  1.00  0.00     0.198 C 
BRANCH  14  15
HETATM   15  O   UNL     1     -23.985  -4.585  -6.570  1.00  0.00    -0.398 OA
HETATM   16  H   UNL     1     -23.330  -5.141  -6.110  1.00  0.00     0.209 HD
ENDBRANCH  14  15
ENDBRANCH   6  14
ENDBRANCH   1   2
BRANCH   1  17
HETATM   17  C   UNL     1     -22.985  -4.424 -12.243  1.00  0.00     0.187 C 
HETATM   18  C   UNL     1     -22.774  -4.940 -13.683  1.00  0.00     0.180 C 
HETATM   19  O   UNL     1     -22.709  -3.865 -14.620  1.00  0.00    -0.349 OA
HETATM   20  C   UNL     1     -23.828  -3.006 -14.662  1.00  0.00     0.288 C 
HETATM   21  C   UNL     1     -24.234  -2.442 -13.282  1.00  0.00     0.204 C 
HETATM   22  C   UNL     1     -24.238  -3.533 -12.199  1.00  0.00     0.183 C 
BRANCH  18  23
HETATM   23  C   UNL     1     -23.771  -6.047 -14.050  1.00  0.00     0.198 C 
BRANCH  23  24
HETATM   24  O   UNL     1     -23.732  -6.262 -15.462  1.00  0.00    -0.398 OA
HETATM   25  H   UNL     1     -22.918  -6.768 -15.651  1.00  0.00     0.209 HD
ENDBRANCH  23  24
ENDBRANCH  18  23
BRANCH  20  26
HETATM   26  O   UNL     1     -24.922  -3.645 -15.302  1.00  0.00    -0.369 OA
HETATM   27  H   UNL     1     -25.664  -3.008 -15.309  1.00  0.00     0.212 HD
ENDBRANCH  20  26
BRANCH  21  28
HETATM   28  O   UNL     1     -25.560  -1.884 -13.385  1.00  0.00    -0.388 OA
HETATM   29  H   UNL     1     -25.475  -0.937 -13.604  1.00  0.00     0.210 HD
ENDBRANCH  21  28
BRANCH  22  30
HETATM   30  O   UNL     1     -24.361  -2.955 -10.888  1.00  0.00    -0.390 OA
HETATM   31  H   UNL     1     -23.835  -3.512 -10.286  1.00  0.00     0.210 HD
ENDBRANCH  22  30
ENDBRANCH   1  17
TORSDOF 12
BEGIN_RES ARG D 557
REMARK  4 active torsions:
REMARK  status: ('A' for Active; 'I' for Inactive)
REMARK    1  A    between atoms: CA   and  CB  
REMARK    2  A    between atoms: CB   and  CG  
REMARK    3  A    between atoms: CG   and  CD  
REMARK    4  A    between atoms: CD   and  NE  
REMARK       I    between atoms: NE   and  CZ  
REMARK       I    between atoms: CZ   and  NH1 
REMARK       I    between atoms: CZ   and  NH2 
ROOT
ATOM      1  CA  ARG D 557     -26.217   2.705 -17.014  1.00 35.49     0.159 C 
ENDROOT
BRANCH   1   2
ATOM      2  CB  ARG D 557     -26.789   1.319 -17.183  1.00 35.49     0.034 C 
BRANCH   2   3
ATOM      3  CG  ARG D 557     -28.181   1.122 -16.759  1.00 35.49     0.027 C 
BRANCH   3   4
ATOM      4  CD  ARG D 557     -28.734  -0.171 -17.222  1.00 35.49     0.116 C 
BRANCH   4   5
ATOM      5  NE  ARG D 557     -28.030  -1.294 -16.660  1.00 35.49    -0.212 N 
ATOM      6  CZ  ARG D 557     -28.331  -2.560 -16.845  1.00 35.49     0.666 C 
ATOM      7  NH1 ARG D 557     -29.358  -2.944 -17.580  1.00 35.49    -0.235 N 
ATOM      8  NH2 ARG D 557     -27.569  -3.447 -16.275  1.00 35.49    -0.235 N 
ATOM      9  HH  ARG D 557     -29.871  -2.377 -17.966  1.00 35.49     0.174 HD
ATOM     10  HH  ARG D 557     -29.504  -3.784 -17.667  1.00 35.49     0.174 HD
ATOM     11  HH  ARG D 557     -26.909  -3.170 -15.811  1.00 35.49     0.174 HD
ATOM     12  HH  ARG D 557     -27.730  -4.274 -16.374  1.00 35.49     0.174 HD
ATOM     13  HE  ARG D 557     -27.398  -1.136 -16.114  1.00 35.49     0.178 HD
ENDBRANCH   4   5
ENDBRANCH   3   4
ENDBRANCH   2   3
ENDBRANCH   1   2
END_RES ARG D 557
BEGIN_RES GLU D 570
REMARK  3 active torsions:
REMARK  status: ('A' for Active; 'I' for Inactive)
REMARK    5  A    between atoms: CA   and  CB  
REMARK    6  A    between atoms: CB   and  CG  
REMARK    7  A    between atoms: CG   and  CD  
ROOT
ATOM     14  CA  GLU D 570     -18.033  -6.348 -13.375  1.00 32.92     0.160 C 
ENDROOT
BRANCH  14  15
ATOM     15  CB  GLU D 570     -19.500  -6.345 -13.794  1.00 32.92     0.043 C 
BRANCH  15  16
ATOM     16  CG  GLU D 570     -20.102  -7.645 -14.187  1.00 32.92     0.100 C 
BRANCH  16  17
ATOM     17  CD  GLU D 570     -20.597  -7.658 -15.615  1.00 32.92     0.185 C 
ATOM     18  OE1 GLU D 570     -20.731  -8.750 -16.199  1.00 32.92    -0.647 OA
ATOM     19  OE2 GLU D 570     -20.838  -6.563 -16.160  1.00 32.92    -0.647 OA
ENDBRANCH  16  17
ENDBRANCH  15  16
ENDBRANCH  14  15
END_RES GLU D 570
ENDMDL
MODEL 6
REMARK VINA RESULT:      -6.7      1.569      5.142
REMARK  12 active torsions:
REMARK  status: ('A' for Active; 'I' for Inactive)
REMARK    1  A    between atoms: C_1  and  C_2 
REMARK    2  A    between atoms: C_1  and  O_23 
REMARK    3  A    between atoms: C_3  and  O_22 
REMARK    4  A    between atoms: C_4  and  O_21 
REMARK    5  A    between atoms: C_5  and  O_20 
REMARK    6  A    between atoms: C_6  and  O_8 
REMARK    7  A    between atoms: O_8  and  C_9 
REMARK    8  A    between atoms: C_10  and  C_18 
REMARK    9  A    between atoms: C_12  and  O_17 
REMARK   10  A    between atoms: C_13  and  O_16 
REMARK   11  A    between atoms: C_14  and  O_15 
REMARK   12  A    between atoms: C_18  and  O_19 
ROOT
HETATM    1  O   UNL     1     -23.144  -4.922 -10.693  1.00  0.00    -0.348 OA
ENDROOT
BRANCH   1   2
HETATM    2  C   UNL     1     -23.141  -4.517 -12.079  1.00  0.00     0.292 C 
HETATM    3  C   UNL     1     -23.620  -3.059 -12.179  1.00  0.00     0.204 C 
HETATM    4  C   UNL     1     -23.596  -2.657 -13.660  1.00  0.00     0.183 C 
HETATM    5  C   UNL     1     -24.491  -3.593 -14.498  1.00  0.00     0.180 C 
HETATM    6  C   UNL     1     -24.135  -5.071 -14.233  1.00  0.00     0.179 C 
HETATM    7  O   UNL     1     -24.026  -5.345 -12.824  1.00  0.00    -0.348 OA
BRANCH   3   8
HETATM    8  O   UNL     1     -24.970  -2.936 -11.678  1.00  0.00    -0.388 OA
HETATM    9  H   UNL     1     -25.430  -3.755 -11.956  1.00  0.00     0.210 HD
ENDBRANCH   3   8
BRANCH   4  10
HETATM   10  O   UNL     1     -24.014  -1.299 -13.806  1.00  0.00    -0.390 OA
HETATM   11  H   UNL     1     -23.898  -0.890 -12.925  1.00  0.00     0.210 HD
ENDBRANCH   4  10
BRANCH   5  12
HETATM   12  O   UNL     1     -25.875  -3.366 -14.170  1.00  0.00    -0.390 OA
HETATM   13  H   UNL     1     -26.143  -2.560 -14.657  1.00  0.00     0.210 HD
ENDBRANCH   5  12
BRANCH   6  14
HETATM   14  C   UNL     1     -22.870  -5.515 -14.987  1.00  0.00     0.198 C 
BRANCH  14  15
HETATM   15  O   UNL     1     -23.207  -6.239 -16.171  1.00  0.00    -0.398 OA
HETATM   16  H   UNL     1     -22.510  -6.904 -16.320  1.00  0.00     0.209 HD
ENDBRANCH  14  15
ENDBRANCH   6  14
ENDBRANCH   1   2
BRANCH   1  17
HETATM   17  C   UNL     1     -22.435  -3.968  -9.853  1.00  0.00     0.187 C 
HETATM   18  C   UNL     1     -21.050  -4.495  -9.419  1.00  0.00     0.180 C 
HETATM   19  O   UNL     1     -21.167  -5.633  -8.566  1.00  0.00    -0.349 OA
HETATM   20  C   UNL     1     -21.915  -5.450  -7.383  1.00  0.00     0.288 C 
HETATM   21  C   UNL     1     -23.321  -4.856  -7.619  1.00  0.00     0.204 C 
HETATM   22  C   UNL     1     -23.284  -3.677  -8.604  1.00  0.00     0.183 C 
BRANCH  18  23
HETATM   23  C   UNL     1     -20.153  -3.376  -8.873  1.00  0.00     0.198 C 
BRANCH  23  24
HETATM   24  O   UNL     1     -19.075  -3.959  -8.137  1.00  0.00    -0.398 OA
HETATM   25  H   UNL     1     -18.904  -3.376  -7.372  1.00  0.00     0.209 HD
ENDBRANCH  23  24
ENDBRANCH  18  23
BRANCH  20  26
HETATM   26  O   UNL     1     -21.179  -4.682  -6.443  1.00  0.00    -0.369 OA
HETATM   27  H   UNL     1     -21.686  -4.688  -5.606  1.00  0.00     0.212 HD
ENDBRANCH  20  26
BRANCH  21  28
HETATM   28  O   UNL     1     -23.842  -4.392  -6.356  1.00  0.00    -0.388 OA
HETATM   29  H   UNL     1     -24.592  -3.795  -6.538  1.00  0.00     0.210 HD
ENDBRANCH  21  28
BRANCH  22  30
HETATM   30  O   UNL     1     -24.612  -3.305  -9.011  1.00  0.00    -0.390 OA
HETATM   31  H   UNL     1     -24.537  -2.942  -9.912  1.00  0.00     0.210 HD
ENDBRANCH  22  30
ENDBRANCH   1  17
TORSDOF 12
BEGIN_RES ARG D 557
REMARK  4 active torsions:
REMARK  status: ('A' for Active; 'I' for Inactive)
REMARK    1  A    between atoms: CA   and  CB  
REMARK    2  A    between atoms: CB   and  CG  
REMARK    3  A    between atoms: CG   and  CD  
REMARK    4  A    between atoms: CD   and  NE  
REMARK       I    between atoms: NE   and  CZ  
REMARK       I    between atoms: CZ   and  NH1 
REMARK       I    between atoms: CZ   and  NH2 
ROOT
ATOM      1  CA  ARG D 557     -26.217   2.705 -17.014  1.00 35.49     0.159 C 
ENDROOT
BRANCH   1   2
ATOM      2  CB  ARG D 557     -26.789   1.319 -17.183  1.00 35.49     0.034 C 
BRANCH   2   3
ATOM      3  CG  ARG D 557     -28.232   1.226 -17.434  1.00 35.49     0.027 C 
BRANCH   3   4
ATOM      4  CD  ARG D 557     -28.909   0.300 -16.498  1.00 35.49     0.116 C 
BRANCH   4   5
ATOM      5  NE  ARG D 557     -29.299  -0.929 -17.137  1.00 35.49    -0.212 N 
ATOM      6  CZ  ARG D 557     -28.671  -2.080 -17.037  1.00 35.49     0.666 C 
ATOM      7  NH1 ARG D 557     -27.570  -2.227 -16.323  1.00 35.49    -0.235 N 
ATOM      8  NH2 ARG D 557     -29.178  -3.098 -17.669  1.00 35.49    -0.235 N 
ATOM      9  HH  ARG D 557     -27.219  -1.571 -15.897  1.00 35.49     0.174 HD
ATOM     10  HH  ARG D 557     -27.205  -3.001 -16.293  1.00 35.49     0.174 HD
ATOM     11  HH  ARG D 557     -29.894  -2.975 -18.116  1.00 35.49     0.174 HD
ATOM     12  HH  ARG D 557     -28.803  -3.857 -17.625  1.00 35.49     0.174 HD
ATOM     13  HE  ARG D 557     -29.957  -0.909 -17.675  1.00 35.49     0.178 HD
ENDBRANCH   4   5
ENDBRANCH   3   4
ENDBRANCH   2   3
ENDBRANCH   1   2
END_RES ARG D 557
BEGIN_RES GLU D 570
REMARK  3 active torsions:
REMARK  status: ('A' for Active; 'I' for Inactive)
REMARK    5  A    between atoms: CA   and  CB  
REMARK    6  A    between atoms: CB   and  CG  
REMARK    7  A    between atoms: CG   and  CD  
ROOT
ATOM     14  CA  GLU D 570     -18.033  -6.348 -13.375  1.00 32.92     0.160 C 
ENDROOT
BRANCH  14  15
ATOM     15  CB  GLU D 570     -19.500  -6.345 -13.794  1.00 32.92     0.043 C 
BRANCH  15  16
ATOM     16  CG  GLU D 570     -20.100  -7.644 -14.195  1.00 32.92     0.100 C 
BRANCH  16  17
ATOM     17  CD  GLU D 570     -20.486  -7.688 -15.655  1.00 32.92     0.185 C 
ATOM     18  OE1 GLU D 570     -21.125  -8.669 -16.083  1.00 32.92    -0.647 OA
ATOM     19  OE2 GLU D 570     -20.132  -6.740 -16.383  1.00 32.92    -0.647 OA
ENDBRANCH  16  17
ENDBRANCH  15  16
ENDBRANCH  14  15
END_RES GLU D 570
ENDMDL
MODEL 7
REMARK VINA RESULT:      -6.5      1.240      4.983
REMARK  12 active torsions:
REMARK  status: ('A' for Active; 'I' for Inactive)
REMARK    1  A    between atoms: C_1  and  C_2 
REMARK    2  A    between atoms: C_1  and  O_23 
REMARK    3  A    between atoms: C_3  and  O_22 
REMARK    4  A    between atoms: C_4  and  O_21 
REMARK    5  A    between atoms: C_5  and  O_20 
REMARK    6  A    between atoms: C_6  and  O_8 
REMARK    7  A    between atoms: O_8  and  C_9 
REMARK    8  A    between atoms: C_10  and  C_18 
REMARK    9  A    between atoms: C_12  and  O_17 
REMARK   10  A    between atoms: C_13  and  O_16 
REMARK   11  A    between atoms: C_14  and  O_15 
REMARK   12  A    between atoms: C_18  and  O_19 
ROOT
HETATM    1  O   UNL     1     -23.862  -4.620 -11.096  1.00  0.00    -0.348 OA
ENDROOT
BRANCH   1   2
HETATM    2  C   UNL     1     -24.179  -4.217 -12.445  1.00  0.00     0.292 C 
HETATM    3  C   UNL     1     -23.765  -5.335 -13.417  1.00  0.00     0.204 C 
HETATM    4  C   UNL     1     -24.123  -4.879 -14.838  1.00  0.00     0.183 C 
HETATM    5  C   UNL     1     -23.415  -3.554 -15.185  1.00  0.00     0.180 C 
HETATM    6  C   UNL     1     -23.672  -2.495 -14.092  1.00  0.00     0.179 C 
HETATM    7  O   UNL     1     -23.463  -3.032 -12.773  1.00  0.00    -0.348 OA
BRANCH   3   8
HETATM    8  O   UNL     1     -22.340  -5.567 -13.340  1.00  0.00    -0.388 OA
HETATM    9  H   UNL     1     -22.007  -5.464 -14.255  1.00  0.00     0.210 HD
ENDBRANCH   3   8
BRANCH   4  10
HETATM   10  O   UNL     1     -23.777  -5.896 -15.780  1.00  0.00    -0.390 OA
HETATM   11  H   UNL     1     -23.656  -5.434 -16.635  1.00  0.00     0.210 HD
ENDBRANCH   4  10
BRANCH   5  12
HETATM   12  O   UNL     1     -21.998  -3.778 -15.312  1.00  0.00    -0.390 OA
HETATM   13  H   UNL     1     -21.583  -3.355 -14.533  1.00  0.00     0.210 HD
ENDBRANCH   5  12
BRANCH   6  14
HETATM   14  C   UNL     1     -25.063  -1.849 -14.216  1.00  0.00     0.198 C 
BRANCH  14  15
HETATM   15  O   UNL     1     -24.969  -0.534 -14.767  1.00  0.00    -0.398 OA
HETATM   16  H   UNL     1     -25.683   0.003 -14.375  1.00  0.00     0.209 HD
ENDBRANCH  14  15
ENDBRANCH   6  14
ENDBRANCH   1   2
BRANCH   1  17
HETATM   17  C   UNL     1     -22.959  -3.677 -10.452  1.00  0.00     0.187 C 
HETATM   18  C   UNL     1     -21.523  -4.234 -10.339  1.00  0.00     0.180 C 
HETATM   19  O   UNL     1     -21.467  -5.363  -9.467  1.00  0.00    -0.349 OA
HETATM   20  C   UNL     1     -21.921  -5.154  -8.147  1.00  0.00     0.288 C 
HETATM   21  C   UNL     1     -23.331  -4.528  -8.063  1.00  0.00     0.204 C 
HETATM   22  C   UNL     1     -23.494  -3.357  -9.045  1.00  0.00     0.183 C 
BRANCH  18  23
HETATM   23  C   UNL     1     -20.502  -3.133 -10.025  1.00  0.00     0.198 C 
BRANCH  23  24
HETATM   24  O   UNL     1     -20.134  -2.477 -11.240  1.00  0.00    -0.398 OA
HETATM   25  H   UNL     1     -19.166  -2.348 -11.213  1.00  0.00     0.209 HD
ENDBRANCH  23  24
ENDBRANCH  18  23
BRANCH  20  26
HETATM   26  O   UNL     1     -20.973  -4.397  -7.409  1.00  0.00    -0.369 OA
HETATM   27  H   UNL     1     -20.865  -3.541  -7.871  1.00  0.00     0.212 HD
ENDBRANCH  20  26
BRANCH  21  28
HETATM   28  O   UNL     1     -23.539  -4.043  -6.721  1.00  0.00    -0.388 OA
HETATM   29  H   UNL     1     -24.298  -3.429  -6.734  1.00  0.00     0.210 HD
ENDBRANCH  21  28
BRANCH  22  30
HETATM   30  O   UNL     1     -24.872  -2.956  -9.143  1.00  0.00    -0.390 OA
HETATM   31  H   UNL     1     -25.336  -3.663  -9.627  1.00  0.00     0.210 HD
ENDBRANCH  22  30
ENDBRANCH   1  17
TORSDOF 12
BEGIN_RES ARG D 557
REMARK  4 active torsions:
REMARK  status: ('A' for Active; 'I' for Inactive)
REMARK    1  A    between atoms: CA   and  CB  
REMARK    2  A    between atoms: CB   and  CG  
REMARK    3  A    between atoms: CG   and  CD  
REMARK    4  A    between atoms: CD   and  NE  
REMARK       I    between atoms: NE   and  CZ  
REMARK       I    between atoms: CZ   and  NH1 
REMARK       I    between atoms: CZ   and  NH2 
ROOT
ATOM      1  CA  ARG D 557     -26.217   2.705 -17.014  1.00 35.49     0.159 C 
ENDROOT
BRANCH   1   2
ATOM      2  CB  ARG D 557     -26.789   1.319 -17.183  1.00 35.49     0.034 C 
BRANCH   2   3
ATOM      3  CG  ARG D 557     -28.224   1.228 -17.480  1.00 35.49     0.027 C 
BRANCH   3   4
ATOM      4  CD  ARG D 557     -28.940   0.340 -16.536  1.00 35.49     0.116 C 
BRANCH   4   5
ATOM      5  NE  ARG D 557     -29.315  -0.909 -17.144  1.00 35.49    -0.212 N 
ATOM      6  CZ  ARG D 557     -28.662  -2.044 -17.032  1.00 35.49     0.666 C 
ATOM      7  NH1 ARG D 557     -27.546  -2.154 -16.335  1.00 35.49    -0.235 N 
ATOM      8  NH2 ARG D 557     -29.159  -3.085 -17.635  1.00 35.49    -0.235 N 
ATOM      9  HH  ARG D 557     -27.202  -1.483 -15.928  1.00 35.49     0.174 HD
ATOM     10  HH  ARG D 557     -27.165  -2.921 -16.295  1.00 35.49     0.174 HD
ATOM     11  HH  ARG D 557     -29.884  -2.985 -18.072  1.00 35.49     0.174 HD
ATOM     12  HH  ARG D 557     -28.767  -3.835 -17.582  1.00 35.49     0.174 HD
ATOM     13  HE  ARG D 557     -29.982  -0.913 -17.671  1.00 35.49     0.178 HD
ENDBRANCH   4   5
ENDBRANCH   3   4
ENDBRANCH   2   3
ENDBRANCH   1   2
END_RES ARG D 557
BEGIN_RES GLU D 570
REMARK  3 active torsions:
REMARK  status: ('A' for Active; 'I' for Inactive)
REMARK    5  A    between atoms: CA   and  CB  
REMARK    6  A    between atoms: CB   and  CG  
REMARK    7  A    between atoms: CG   and  CD  
ROOT
ATOM     14  CA  GLU D 570     -18.033  -6.348 -13.375  1.00 32.92     0.160 C 
ENDROOT
BRANCH  14  15
ATOM     15  CB  GLU D 570     -19.500  -6.345 -13.794  1.00 32.92     0.043 C 
BRANCH  15  16
ATOM     16  CG  GLU D 570     -20.093  -7.639 -14.221  1.00 32.92     0.100 C 
BRANCH  16  17
ATOM     17  CD  GLU D 570     -20.693  -7.584 -15.606  1.00 32.92     0.185 C 
ATOM     18  OE1 GLU D 570     -20.785  -8.636 -16.268  1.00 32.92    -0.647 OA
ATOM     19  OE2 GLU D 570     -21.060  -6.475 -16.041  1.00 32.92    -0.647 OA
ENDBRANCH  16  17
ENDBRANCH  15  16
ENDBRANCH  14  15
END_RES GLU D 570
ENDMDL
MODEL 8
REMARK VINA RESULT:      -6.5      1.431      3.383
REMARK  12 active torsions:
REMARK  status: ('A' for Active; 'I' for Inactive)
REMARK    1  A    between atoms: C_1  and  C_2 
REMARK    2  A    between atoms: C_1  and  O_23 
REMARK    3  A    between atoms: C_3  and  O_22 
REMARK    4  A    between atoms: C_4  and  O_21 
REMARK    5  A    between atoms: C_5  and  O_20 
REMARK    6  A    between atoms: C_6  and  O_8 
REMARK    7  A    between atoms: O_8  and  C_9 
REMARK    8  A    between atoms: C_10  and  C_18 
REMARK    9  A    between atoms: C_12  and  O_17 
REMARK   10  A    between atoms: C_13  and  O_16 
REMARK   11  A    between atoms: C_14  and  O_15 
REMARK   12  A    between atoms: C_18  and  O_19 
ROOT
HETATM    1  O   UNL     1     -24.091  -4.160 -12.194  1.00  0.00    -0.348 OA
ENDROOT
BRANCH   1   2
HETATM    2  C   UNL     1     -23.152  -3.762 -11.172  1.00  0.00     0.292 C 
HETATM    3  C   UNL     1     -21.837  -3.322 -11.838  1.00  0.00     0.204 C 
HETATM    4  C   UNL     1     -20.867  -2.897 -10.728  1.00  0.00     0.183 C 
HETATM    5  C   UNL     1     -20.626  -4.054  -9.736  1.00  0.00     0.180 C 
HETATM    6  C   UNL     1     -21.966  -4.625  -9.227  1.00  0.00     0.179 C 
HETATM    7  O   UNL     1     -22.887  -4.860 -10.308  1.00  0.00    -0.348 OA
BRANCH   3   8
HETATM    8  O   UNL     1     -21.257  -4.420 -12.578  1.00  0.00    -0.388 OA
HETATM    9  H   UNL     1     -20.298  -4.391 -12.384  1.00  0.00     0.210 HD
ENDBRANCH   3   8
BRANCH   4  10
HETATM   10  O   UNL     1     -19.632  -2.459 -11.297  1.00  0.00    -0.390 OA
HETATM   11  H   UNL     1     -19.250  -3.245 -11.738  1.00  0.00     0.210 HD
ENDBRANCH   4  10
BRANCH   5  12
HETATM   12  O   UNL     1     -19.873  -5.099 -10.380  1.00  0.00    -0.390 OA
HETATM   13  H   UNL     1     -19.236  -5.427  -9.713  1.00  0.00     0.210 HD
ENDBRANCH   5  12
BRANCH   6  14
HETATM   14  C   UNL     1     -22.602  -3.747  -8.135  1.00  0.00     0.198 C 
BRANCH  14  15
HETATM   15  O   UNL     1     -23.870  -4.267  -7.732  1.00  0.00    -0.398 OA
HETATM   16  H   UNL     1     -23.905  -5.203  -8.003  1.00  0.00     0.209 HD
ENDBRANCH  14  15
ENDBRANCH   6  14
ENDBRANCH   1   2
BRANCH   1  17
HETATM   17  C   UNL     1     -23.801  -3.519 -13.468  1.00  0.00     0.187 C 
HETATM   18  C   UNL     1     -24.631  -2.233 -13.673  1.00  0.00     0.180 C 
HETATM   19  O   UNL     1     -26.024  -2.521 -13.781  1.00  0.00    -0.349 OA
HETATM   20  C   UNL     1     -26.399  -3.409 -14.812  1.00  0.00     0.288 C 
HETATM   21  C   UNL     1     -25.613  -4.739 -14.808  1.00  0.00     0.204 C 
HETATM   22  C   UNL     1     -24.107  -4.510 -14.604  1.00  0.00     0.183 C 
BRANCH  18  23
HETATM   23  C   UNL     1     -24.070  -1.360 -14.804  1.00  0.00     0.198 C 
BRANCH  23  24
HETATM   24  O   UNL     1     -24.850  -0.167 -14.902  1.00  0.00    -0.398 OA
HETATM   25  H   UNL     1     -25.619  -0.374 -15.469  1.00  0.00     0.209 HD
ENDBRANCH  23  24
ENDBRANCH  18  23
BRANCH  20  26
HETATM   26  O   UNL     1     -26.322  -2.765 -16.075  1.00  0.00    -0.369 OA
HETATM   27  H   UNL     1     -26.298  -3.468 -16.756  1.00  0.00     0.212 HD
ENDBRANCH  20  26
BRANCH  21  28
HETATM   28  O   UNL     1     -25.817  -5.397 -16.075  1.00  0.00    -0.388 OA
HETATM   29  H   UNL     1     -25.246  -4.965 -16.737  1.00  0.00     0.210 HD
ENDBRANCH  21  28
BRANCH  22  30
HETATM   30  O   UNL     1     -23.428  -5.751 -14.345  1.00  0.00    -0.390 OA
HETATM   31  H   UNL     1     -23.845  -6.139 -13.554  1.00  0.00     0.210 HD
ENDBRANCH  22  30
ENDBRANCH   1  17
TORSDOF 12
BEGIN_RES ARG D 557
REMARK  4 active torsions:
REMARK  status: ('A' for Active; 'I' for Inactive)
REMARK    1  A    between atoms: CA   and  CB  
REMARK    2  A    between atoms: CB   and  CG  
REMARK    3  A    between atoms: CG   and  CD  
REMARK    4  A    between atoms: CD   and  NE  
REMARK       I    between atoms: NE   and  CZ  
REMARK       I    between atoms: CZ   and  NH1 
REMARK       I    between atoms: CZ   and  NH2 
ROOT
ATOM      1  CA  ARG D 557     -26.217   2.705 -17.014  1.00 35.49     0.159 C 
ENDROOT
BRANCH   1   2
ATOM      2  CB  ARG D 557     -26.789   1.319 -17.183  1.00 35.49     0.034 C 
BRANCH   2   3
ATOM      3  CG  ARG D 557     -28.232   1.226 -17.436  1.00 35.49     0.027 C 
BRANCH   3   4
ATOM      4  CD  ARG D 557     -28.888   0.199 -16.594  1.00 35.49     0.116 C 
BRANCH   4   5
ATOM      5  NE  ARG D 557     -28.445  -1.131 -16.918  1.00 35.49    -0.212 N 
ATOM      6  CZ  ARG D 557     -29.218  -2.129 -17.287  1.00 35.49     0.666 C 
ATOM      7  NH1 ARG D 557     -30.529  -2.011 -17.387  1.00 35.49    -0.235 N 
ATOM      8  NH2 ARG D 557     -28.642  -3.263 -17.564  1.00 35.49    -0.235 N 
ATOM      9  HH  ARG D 557     -30.928  -1.274 -17.212  1.00 35.49     0.174 HD
ATOM     10  HH  ARG D 557     -30.981  -2.696 -17.634  1.00 35.49     0.174 HD
ATOM     11  HH  ARG D 557     -27.793  -3.307 -17.497  1.00 35.49     0.174 HD
ATOM     12  HH  ARG D 557     -29.107  -3.928 -17.808  1.00 35.49     0.174 HD
ATOM     13  HE  ARG D 557     -27.622  -1.316 -16.810  1.00 35.49     0.178 HD
ENDBRANCH   4   5
ENDBRANCH   3   4
ENDBRANCH   2   3
ENDBRANCH   1   2
END_RES ARG D 557
BEGIN_RES GLU D 570
REMARK  3 active torsions:
REMARK  status: ('A' for Active; 'I' for Inactive)
REMARK    5  A    between atoms: CA   and  CB  
REMARK    6  A    between atoms: CB   and  CG  
REMARK    7  A    between atoms: CG   and  CD  
ROOT
ATOM     14  CA  GLU D 570     -18.033  -6.348 -13.375  1.00 32.92     0.160 C 
ENDROOT
BRANCH  14  15
ATOM     15  CB  GLU D 570     -19.500  -6.345 -13.794  1.00 32.92     0.043 C 
BRANCH  15  16
ATOM     16  CG  GLU D 570     -20.107  -7.648 -14.172  1.00 32.92     0.100 C 
BRANCH  16  17
ATOM     17  CD  GLU D 570     -20.682  -7.647 -15.569  1.00 32.92     0.185 C 
ATOM     18  OE1 GLU D 570     -21.122  -6.582 -16.042  1.00 32.92    -0.647 OA
ATOM     19  OE2 GLU D 570     -20.707  -8.727 -16.191  1.00 32.92    -0.647 OA
ENDBRANCH  16  17
ENDBRANCH  15  16
ENDBRANCH  14  15
END_RES GLU D 570
ENDMDL
MODEL 9
REMARK VINA RESULT:      -6.4      1.437      5.283
REMARK  12 active torsions:
REMARK  status: ('A' for Active; 'I' for Inactive)
REMARK    1  A    between atoms: C_1  and  C_2 
REMARK    2  A    between atoms: C_1  and  O_23 
REMARK    3  A    between atoms: C_3  and  O_22 
REMARK    4  A    between atoms: C_4  and  O_21 
REMARK    5  A    between atoms: C_5  and  O_20 
REMARK    6  A    between atoms: C_6  and  O_8 
REMARK    7  A    between atoms: O_8  and  C_9 
REMARK    8  A    between atoms: C_10  and  C_18 
REMARK    9  A    between atoms: C_12  and  O_17 
REMARK   10  A    between atoms: C_13  and  O_16 
REMARK   11  A    between atoms: C_14  and  O_15 
REMARK   12  A    between atoms: C_18  and  O_19 
ROOT
HETATM    1  O   UNL     1     -22.027  -3.193 -10.632  1.00  0.00    -0.348 OA
ENDROOT
BRANCH   1   2
HETATM    2  C   UNL     1     -22.887  -3.376 -11.777  1.00  0.00     0.292 C 
HETATM    3  C   UNL     1     -22.587  -4.740 -12.421  1.00  0.00     0.204 C 
HETATM    4  C   UNL     1     -23.522  -4.907 -13.626  1.00  0.00     0.183 C 
HETATM    5  C   UNL     1     -23.323  -3.761 -14.638  1.00  0.00     0.180 C 
HETATM    6  C   UNL     1     -23.425  -2.389 -13.938  1.00  0.00     0.179 C 
HETATM    7  O   UNL     1     -22.640  -2.351 -12.732  1.00  0.00    -0.348 OA
BRANCH   3   8
HETATM    8  O   UNL     1     -21.216  -4.792 -12.876  1.00  0.00    -0.388 OA
HETATM    9  H   UNL     1     -20.800  -3.965 -12.555  1.00  0.00     0.210 HD
ENDBRANCH   3   8
BRANCH   4  10
HETATM   10  O   UNL     1     -23.297  -6.172 -14.249  1.00  0.00    -0.390 OA
HETATM   11  H   UNL     1     -24.181  -6.495 -14.520  1.00  0.00     0.210 HD
ENDBRANCH   4  10
BRANCH   5  12
HETATM   12  O   UNL     1     -22.033  -3.884 -15.267  1.00  0.00    -0.390 OA
HETATM   13  H   UNL     1     -21.633  -2.991 -15.247  1.00  0.00     0.210 HD
ENDBRANCH   5  12
BRANCH   6  14
HETATM   14  C   UNL     1     -24.881  -1.973 -13.670  1.00  0.00     0.198 C 
BRANCH  14  15
HETATM   15  O   UNL     1     -25.330  -1.025 -14.639  1.00  0.00    -0.398 OA
HETATM   16  H   UNL     1     -25.966  -0.431 -14.199  1.00  0.00     0.209 HD
ENDBRANCH  14  15
ENDBRANCH   6  14
ENDBRANCH   1   2
BRANCH   1  17
HETATM   17  C   UNL     1     -22.102  -4.324  -9.718  1.00  0.00     0.187 C 
HETATM   18  C   UNL     1     -22.903  -3.986  -8.441  1.00  0.00     0.180 C 
HETATM   19  O   UNL     1     -22.241  -2.995  -7.656  1.00  0.00    -0.349 OA
HETATM   20  C   UNL     1     -20.930  -3.306  -7.236  1.00  0.00     0.288 C 
HETATM   21  C   UNL     1     -19.993  -3.740  -8.385  1.00  0.00     0.204 C 
HETATM   22  C   UNL     1     -20.675  -4.744  -9.328  1.00  0.00     0.183 C 
BRANCH  18  23
HETATM   23  C   UNL     1     -23.312  -5.246  -7.668  1.00  0.00     0.198 C 
BRANCH  23  24
HETATM   24  O   UNL     1     -23.934  -4.858  -6.441  1.00  0.00    -0.398 OA
HETATM   25  H   UNL     1     -24.478  -5.615  -6.146  1.00  0.00     0.209 HD
ENDBRANCH  23  24
ENDBRANCH  18  23
BRANCH  20  26
HETATM   26  O   UNL     1     -20.957  -4.272  -6.196  1.00  0.00    -0.369 OA
HETATM   27  H   UNL     1     -20.032  -4.411  -5.908  1.00  0.00     0.212 HD
ENDBRANCH  20  26
BRANCH  21  28
HETATM   28  O   UNL     1     -18.822  -4.360  -7.814  1.00  0.00    -0.388 OA
HETATM   29  H   UNL     1     -19.111  -4.940  -7.084  1.00  0.00     0.210 HD
ENDBRANCH  21  28
BRANCH  22  30
HETATM   30  O   UNL     1     -19.896  -4.939 -10.522  1.00  0.00    -0.390 OA
HETATM   31  H   UNL     1     -18.979  -4.699 -10.300  1.00  0.00     0.210 HD
ENDBRANCH  22  30
ENDBRANCH   1  17
TORSDOF 12
BEGIN_RES ARG D 557
REMARK  4 active torsions:
REMARK  status: ('A' for Active; 'I' for Inactive)
REMARK    1  A    between atoms: CA   and  CB  
REMARK    2  A    between atoms: CB   and  CG  
REMARK    3  A    between atoms: CG   and  CD  
REMARK    4  A    between atoms: CD   and  NE  
REMARK       I    between atoms: NE   and  CZ  
REMARK       I    between atoms: CZ   and  NH1 
REMARK       I    between atoms: CZ   and  NH2 
ROOT
ATOM      1  CA  ARG D 557     -26.217   2.705 -17.014  1.00 35.49     0.159 C 
ENDROOT
BRANCH   1   2
ATOM      2  CB  ARG D 557     -26.789   1.319 -17.183  1.00 35.49     0.034 C 
BRANCH   2   3
ATOM      3  CG  ARG D 557     -28.232   1.226 -17.436  1.00 35.49     0.027 C 
BRANCH   3   4
ATOM      4  CD  ARG D 557     -28.899   0.248 -16.547  1.00 35.49     0.116 C 
BRANCH   4   5
ATOM      5  NE  ARG D 557     -28.029  -0.840 -16.187  1.00 35.49    -0.212 N 
ATOM      6  CZ  ARG D 557     -28.144  -2.083 -16.596  1.00 35.49     0.666 C 
ATOM      7  NH1 ARG D 557     -29.116  -2.479 -17.398  1.00 35.49    -0.235 N 
ATOM      8  NH2 ARG D 557     -27.250  -2.936 -16.186  1.00 35.49    -0.235 N 
ATOM      9  HH  ARG D 557     -29.713  -1.934 -17.682  1.00 35.49     0.174 HD
ATOM     10  HH  ARG D 557     -29.139  -3.302 -17.634  1.00 35.49     0.174 HD
ATOM     11  HH  ARG D 557     -26.630  -2.651 -15.675  1.00 35.49     0.174 HD
ATOM     12  HH  ARG D 557     -27.290  -3.746 -16.432  1.00 35.49     0.174 HD
ATOM     13  HE  ARG D 557     -27.417  -0.690 -15.615  1.00 35.49     0.178 HD
ENDBRANCH   4   5
ENDBRANCH   3   4
ENDBRANCH   2   3
ENDBRANCH   1   2
END_RES ARG D 557
BEGIN_RES GLU D 570
REMARK  3 active torsions:
REMARK  status: ('A' for Active; 'I' for Inactive)
REMARK    5  A    between atoms: CA   and  CB  
REMARK    6  A    between atoms: CB   and  CG  
REMARK    7  A    between atoms: CG   and  CD  
ROOT
ATOM     14  CA  GLU D 570     -18.033  -6.348 -13.375  1.00 32.92     0.160 C 
ENDROOT
BRANCH  14  15
ATOM     15  CB  GLU D 570     -19.500  -6.345 -13.794  1.00 32.92     0.043 C 
BRANCH  15  16
ATOM     16  CG  GLU D 570     -20.091  -7.638 -14.226  1.00 32.92     0.100 C 
BRANCH  16  17
ATOM     17  CD  GLU D 570     -20.651  -7.590 -15.629  1.00 32.92     0.185 C 
ATOM     18  OE1 GLU D 570     -20.777  -8.654 -16.266  1.00 32.92    -0.647 OA
ATOM     19  OE2 GLU D 570     -20.950  -6.476 -16.102  1.00 32.92    -0.647 OA
ENDBRANCH  16  17
ENDBRANCH  15  16
ENDBRANCH  14  15
END_RES GLU D 570
ENDMDL
