MODEL 1
REMARK VINA RESULT:      -1.1      0.000      0.000
REMARK  15 active torsions:
REMARK  status: ('A' for Active; 'I' for Inactive)
REMARK    1  A    between atoms: C_11  and  O_12 
REMARK    2  A    between atoms: O_12  and  C_13 
REMARK    3  A    between atoms: C_14  and  O_24 
REMARK    4  A    between atoms: C_15  and  O_23 
REMARK    5  A    between atoms: C_16  and  O_22 
REMARK    6  A    between atoms: C_17  and  C_19 
REMARK    7  A    between atoms: C_19  and  O_21 
REMARK    8  A    between atoms: O_24  and  C_25 
REMARK    9  A    between atoms: C_26  and  O_36 
REMARK   10  A    between atoms: C_27  and  O_35 
REMARK   11  A    between atoms: C_28  and  O_34 
REMARK   12  A    between atoms: C_29  and  C_31 
REMARK   13  A    between atoms: C_31  and  O_33 
REMARK   14  A    between atoms: C_48  and  C_52 
REMARK   15  A    between atoms: C_52  and  O_54 
ROOT
HETATM    1  H   UNL     1     -25.400  -4.612  -9.976  1.00  0.00     0.309 HD
HETATM    2  H   UNL     1     -25.716  -3.671  -8.686  1.00  0.00     0.309 HD
HETATM    3  H   UNL     1     -26.245  -3.226 -10.164  1.00  0.00     0.309 HD
HETATM    4  N   UNL     2     -25.456  -3.639  -9.672  1.00  0.00     0.072 N 
ENDROOT
TORSDOF 15
BEGIN_RES ARG D 557
REMARK  4 active torsions:
REMARK  status: ('A' for Active; 'I' for Inactive)
REMARK    1  A    between atoms: CA   and  CB  
REMARK    2  A    between atoms: CB   and  CG  
REMARK    3  A    between atoms: CG   and  CD  
REMARK    4  A    between atoms: CD   and  NE  
REMARK       I    between atoms: NE   and  CZ  
REMARK       I    between atoms: CZ   and  NH1 
REMARK       I    between atoms: CZ   and  NH2 
ROOT
ATOM      1  CA  ARG D 557     -26.217   2.705 -17.014  1.00 35.49     0.159 C 
ENDROOT
BRANCH   1   2
ATOM      2  CB  ARG D 557     -26.789   1.319 -17.183  1.00 35.49     0.034 C 
BRANCH   2   3
ATOM      3  CG  ARG D 557     -25.835   0.204 -17.163  1.00 35.49     0.027 C 
BRANCH   3   4
ATOM      4  CD  ARG D 557     -24.760   0.398 -16.163  1.00 35.49     0.116 C 
BRANCH   4   5
ATOM      5  NE  ARG D 557     -24.923  -0.458 -15.018  1.00 35.49    -0.212 N 
ATOM      6  CZ  ARG D 557     -24.111  -1.428 -14.663  1.00 35.49     0.666 C 
ATOM      7  NH1 ARG D 557     -23.030  -1.737 -15.354  1.00 35.49    -0.235 N 
ATOM      8  NH2 ARG D 557     -24.403  -2.090 -13.581  1.00 35.49    -0.235 N 
ATOM      9  HH  ARG D 557     -22.817  -1.313 -16.068  1.00 35.49     0.174 HD
ATOM     10  HH  ARG D 557     -22.536  -2.378 -15.073  1.00 35.49     0.174 HD
ATOM     11  HH  ARG D 557     -25.104  -1.864 -13.150  1.00 35.49     0.174 HD
ATOM     12  HH  ARG D 557     -23.901  -2.720 -13.318  1.00 35.49     0.174 HD
ATOM     13  HE  ARG D 557     -25.632  -0.377 -14.556  1.00 35.49     0.178 HD
ENDBRANCH   4   5
ENDBRANCH   3   4
ENDBRANCH   2   3
ENDBRANCH   1   2
END_RES ARG D 557
BEGIN_RES GLU D 570
REMARK  3 active torsions:
REMARK  status: ('A' for Active; 'I' for Inactive)
REMARK    5  A    between atoms: CA   and  CB  
REMARK    6  A    between atoms: CB   and  CG  
REMARK    7  A    between atoms: CG   and  CD  
ROOT
ATOM     14  CA  GLU D 570     -18.033  -6.348 -13.375  1.00 32.92     0.160 C 
ENDROOT
BRANCH  14  15
ATOM     15  CB  GLU D 570     -19.500  -6.345 -13.794  1.00 32.92     0.043 C 
BRANCH  15  16
ATOM     16  CG  GLU D 570     -20.440  -5.520 -12.991  1.00 32.92     0.100 C 
BRANCH  16  17
ATOM     17  CD  GLU D 570     -21.738  -5.239 -13.710  1.00 32.92     0.185 C 
ATOM     18  OE1 GLU D 570     -22.195  -6.094 -14.493  1.00 32.92    -0.647 OA
ATOM     19  OE2 GLU D 570     -22.297  -4.144 -13.500  1.00 32.92    -0.647 OA
ENDBRANCH  16  17
ENDBRANCH  15  16
ENDBRANCH  14  15
END_RES GLU D 570
ENDMDL
MODEL 2
REMARK VINA RESULT:      -1.0      2.787      3.493
REMARK  15 active torsions:
REMARK  status: ('A' for Active; 'I' for Inactive)
REMARK    1  A    between atoms: C_11  and  O_12 
REMARK    2  A    between atoms: O_12  and  C_13 
REMARK    3  A    between atoms: C_14  and  O_24 
REMARK    4  A    between atoms: C_15  and  O_23 
REMARK    5  A    between atoms: C_16  and  O_22 
REMARK    6  A    between atoms: C_17  and  C_19 
REMARK    7  A    between atoms: C_19  and  O_21 
REMARK    8  A    between atoms: O_24  and  C_25 
REMARK    9  A    between atoms: C_26  and  O_36 
REMARK   10  A    between atoms: C_27  and  O_35 
REMARK   11  A    between atoms: C_28  and  O_34 
REMARK   12  A    between atoms: C_29  and  C_31 
REMARK   13  A    between atoms: C_31  and  O_33 
REMARK   14  A    between atoms: C_48  and  C_52 
REMARK   15  A    between atoms: C_52  and  O_54 
ROOT
HETATM    1  H   UNL     1     -32.880  -3.583 -16.742  1.00  0.00     0.309 HD
HETATM    2  H   UNL     1     -33.934  -3.869 -17.949  1.00  0.00     0.309 HD
HETATM    3  H   UNL     1     -32.763  -2.749 -18.142  1.00  0.00     0.309 HD
HETATM    4  N   UNL     2     -33.428  -3.124 -17.469  1.00  0.00     0.072 N 
ENDROOT
TORSDOF 15
BEGIN_RES ARG D 557
REMARK  4 active torsions:
REMARK  status: ('A' for Active; 'I' for Inactive)
REMARK    1  A    between atoms: CA   and  CB  
REMARK    2  A    between atoms: CB   and  CG  
REMARK    3  A    between atoms: CG   and  CD  
REMARK    4  A    between atoms: CD   and  NE  
REMARK       I    between atoms: NE   and  CZ  
REMARK       I    between atoms: CZ   and  NH1 
REMARK       I    between atoms: CZ   and  NH2 
ROOT
ATOM      1  CA  ARG D 557     -26.217   2.705 -17.014  1.00 35.49     0.159 C 
ENDROOT
BRANCH   1   2
ATOM      2  CB  ARG D 557     -26.789   1.319 -17.183  1.00 35.49     0.034 C 
BRANCH   2   3
ATOM      3  CG  ARG D 557     -25.834   0.204 -17.170  1.00 35.49     0.027 C 
BRANCH   3   4
ATOM      4  CD  ARG D 557     -24.762   0.391 -16.165  1.00 35.49     0.116 C 
BRANCH   4   5
ATOM      5  NE  ARG D 557     -24.935  -0.467 -15.023  1.00 35.49    -0.212 N 
ATOM      6  CZ  ARG D 557     -24.124  -1.435 -14.659  1.00 35.49     0.666 C 
ATOM      7  NH1 ARG D 557     -23.034  -1.740 -15.339  1.00 35.49    -0.235 N 
ATOM      8  NH2 ARG D 557     -24.426  -2.098 -13.581  1.00 35.49    -0.235 N 
ATOM      9  HH  ARG D 557     -22.815  -1.315 -16.050  1.00 35.49     0.174 HD
ATOM     10  HH  ARG D 557     -22.541  -2.379 -15.052  1.00 35.49     0.174 HD
ATOM     11  HH  ARG D 557     -25.132  -1.875 -13.158  1.00 35.49     0.174 HD
ATOM     12  HH  ARG D 557     -23.925  -2.727 -13.313  1.00 35.49     0.174 HD
ATOM     13  HE  ARG D 557     -25.650  -0.388 -14.569  1.00 35.49     0.178 HD
ENDBRANCH   4   5
ENDBRANCH   3   4
ENDBRANCH   2   3
ENDBRANCH   1   2
END_RES ARG D 557
BEGIN_RES GLU D 570
REMARK  3 active torsions:
REMARK  status: ('A' for Active; 'I' for Inactive)
REMARK    5  A    between atoms: CA   and  CB  
REMARK    6  A    between atoms: CB   and  CG  
REMARK    7  A    between atoms: CG   and  CD  
ROOT
ATOM     14  CA  GLU D 570     -18.033  -6.348 -13.375  1.00 32.92     0.160 C 
ENDROOT
BRANCH  14  15
ATOM     15  CB  GLU D 570     -19.500  -6.345 -13.794  1.00 32.92     0.043 C 
BRANCH  15  16
ATOM     16  CG  GLU D 570     -20.445  -5.548 -12.971  1.00 32.92     0.100 C 
BRANCH  16  17
ATOM     17  CD  GLU D 570     -21.738  -5.239 -13.690  1.00 32.92     0.185 C 
ATOM     18  OE1 GLU D 570     -22.276  -4.129 -13.518  1.00 32.92    -0.647 OA
ATOM     19  OE2 GLU D 570     -22.227  -6.124 -14.420  1.00 32.92    -0.647 OA
ENDBRANCH  16  17
ENDBRANCH  15  16
ENDBRANCH  14  15
END_RES GLU D 570
ENDMDL
MODEL 3
REMARK VINA RESULT:      -1.0      4.171      5.154
REMARK  15 active torsions:
REMARK  status: ('A' for Active; 'I' for Inactive)
REMARK    1  A    between atoms: C_11  and  O_12 
REMARK    2  A    between atoms: O_12  and  C_13 
REMARK    3  A    between atoms: C_14  and  O_24 
REMARK    4  A    between atoms: C_15  and  O_23 
REMARK    5  A    between atoms: C_16  and  O_22 
REMARK    6  A    between atoms: C_17  and  C_19 
REMARK    7  A    between atoms: C_19  and  O_21 
REMARK    8  A    between atoms: O_24  and  C_25 
REMARK    9  A    between atoms: C_26  and  O_36 
REMARK   10  A    between atoms: C_27  and  O_35 
REMARK   11  A    between atoms: C_28  and  O_34 
REMARK   12  A    between atoms: C_29  and  C_31 
REMARK   13  A    between atoms: C_31  and  O_33 
REMARK   14  A    between atoms: C_48  and  C_52 
REMARK   15  A    between atoms: C_52  and  O_54 
ROOT
HETATM    1  H   UNL     1     -11.591   6.626 -12.840  1.00  0.00     0.309 HD
HETATM    2  H   UNL     1     -12.354   5.538 -13.779  1.00  0.00     0.309 HD
HETATM    3  H   UNL     1     -11.711   5.070 -12.354  1.00  0.00     0.309 HD
HETATM    4  N   UNL     2     -11.547   5.660 -13.167  1.00  0.00     0.072 N 
ENDROOT
TORSDOF 15
BEGIN_RES ARG D 557
REMARK  4 active torsions:
REMARK  status: ('A' for Active; 'I' for Inactive)
REMARK    1  A    between atoms: CA   and  CB  
REMARK    2  A    between atoms: CB   and  CG  
REMARK    3  A    between atoms: CG   and  CD  
REMARK    4  A    between atoms: CD   and  NE  
REMARK       I    between atoms: NE   and  CZ  
REMARK       I    between atoms: CZ   and  NH1 
REMARK       I    between atoms: CZ   and  NH2 
ROOT
ATOM      1  CA  ARG D 557     -26.217   2.705 -17.014  1.00 35.49     0.159 C 
ENDROOT
BRANCH   1   2
ATOM      2  CB  ARG D 557     -26.789   1.319 -17.183  1.00 35.49     0.034 C 
BRANCH   2   3
ATOM      3  CG  ARG D 557     -25.837   0.202 -17.148  1.00 35.49     0.027 C 
BRANCH   3   4
ATOM      4  CD  ARG D 557     -24.758   0.412 -16.156  1.00 35.49     0.116 C 
BRANCH   4   5
ATOM      5  NE  ARG D 557     -24.904  -0.443 -15.007  1.00 35.49    -0.212 N 
ATOM      6  CZ  ARG D 557     -24.090  -1.416 -14.665  1.00 35.49     0.666 C 
ATOM      7  NH1 ARG D 557     -23.023  -1.730 -15.376  1.00 35.49    -0.235 N 
ATOM      8  NH2 ARG D 557     -24.366  -2.075 -13.578  1.00 35.49    -0.235 N 
ATOM      9  HH  ARG D 557     -22.821  -1.309 -16.094  1.00 35.49     0.174 HD
ATOM     10  HH  ARG D 557     -22.527  -2.374 -15.103  1.00 35.49     0.174 HD
ATOM     11  HH  ARG D 557     -25.058  -1.845 -13.135  1.00 35.49     0.174 HD
ATOM     12  HH  ARG D 557     -23.862  -2.708 -13.323  1.00 35.49     0.174 HD
ATOM     13  HE  ARG D 557     -25.605  -0.357 -14.533  1.00 35.49     0.178 HD
ENDBRANCH   4   5
ENDBRANCH   3   4
ENDBRANCH   2   3
ENDBRANCH   1   2
END_RES ARG D 557
BEGIN_RES GLU D 570
REMARK  3 active torsions:
REMARK  status: ('A' for Active; 'I' for Inactive)
REMARK    5  A    between atoms: CA   and  CB  
REMARK    6  A    between atoms: CB   and  CG  
REMARK    7  A    between atoms: CG   and  CD  
ROOT
ATOM     14  CA  GLU D 570     -18.033  -6.348 -13.375  1.00 32.92     0.160 C 
ENDROOT
BRANCH  14  15
ATOM     15  CB  GLU D 570     -19.500  -6.345 -13.794  1.00 32.92     0.043 C 
BRANCH  15  16
ATOM     16  CG  GLU D 570     -20.444  -5.540 -12.976  1.00 32.92     0.100 C 
BRANCH  16  17
ATOM     17  CD  GLU D 570     -21.742  -5.247 -13.692  1.00 32.92     0.185 C 
ATOM     18  OE1 GLU D 570     -22.232  -6.117 -14.437  1.00 32.92    -0.647 OA
ATOM     19  OE2 GLU D 570     -22.265  -4.128 -13.520  1.00 32.92    -0.647 OA
ENDBRANCH  16  17
ENDBRANCH  15  16
ENDBRANCH  14  15
END_RES GLU D 570
ENDMDL
MODEL 4
REMARK VINA RESULT:      -1.0      3.766      3.766
REMARK  15 active torsions:
REMARK  status: ('A' for Active; 'I' for Inactive)
REMARK    1  A    between atoms: C_11  and  O_12 
REMARK    2  A    between atoms: O_12  and  C_13 
REMARK    3  A    between atoms: C_14  and  O_24 
REMARK    4  A    between atoms: C_15  and  O_23 
REMARK    5  A    between atoms: C_16  and  O_22 
REMARK    6  A    between atoms: C_17  and  C_19 
REMARK    7  A    between atoms: C_19  and  O_21 
REMARK    8  A    between atoms: O_24  and  C_25 
REMARK    9  A    between atoms: C_26  and  O_36 
REMARK   10  A    between atoms: C_27  and  O_35 
REMARK   11  A    between atoms: C_28  and  O_34 
REMARK   12  A    between atoms: C_29  and  C_31 
REMARK   13  A    between atoms: C_31  and  O_33 
REMARK   14  A    between atoms: C_48  and  C_52 
REMARK   15  A    between atoms: C_52  and  O_54 
ROOT
HETATM    1  H   UNL     1     -34.570  -4.757  -0.422  1.00  0.00     0.309 HD
HETATM    2  H   UNL     1     -34.714  -6.339  -0.772  1.00  0.00     0.309 HD
HETATM    3  H   UNL     1     -33.408  -5.510  -1.289  1.00  0.00     0.309 HD
HETATM    4  N   UNL     2     -34.415  -5.445  -1.159  1.00  0.00     0.072 N 
ENDROOT
TORSDOF 15
BEGIN_RES ARG D 557
REMARK  4 active torsions:
REMARK  status: ('A' for Active; 'I' for Inactive)
REMARK    1  A    between atoms: CA   and  CB  
REMARK    2  A    between atoms: CB   and  CG  
REMARK    3  A    between atoms: CG   and  CD  
REMARK    4  A    between atoms: CD   and  NE  
REMARK       I    between atoms: NE   and  CZ  
REMARK       I    between atoms: CZ   and  NH1 
REMARK       I    between atoms: CZ   and  NH2 
ROOT
ATOM      1  CA  ARG D 557     -26.217   2.705 -17.014  1.00 35.49     0.159 C 
ENDROOT
BRANCH   1   2
ATOM      2  CB  ARG D 557     -26.789   1.319 -17.183  1.00 35.49     0.034 C 
BRANCH   2   3
ATOM      3  CG  ARG D 557     -25.833   0.205 -17.182  1.00 35.49     0.027 C 
BRANCH   3   4
ATOM      4  CD  ARG D 557     -24.746   0.395 -16.194  1.00 35.49     0.116 C 
BRANCH   4   5
ATOM      5  NE  ARG D 557     -24.909  -0.448 -15.039  1.00 35.49    -0.212 N 
ATOM      6  CZ  ARG D 557     -24.096  -1.413 -14.672  1.00 35.49     0.666 C 
ATOM      7  NH1 ARG D 557     -23.013  -1.728 -15.358  1.00 35.49    -0.235 N 
ATOM      8  NH2 ARG D 557     -24.389  -2.063 -13.583  1.00 35.49    -0.235 N 
ATOM      9  HH  ARG D 557     -22.800  -1.312 -16.076  1.00 35.49     0.174 HD
ATOM     10  HH  ARG D 557     -22.518  -2.364 -15.069  1.00 35.49     0.174 HD
ATOM     11  HH  ARG D 557     -25.091  -1.833 -13.156  1.00 35.49     0.174 HD
ATOM     12  HH  ARG D 557     -23.886  -2.689 -13.312  1.00 35.49     0.174 HD
ATOM     13  HE  ARG D 557     -25.620  -0.363 -14.580  1.00 35.49     0.178 HD
ENDBRANCH   4   5
ENDBRANCH   3   4
ENDBRANCH   2   3
ENDBRANCH   1   2
END_RES ARG D 557
BEGIN_RES GLU D 570
REMARK  3 active torsions:
REMARK  status: ('A' for Active; 'I' for Inactive)
REMARK    5  A    between atoms: CA   and  CB  
REMARK    6  A    between atoms: CB   and  CG  
REMARK    7  A    between atoms: CG   and  CD  
ROOT
ATOM     14  CA  GLU D 570     -18.033  -6.348 -13.375  1.00 32.92     0.160 C 
ENDROOT
BRANCH  14  15
ATOM     15  CB  GLU D 570     -19.500  -6.345 -13.794  1.00 32.92     0.043 C 
BRANCH  15  16
ATOM     16  CG  GLU D 570     -20.437  -5.511 -12.998  1.00 32.92     0.100 C 
BRANCH  16  17
ATOM     17  CD  GLU D 570     -21.739  -5.240 -13.716  1.00 32.92     0.185 C 
ATOM     18  OE1 GLU D 570     -22.175  -6.086 -14.519  1.00 32.92    -0.647 OA
ATOM     19  OE2 GLU D 570     -22.320  -4.161 -13.485  1.00 32.92    -0.647 OA
ENDBRANCH  16  17
ENDBRANCH  15  16
ENDBRANCH  14  15
END_RES GLU D 570
ENDMDL
MODEL 5
REMARK VINA RESULT:      -1.0      1.889      2.660
REMARK  15 active torsions:
REMARK  status: ('A' for Active; 'I' for Inactive)
REMARK    1  A    between atoms: C_11  and  O_12 
REMARK    2  A    between atoms: O_12  and  C_13 
REMARK    3  A    between atoms: C_14  and  O_24 
REMARK    4  A    between atoms: C_15  and  O_23 
REMARK    5  A    between atoms: C_16  and  O_22 
REMARK    6  A    between atoms: C_17  and  C_19 
REMARK    7  A    between atoms: C_19  and  O_21 
REMARK    8  A    between atoms: O_24  and  C_25 
REMARK    9  A    between atoms: C_26  and  O_36 
REMARK   10  A    between atoms: C_27  and  O_35 
REMARK   11  A    between atoms: C_28  and  O_34 
REMARK   12  A    between atoms: C_29  and  C_31 
REMARK   13  A    between atoms: C_31  and  O_33 
REMARK   14  A    between atoms: C_48  and  C_52 
REMARK   15  A    between atoms: C_52  and  O_54 
ROOT
HETATM    1  H   UNL     1     -23.471  -6.878 -16.311  1.00  0.00     0.309 HD
HETATM    2  H   UNL     1     -23.509  -7.935 -17.547  1.00  0.00     0.309 HD
HETATM    3  H   UNL     1     -24.635  -8.023 -16.369  1.00  0.00     0.309 HD
HETATM    4  N   UNL     2     -23.645  -7.857 -16.539  1.00  0.00     0.072 N 
ENDROOT
TORSDOF 15
BEGIN_RES ARG D 557
REMARK  4 active torsions:
REMARK  status: ('A' for Active; 'I' for Inactive)
REMARK    1  A    between atoms: CA   and  CB  
REMARK    2  A    between atoms: CB   and  CG  
REMARK    3  A    between atoms: CG   and  CD  
REMARK    4  A    between atoms: CD   and  NE  
REMARK       I    between atoms: NE   and  CZ  
REMARK       I    between atoms: CZ   and  NH1 
REMARK       I    between atoms: CZ   and  NH2 
ROOT
ATOM      1  CA  ARG D 557     -26.217   2.705 -17.014  1.00 35.49     0.159 C 
ENDROOT
BRANCH   1   2
ATOM      2  CB  ARG D 557     -26.789   1.319 -17.183  1.00 35.49     0.034 C 
BRANCH   2   3
ATOM      3  CG  ARG D 557     -25.835   0.203 -17.159  1.00 35.49     0.027 C 
BRANCH   3   4
ATOM      4  CD  ARG D 557     -24.759   0.403 -16.162  1.00 35.49     0.116 C 
BRANCH   4   5
ATOM      5  NE  ARG D 557     -24.910  -0.459 -15.020  1.00 35.49    -0.212 N 
ATOM      6  CZ  ARG D 557     -24.093  -1.429 -14.676  1.00 35.49     0.666 C 
ATOM      7  NH1 ARG D 557     -23.016  -1.732 -15.378  1.00 35.49    -0.235 N 
ATOM      8  NH2 ARG D 557     -24.374  -2.097 -13.595  1.00 35.49    -0.235 N 
ATOM      9  HH  ARG D 557     -22.810  -1.304 -16.091  1.00 35.49     0.174 HD
ATOM     10  HH  ARG D 557     -22.518  -2.373 -15.103  1.00 35.49     0.174 HD
ATOM     11  HH  ARG D 557     -25.072  -1.874 -13.157  1.00 35.49     0.174 HD
ATOM     12  HH  ARG D 557     -23.868  -2.727 -13.339  1.00 35.49     0.174 HD
ATOM     13  HE  ARG D 557     -25.616  -0.382 -14.552  1.00 35.49     0.178 HD
ENDBRANCH   4   5
ENDBRANCH   3   4
ENDBRANCH   2   3
ENDBRANCH   1   2
END_RES ARG D 557
BEGIN_RES GLU D 570
REMARK  3 active torsions:
REMARK  status: ('A' for Active; 'I' for Inactive)
REMARK    5  A    between atoms: CA   and  CB  
REMARK    6  A    between atoms: CB   and  CG  
REMARK    7  A    between atoms: CG   and  CD  
ROOT
ATOM     14  CA  GLU D 570     -18.033  -6.348 -13.375  1.00 32.92     0.160 C 
ENDROOT
BRANCH  14  15
ATOM     15  CB  GLU D 570     -19.500  -6.345 -13.794  1.00 32.92     0.043 C 
BRANCH  15  16
ATOM     16  CG  GLU D 570     -20.438  -5.513 -12.997  1.00 32.92     0.100 C 
BRANCH  16  17
ATOM     17  CD  GLU D 570     -21.733  -5.227 -13.720  1.00 32.92     0.185 C 
ATOM     18  OE1 GLU D 570     -22.313  -4.143 -13.519  1.00 32.92    -0.647 OA
ATOM     19  OE2 GLU D 570     -22.182  -6.104 -14.485  1.00 32.92    -0.647 OA
ENDBRANCH  16  17
ENDBRANCH  15  16
ENDBRANCH  14  15
END_RES GLU D 570
ENDMDL
MODEL 6
REMARK VINA RESULT:      -1.0      3.085      3.182
REMARK  15 active torsions:
REMARK  status: ('A' for Active; 'I' for Inactive)
REMARK    1  A    between atoms: C_11  and  O_12 
REMARK    2  A    between atoms: O_12  and  C_13 
REMARK    3  A    between atoms: C_14  and  O_24 
REMARK    4  A    between atoms: C_15  and  O_23 
REMARK    5  A    between atoms: C_16  and  O_22 
REMARK    6  A    between atoms: C_17  and  C_19 
REMARK    7  A    between atoms: C_19  and  O_21 
REMARK    8  A    between atoms: O_24  and  C_25 
REMARK    9  A    between atoms: C_26  and  O_36 
REMARK   10  A    between atoms: C_27  and  O_35 
REMARK   11  A    between atoms: C_28  and  O_34 
REMARK   12  A    between atoms: C_29  and  C_31 
REMARK   13  A    between atoms: C_31  and  O_33 
REMARK   14  A    between atoms: C_48  and  C_52 
REMARK   15  A    between atoms: C_52  and  O_54 
ROOT
HETATM    1  H   UNL     1     -34.445  -9.350 -10.135  1.00  0.00     0.309 HD
HETATM    2  H   UNL     1     -33.197  -8.729  -9.295  1.00  0.00     0.309 HD
HETATM    3  H   UNL     1     -33.433  -8.283 -10.847  1.00  0.00     0.309 HD
HETATM    4  N   UNL     2     -33.464  -9.080 -10.215  1.00  0.00     0.072 N 
ENDROOT
TORSDOF 15
BEGIN_RES ARG D 557
REMARK  4 active torsions:
REMARK  status: ('A' for Active; 'I' for Inactive)
REMARK    1  A    between atoms: CA   and  CB  
REMARK    2  A    between atoms: CB   and  CG  
REMARK    3  A    between atoms: CG   and  CD  
REMARK    4  A    between atoms: CD   and  NE  
REMARK       I    between atoms: NE   and  CZ  
REMARK       I    between atoms: CZ   and  NH1 
REMARK       I    between atoms: CZ   and  NH2 
ROOT
ATOM      1  CA  ARG D 557     -26.217   2.705 -17.014  1.00 35.49     0.159 C 
ENDROOT
BRANCH   1   2
ATOM      2  CB  ARG D 557     -26.789   1.319 -17.183  1.00 35.49     0.034 C 
BRANCH   2   3
ATOM      3  CG  ARG D 557     -25.864   0.195 -16.992  1.00 35.49     0.027 C 
BRANCH   3   4
ATOM      4  CD  ARG D 557     -26.286  -0.702 -15.892  1.00 35.49     0.116 C 
BRANCH   4   5
ATOM      5  NE  ARG D 557     -25.232  -0.920 -14.936  1.00 35.49    -0.212 N 
ATOM      6  CZ  ARG D 557     -24.945  -2.064 -14.358  1.00 35.49     0.666 C 
ATOM      7  NH1 ARG D 557     -25.628  -3.169 -14.593  1.00 35.49    -0.235 N 
ATOM      8  NH2 ARG D 557     -23.940  -2.083 -13.531  1.00 35.49    -0.235 N 
ATOM      9  HH  ARG D 557     -26.291  -3.181 -15.135  1.00 35.49     0.174 HD
ATOM     10  HH  ARG D 557     -25.392  -3.887 -14.188  1.00 35.49     0.174 HD
ATOM     11  HH  ARG D 557     -23.512  -1.356 -13.404  1.00 35.49     0.174 HD
ATOM     12  HH  ARG D 557     -23.722  -2.804 -13.141  1.00 35.49     0.174 HD
ATOM     13  HE  ARG D 557     -24.788  -0.245 -14.671  1.00 35.49     0.178 HD
ENDBRANCH   4   5
ENDBRANCH   3   4
ENDBRANCH   2   3
ENDBRANCH   1   2
END_RES ARG D 557
BEGIN_RES GLU D 570
REMARK  3 active torsions:
REMARK  status: ('A' for Active; 'I' for Inactive)
REMARK    5  A    between atoms: CA   and  CB  
REMARK    6  A    between atoms: CB   and  CG  
REMARK    7  A    between atoms: CG   and  CD  
ROOT
ATOM     14  CA  GLU D 570     -18.033  -6.348 -13.375  1.00 32.92     0.160 C 
ENDROOT
BRANCH  14  15
ATOM     15  CB  GLU D 570     -19.500  -6.345 -13.794  1.00 32.92     0.043 C 
BRANCH  15  16
ATOM     16  CG  GLU D 570     -20.448  -5.560 -12.962  1.00 32.92     0.100 C 
BRANCH  16  17
ATOM     17  CD  GLU D 570     -21.678  -5.122 -13.723  1.00 32.92     0.185 C 
ATOM     18  OE1 GLU D 570     -21.618  -5.022 -14.964  1.00 32.92    -0.647 OA
ATOM     19  OE2 GLU D 570     -22.707  -4.861 -13.070  1.00 32.92    -0.647 OA
ENDBRANCH  16  17
ENDBRANCH  15  16
ENDBRANCH  14  15
END_RES GLU D 570
ENDMDL
MODEL 7
REMARK VINA RESULT:      -0.9      3.001      4.132
REMARK  15 active torsions:
REMARK  status: ('A' for Active; 'I' for Inactive)
REMARK    1  A    between atoms: C_11  and  O_12 
REMARK    2  A    between atoms: O_12  and  C_13 
REMARK    3  A    between atoms: C_14  and  O_24 
REMARK    4  A    between atoms: C_15  and  O_23 
REMARK    5  A    between atoms: C_16  and  O_22 
REMARK    6  A    between atoms: C_17  and  C_19 
REMARK    7  A    between atoms: C_19  and  O_21 
REMARK    8  A    between atoms: O_24  and  C_25 
REMARK    9  A    between atoms: C_26  and  O_36 
REMARK   10  A    between atoms: C_27  and  O_35 
REMARK   11  A    between atoms: C_28  and  O_34 
REMARK   12  A    between atoms: C_29  and  C_31 
REMARK   13  A    between atoms: C_31  and  O_33 
REMARK   14  A    between atoms: C_48  and  C_52 
REMARK   15  A    between atoms: C_52  and  O_54 
ROOT
HETATM    1  H   UNL     1     -23.617  -0.483 -15.216  1.00  0.00     0.309 HD
HETATM    2  H   UNL     1     -24.703   0.236 -14.241  1.00  0.00     0.309 HD
HETATM    3  H   UNL     1     -24.956  -1.293 -14.750  1.00  0.00     0.309 HD
HETATM    4  N   UNL     2     -24.618  -0.381 -15.048  1.00  0.00     0.072 N 
ENDROOT
TORSDOF 15
BEGIN_RES ARG D 557
REMARK  4 active torsions:
REMARK  status: ('A' for Active; 'I' for Inactive)
REMARK    1  A    between atoms: CA   and  CB  
REMARK    2  A    between atoms: CB   and  CG  
REMARK    3  A    between atoms: CG   and  CD  
REMARK    4  A    between atoms: CD   and  NE  
REMARK       I    between atoms: NE   and  CZ  
REMARK       I    between atoms: CZ   and  NH1 
REMARK       I    between atoms: CZ   and  NH2 
ROOT
ATOM      1  CA  ARG D 557     -26.217   2.705 -17.014  1.00 35.49     0.159 C 
ENDROOT
BRANCH   1   2
ATOM      2  CB  ARG D 557     -26.789   1.319 -17.183  1.00 35.49     0.034 C 
BRANCH   2   3
ATOM      3  CG  ARG D 557     -28.237   1.225 -17.407  1.00 35.49     0.027 C 
BRANCH   3   4
ATOM      4  CD  ARG D 557     -28.891   0.279 -16.474  1.00 35.49     0.116 C 
BRANCH   4   5
ATOM      5  NE  ARG D 557     -29.302  -0.934 -17.131  1.00 35.49    -0.212 N 
ATOM      6  CZ  ARG D 557     -28.693  -2.096 -17.049  1.00 35.49     0.666 C 
ATOM      7  NH1 ARG D 557     -27.593  -2.271 -16.340  1.00 35.49    -0.235 N 
ATOM      8  NH2 ARG D 557     -29.218  -3.096 -17.695  1.00 35.49    -0.235 N 
ATOM      9  HH  ARG D 557     -27.231  -1.627 -15.905  1.00 35.49     0.174 HD
ATOM     10  HH  ARG D 557     -27.241  -3.052 -16.322  1.00 35.49     0.174 HD
ATOM     11  HH  ARG D 557     -29.933  -2.955 -18.138  1.00 35.49     0.174 HD
ATOM     12  HH  ARG D 557     -28.855  -3.862 -17.663  1.00 35.49     0.174 HD
ATOM     13  HE  ARG D 557     -29.961  -0.895 -17.667  1.00 35.49     0.178 HD
ENDBRANCH   4   5
ENDBRANCH   3   4
ENDBRANCH   2   3
ENDBRANCH   1   2
END_RES ARG D 557
BEGIN_RES GLU D 570
REMARK  3 active torsions:
REMARK  status: ('A' for Active; 'I' for Inactive)
REMARK    5  A    between atoms: CA   and  CB  
REMARK    6  A    between atoms: CB   and  CG  
REMARK    7  A    between atoms: CG   and  CD  
ROOT
ATOM     14  CA  GLU D 570     -18.033  -6.348 -13.375  1.00 32.92     0.160 C 
ENDROOT
BRANCH  14  15
ATOM     15  CB  GLU D 570     -19.500  -6.345 -13.794  1.00 32.92     0.043 C 
BRANCH  15  16
ATOM     16  CG  GLU D 570     -20.443  -5.535 -12.980  1.00 32.92     0.100 C 
BRANCH  16  17
ATOM     17  CD  GLU D 570     -21.724  -5.209 -13.712  1.00 32.92     0.185 C 
ATOM     18  OE1 GLU D 570     -22.457  -4.302 -13.274  1.00 32.92    -0.647 OA
ATOM     19  OE2 GLU D 570     -22.004  -5.878 -14.726  1.00 32.92    -0.647 OA
ENDBRANCH  16  17
ENDBRANCH  15  16
ENDBRANCH  14  15
END_RES GLU D 570
ENDMDL
MODEL 8
REMARK VINA RESULT:      -0.9      2.724      3.819
REMARK  15 active torsions:
REMARK  status: ('A' for Active; 'I' for Inactive)
REMARK    1  A    between atoms: C_11  and  O_12 
REMARK    2  A    between atoms: O_12  and  C_13 
REMARK    3  A    between atoms: C_14  and  O_24 
REMARK    4  A    between atoms: C_15  and  O_23 
REMARK    5  A    between atoms: C_16  and  O_22 
REMARK    6  A    between atoms: C_17  and  C_19 
REMARK    7  A    between atoms: C_19  and  O_21 
REMARK    8  A    between atoms: O_24  and  C_25 
REMARK    9  A    between atoms: C_26  and  O_36 
REMARK   10  A    between atoms: C_27  and  O_35 
REMARK   11  A    between atoms: C_28  and  O_34 
REMARK   12  A    between atoms: C_29  and  C_31 
REMARK   13  A    between atoms: C_31  and  O_33 
REMARK   14  A    between atoms: C_48  and  C_52 
REMARK   15  A    between atoms: C_52  and  O_54 
ROOT
HETATM    1  H   UNL     1     -23.715  -8.078 -21.599  1.00  0.00     0.309 HD
HETATM    2  H   UNL     1     -23.905  -9.376 -20.637  1.00  0.00     0.309 HD
HETATM    3  H   UNL     1     -22.797  -8.241 -20.257  1.00  0.00     0.309 HD
HETATM    4  N   UNL     2     -23.201  -8.756 -21.036  1.00  0.00     0.072 N 
ENDROOT
TORSDOF 15
BEGIN_RES ARG D 557
REMARK  4 active torsions:
REMARK  status: ('A' for Active; 'I' for Inactive)
REMARK    1  A    between atoms: CA   and  CB  
REMARK    2  A    between atoms: CB   and  CG  
REMARK    3  A    between atoms: CG   and  CD  
REMARK    4  A    between atoms: CD   and  NE  
REMARK       I    between atoms: NE   and  CZ  
REMARK       I    between atoms: CZ   and  NH1 
REMARK       I    between atoms: CZ   and  NH2 
ROOT
ATOM      1  CA  ARG D 557     -26.217   2.705 -17.014  1.00 35.49     0.159 C 
ENDROOT
BRANCH   1   2
ATOM      2  CB  ARG D 557     -26.789   1.319 -17.183  1.00 35.49     0.034 C 
BRANCH   2   3
ATOM      3  CG  ARG D 557     -25.835   0.203 -17.162  1.00 35.49     0.027 C 
BRANCH   3   4
ATOM      4  CD  ARG D 557     -24.743   0.414 -16.184  1.00 35.49     0.116 C 
BRANCH   4   5
ATOM      5  NE  ARG D 557     -24.882  -0.428 -15.025  1.00 35.49    -0.212 N 
ATOM      6  CZ  ARG D 557     -24.068  -1.399 -14.679  1.00 35.49     0.666 C 
ATOM      7  NH1 ARG D 557     -23.006  -1.723 -15.393  1.00 35.49    -0.235 N 
ATOM      8  NH2 ARG D 557     -24.337  -2.046 -13.582  1.00 35.49    -0.235 N 
ATOM      9  HH  ARG D 557     -22.808  -1.309 -16.117  1.00 35.49     0.174 HD
ATOM     10  HH  ARG D 557     -22.509  -2.364 -15.116  1.00 35.49     0.174 HD
ATOM     11  HH  ARG D 557     -25.025  -1.810 -13.137  1.00 35.49     0.174 HD
ATOM     12  HH  ARG D 557     -23.832  -2.676 -13.324  1.00 35.49     0.174 HD
ATOM     13  HE  ARG D 557     -25.579  -0.336 -14.547  1.00 35.49     0.178 HD
ENDBRANCH   4   5
ENDBRANCH   3   4
ENDBRANCH   2   3
ENDBRANCH   1   2
END_RES ARG D 557
BEGIN_RES GLU D 570
REMARK  3 active torsions:
REMARK  status: ('A' for Active; 'I' for Inactive)
REMARK    5  A    between atoms: CA   and  CB  
REMARK    6  A    between atoms: CB   and  CG  
REMARK    7  A    between atoms: CG   and  CD  
ROOT
ATOM     14  CA  GLU D 570     -18.033  -6.348 -13.375  1.00 32.92     0.160 C 
ENDROOT
BRANCH  14  15
ATOM     15  CB  GLU D 570     -19.500  -6.345 -13.794  1.00 32.92     0.043 C 
BRANCH  15  16
ATOM     16  CG  GLU D 570     -20.442  -5.530 -12.984  1.00 32.92     0.100 C 
BRANCH  16  17
ATOM     17  CD  GLU D 570     -21.736  -5.234 -13.705  1.00 32.92     0.185 C 
ATOM     18  OE1 GLU D 570     -22.184  -6.071 -14.512  1.00 32.92    -0.647 OA
ATOM     19  OE2 GLU D 570     -22.299  -4.146 -13.473  1.00 32.92    -0.647 OA
ENDBRANCH  16  17
ENDBRANCH  15  16
ENDBRANCH  14  15
END_RES GLU D 570
ENDMDL
MODEL 9
REMARK VINA RESULT:      -0.8      3.492      4.461
REMARK  15 active torsions:
REMARK  status: ('A' for Active; 'I' for Inactive)
REMARK    1  A    between atoms: C_11  and  O_12 
REMARK    2  A    between atoms: O_12  and  C_13 
REMARK    3  A    between atoms: C_14  and  O_24 
REMARK    4  A    between atoms: C_15  and  O_23 
REMARK    5  A    between atoms: C_16  and  O_22 
REMARK    6  A    between atoms: C_17  and  C_19 
REMARK    7  A    between atoms: C_19  and  O_21 
REMARK    8  A    between atoms: O_24  and  C_25 
REMARK    9  A    between atoms: C_26  and  O_36 
REMARK   10  A    between atoms: C_27  and  O_35 
REMARK   11  A    between atoms: C_28  and  O_34 
REMARK   12  A    between atoms: C_29  and  C_31 
REMARK   13  A    between atoms: C_31  and  O_33 
REMARK   14  A    between atoms: C_48  and  C_52 
REMARK   15  A    between atoms: C_52  and  O_54 
ROOT
HETATM    1  H   UNL     1     -24.188   0.134 -14.290  1.00  0.00     0.309 HD
HETATM    2  H   UNL     1     -25.467  -0.832 -14.568  1.00  0.00     0.309 HD
HETATM    3  H   UNL     1     -24.033  -1.162 -15.272  1.00  0.00     0.309 HD
HETATM    4  N   UNL     2     -24.660  -0.402 -15.019  1.00  0.00     0.072 N 
ENDROOT
TORSDOF 15
BEGIN_RES ARG D 557
REMARK  4 active torsions:
REMARK  status: ('A' for Active; 'I' for Inactive)
REMARK    1  A    between atoms: CA   and  CB  
REMARK    2  A    between atoms: CB   and  CG  
REMARK    3  A    between atoms: CG   and  CD  
REMARK    4  A    between atoms: CD   and  NE  
REMARK       I    between atoms: NE   and  CZ  
REMARK       I    between atoms: CZ   and  NH1 
REMARK       I    between atoms: CZ   and  NH2 
ROOT
ATOM      1  CA  ARG D 557     -26.217   2.705 -17.014  1.00 35.49     0.159 C 
ENDROOT
BRANCH   1   2
ATOM      2  CB  ARG D 557     -26.789   1.319 -17.183  1.00 35.49     0.034 C 
BRANCH   2   3
ATOM      3  CG  ARG D 557     -28.235   1.225 -17.418  1.00 35.49     0.027 C 
BRANCH   3   4
ATOM      4  CD  ARG D 557     -28.899   0.288 -16.482  1.00 35.49     0.116 C 
BRANCH   4   5
ATOM      5  NE  ARG D 557     -29.281  -0.941 -17.126  1.00 35.49    -0.212 N 
ATOM      6  CZ  ARG D 557     -28.652  -2.090 -17.022  1.00 35.49     0.666 C 
ATOM      7  NH1 ARG D 557     -27.556  -2.236 -16.301  1.00 35.49    -0.235 N 
ATOM      8  NH2 ARG D 557     -29.153  -3.108 -17.660  1.00 35.49    -0.235 N 
ATOM      9  HH  ARG D 557     -27.210  -1.580 -15.872  1.00 35.49     0.174 HD
ATOM     10  HH  ARG D 557     -27.191  -3.010 -16.268  1.00 35.49     0.174 HD
ATOM     11  HH  ARG D 557     -29.866  -2.986 -18.112  1.00 35.49     0.174 HD
ATOM     12  HH  ARG D 557     -28.777  -3.867 -17.613  1.00 35.49     0.174 HD
ATOM     13  HE  ARG D 557     -29.935  -0.921 -17.669  1.00 35.49     0.178 HD
ENDBRANCH   4   5
ENDBRANCH   3   4
ENDBRANCH   2   3
ENDBRANCH   1   2
END_RES ARG D 557
BEGIN_RES GLU D 570
REMARK  3 active torsions:
REMARK  status: ('A' for Active; 'I' for Inactive)
REMARK    5  A    between atoms: CA   and  CB  
REMARK    6  A    between atoms: CB   and  CG  
REMARK    7  A    between atoms: CG   and  CD  
ROOT
ATOM     14  CA  GLU D 570     -18.033  -6.348 -13.375  1.00 32.92     0.160 C 
ENDROOT
BRANCH  14  15
ATOM     15  CB  GLU D 570     -19.500  -6.345 -13.794  1.00 32.92     0.043 C 
BRANCH  15  16
ATOM     16  CG  GLU D 570     -20.090  -7.637 -14.231  1.00 32.92     0.100 C 
BRANCH  16  17
ATOM     17  CD  GLU D 570     -20.641  -7.587 -15.637  1.00 32.92     0.185 C 
ATOM     18  OE1 GLU D 570     -21.129  -8.621 -16.132  1.00 32.92    -0.647 OA
ATOM     19  OE2 GLU D 570     -20.569  -6.507 -16.255  1.00 32.92    -0.647 OA
ENDBRANCH  16  17
ENDBRANCH  15  16
ENDBRANCH  14  15
END_RES GLU D 570
ENDMDL
