MODEL 1
REMARK VINA RESULT:      -5.9      0.000      0.000
REMARK  11 active torsions:
REMARK  status: ('A' for Active; 'I' for Inactive)
REMARK    1  A    between atoms: C_1  and  C_2 
REMARK    2  A    between atoms: C_1  and  C_9 
REMARK    3  A    between atoms: C_2  and  C_3 
REMARK    4  A    between atoms: C_3  and  C_4 
REMARK    5  A    between atoms: C_4  and  C_5 
REMARK    6  A    between atoms: C_5  and  C_6 
REMARK    7  A    between atoms: C_6  and  O_8 
REMARK    8  A    between atoms: C_9  and  C_10 
REMARK    9  A    between atoms: C_10  and  C_11 
REMARK   10  A    between atoms: C_11  and  C_12 
REMARK   11  A    between atoms: C_12  and  O_13 
ROOT
HETATM    1  C   UNL     1     -20.120  -3.955  -7.902  1.00  0.00     0.000 C 
ENDROOT
BRANCH   1   2
HETATM    2  C   UNL     1     -19.607  -4.933  -6.852  1.00  0.00     0.000 C 
BRANCH   2   3
HETATM    3  C   UNL     1     -20.587  -5.045  -5.689  1.00  0.00     0.000 C 
BRANCH   3   4
HETATM    4  C   UNL     1     -20.896  -6.507  -5.391  1.00  0.00     0.002 C 
BRANCH   4   5
HETATM    5  C   UNL     1     -21.982  -6.631  -4.331  1.00  0.00     0.026 C 
BRANCH   5   6
HETATM    6  C   UNL     1     -21.486  -6.128  -2.984  1.00  0.00     0.164 C 
BRANCH   6   7
HETATM    7  O   UNL     1     -22.590  -5.847  -2.139  1.00  0.00    -0.401 OA
HETATM    8  H   UNL     1     -23.389  -6.177  -2.584  1.00  0.00     0.209 HD
ENDBRANCH   6   7
ENDBRANCH   5   6
ENDBRANCH   4   5
ENDBRANCH   3   4
ENDBRANCH   2   3
ENDBRANCH   1   2
BRANCH   1   9
HETATM    9  C   UNL     1     -21.614  -3.698  -7.721  1.00  0.00     0.001 C 
BRANCH   9  10
HETATM   10  C   UNL     1     -22.350  -3.921  -9.038  1.00  0.00     0.010 C 
BRANCH  10  11
HETATM   11  C   UNL     1     -23.853  -4.096  -8.840  1.00  0.00     0.110 C 
BRANCH  11  12
HETATM   12  C   UNL     1     -24.617  -3.370  -9.922  1.00  0.00     0.139 C 
HETATM   13  O   UNL     1     -24.128  -2.908 -10.942  1.00  0.00    -0.650 OA
BRANCH  12  14
HETATM   14  O   UNL     1     -25.935  -3.277  -9.654  1.00  0.00    -0.776 OA
HETATM   15  H   UNL     1     -26.509  -3.411 -10.434  1.00  0.00     0.167 HD
ENDBRANCH  12  14
ENDBRANCH  11  12
ENDBRANCH  10  11
ENDBRANCH   9  10
ENDBRANCH   1   9
TORSDOF 11
BEGIN_RES ARG D 557
REMARK  4 active torsions:
REMARK  status: ('A' for Active; 'I' for Inactive)
REMARK    1  A    between atoms: CA   and  CB  
REMARK    2  A    between atoms: CB   and  CG  
REMARK    3  A    between atoms: CG   and  CD  
REMARK    4  A    between atoms: CD   and  NE  
REMARK       I    between atoms: NE   and  CZ  
REMARK       I    between atoms: CZ   and  NH1 
REMARK       I    between atoms: CZ   and  NH2 
ROOT
ATOM      1  CA  ARG D 557     -26.217   2.705 -17.014  1.00 35.49     0.159 C 
ENDROOT
BRANCH   1   2
ATOM      2  CB  ARG D 557     -26.789   1.319 -17.183  1.00 35.49     0.034 C 
BRANCH   2   3
ATOM      3  CG  ARG D 557     -25.860   0.195 -17.011  1.00 35.49     0.027 C 
BRANCH   3   4
ATOM      4  CD  ARG D 557     -26.237  -0.679 -15.876  1.00 35.49     0.116 C 
BRANCH   4   5
ATOM      5  NE  ARG D 557     -25.138  -0.898 -14.972  1.00 35.49    -0.212 N 
ATOM      6  CZ  ARG D 557     -24.847  -2.033 -14.378  1.00 35.49     0.666 C 
ATOM      7  NH1 ARG D 557     -25.569  -3.126 -14.545  1.00 35.49    -0.235 N 
ATOM      8  NH2 ARG D 557     -23.800  -2.055 -13.606  1.00 35.49    -0.235 N 
ATOM      9  HH  ARG D 557     -26.261  -3.135 -15.050  1.00 35.49     0.174 HD
ATOM     10  HH  ARG D 557     -25.329  -3.839 -14.133  1.00 35.49     0.174 HD
ATOM     11  HH  ARG D 557     -23.348  -1.336 -13.523  1.00 35.49     0.174 HD
ATOM     12  HH  ARG D 557     -23.578  -2.771 -13.209  1.00 35.49     0.174 HD
ATOM     13  HE  ARG D 557     -24.663  -0.228 -14.751  1.00 35.49     0.178 HD
ENDBRANCH   4   5
ENDBRANCH   3   4
ENDBRANCH   2   3
ENDBRANCH   1   2
END_RES ARG D 557
BEGIN_RES GLU D 570
REMARK  3 active torsions:
REMARK  status: ('A' for Active; 'I' for Inactive)
REMARK    5  A    between atoms: CA   and  CB  
REMARK    6  A    between atoms: CB   and  CG  
REMARK    7  A    between atoms: CG   and  CD  
ROOT
ATOM     14  CA  GLU D 570     -18.033  -6.348 -13.375  1.00 32.92     0.160 C 
ENDROOT
BRANCH  14  15
ATOM     15  CB  GLU D 570     -19.500  -6.345 -13.794  1.00 32.92     0.043 C 
BRANCH  15  16
ATOM     16  CG  GLU D 570     -20.444  -5.541 -12.976  1.00 32.92     0.100 C 
BRANCH  16  17
ATOM     17  CD  GLU D 570     -21.684  -5.134 -13.736  1.00 32.92     0.185 C 
ATOM     18  OE1 GLU D 570     -21.614  -4.982 -14.971  1.00 32.92    -0.647 OA
ATOM     19  OE2 GLU D 570     -22.733  -4.948 -13.088  1.00 32.92    -0.647 OA
ENDBRANCH  16  17
ENDBRANCH  15  16
ENDBRANCH  14  15
END_RES GLU D 570
ENDMDL
MODEL 2
REMARK VINA RESULT:      -5.8      3.207      5.574
REMARK  11 active torsions:
REMARK  status: ('A' for Active; 'I' for Inactive)
REMARK    1  A    between atoms: C_1  and  C_2 
REMARK    2  A    between atoms: C_1  and  C_9 
REMARK    3  A    between atoms: C_2  and  C_3 
REMARK    4  A    between atoms: C_3  and  C_4 
REMARK    5  A    between atoms: C_4  and  C_5 
REMARK    6  A    between atoms: C_5  and  C_6 
REMARK    7  A    between atoms: C_6  and  O_8 
REMARK    8  A    between atoms: C_9  and  C_10 
REMARK    9  A    between atoms: C_10  and  C_11 
REMARK   10  A    between atoms: C_11  and  C_12 
REMARK   11  A    between atoms: C_12  and  O_13 
ROOT
HETATM    1  C   UNL     1     -20.471  -4.415 -10.540  1.00  0.00     0.000 C 
ENDROOT
BRANCH   1   2
HETATM    2  C   UNL     1     -20.835  -3.209 -11.397  1.00  0.00     0.000 C 
BRANCH   2   3
HETATM    3  C   UNL     1     -21.959  -3.554 -12.368  1.00  0.00     0.000 C 
BRANCH   3   4
HETATM    4  C   UNL     1     -22.964  -2.411 -12.447  1.00  0.00     0.002 C 
BRANCH   4   5
HETATM    5  C   UNL     1     -24.095  -2.743 -13.412  1.00  0.00     0.026 C 
BRANCH   5   6
HETATM    6  C   UNL     1     -24.056  -1.832 -14.629  1.00  0.00     0.164 C 
BRANCH   6   7
HETATM    7  O   UNL     1     -25.190  -0.978 -14.627  1.00  0.00    -0.401 OA
HETATM    8  H   UNL     1     -24.923  -0.141 -14.211  1.00  0.00     0.209 HD
ENDBRANCH   6   7
ENDBRANCH   5   6
ENDBRANCH   4   5
ENDBRANCH   3   4
ENDBRANCH   2   3
ENDBRANCH   1   2
BRANCH   1   9
HETATM    9  C   UNL     1     -20.853  -4.182  -9.081  1.00  0.00     0.001 C 
BRANCH   9  10
HETATM   10  C   UNL     1     -22.236  -4.759  -8.799  1.00  0.00     0.010 C 
BRANCH  10  11
HETATM   11  C   UNL     1     -23.309  -3.678  -8.709  1.00  0.00     0.110 C 
BRANCH  11  12
HETATM   12  C   UNL     1     -24.430  -3.964  -9.679  1.00  0.00     0.139 C 
HETATM   13  O   UNL     1     -25.390  -3.236  -9.883  1.00  0.00    -0.650 OA
BRANCH  12  14
HETATM   14  O   UNL     1     -24.270  -5.135 -10.329  1.00  0.00    -0.776 OA
HETATM   15  H   UNL     1     -24.956  -5.314 -11.001  1.00  0.00     0.167 HD
ENDBRANCH  12  14
ENDBRANCH  11  12
ENDBRANCH  10  11
ENDBRANCH   9  10
ENDBRANCH   1   9
TORSDOF 11
BEGIN_RES ARG D 557
REMARK  4 active torsions:
REMARK  status: ('A' for Active; 'I' for Inactive)
REMARK    1  A    between atoms: CA   and  CB  
REMARK    2  A    between atoms: CB   and  CG  
REMARK    3  A    between atoms: CG   and  CD  
REMARK    4  A    between atoms: CD   and  NE  
REMARK       I    between atoms: NE   and  CZ  
REMARK       I    between atoms: CZ   and  NH1 
REMARK       I    between atoms: CZ   and  NH2 
ROOT
ATOM      1  CA  ARG D 557     -26.217   2.705 -17.014  1.00 35.49     0.159 C 
ENDROOT
BRANCH   1   2
ATOM      2  CB  ARG D 557     -26.789   1.319 -17.183  1.00 35.49     0.034 C 
BRANCH   2   3
ATOM      3  CG  ARG D 557     -28.232   1.226 -17.437  1.00 35.49     0.027 C 
BRANCH   3   4
ATOM      4  CD  ARG D 557     -28.896   0.234 -16.560  1.00 35.49     0.116 C 
BRANCH   4   5
ATOM      5  NE  ARG D 557     -28.001  -0.818 -16.156  1.00 35.49    -0.212 N 
ATOM      6  CZ  ARG D 557     -28.062  -2.071 -16.549  1.00 35.49     0.666 C 
ATOM      7  NH1 ARG D 557     -28.994  -2.511 -17.374  1.00 35.49    -0.235 N 
ATOM      8  NH2 ARG D 557     -27.153  -2.886 -16.097  1.00 35.49    -0.235 N 
ATOM      9  HH  ARG D 557     -29.600  -1.992 -17.685  1.00 35.49     0.174 HD
ATOM     10  HH  ARG D 557     -28.982  -3.338 -17.597  1.00 35.49     0.174 HD
ATOM     11  HH  ARG D 557     -26.559  -2.572 -15.572  1.00 35.49     0.174 HD
ATOM     12  HH  ARG D 557     -27.158  -3.701 -16.331  1.00 35.49     0.174 HD
ATOM     13  HE  ARG D 557     -27.413  -0.638 -15.569  1.00 35.49     0.178 HD
ENDBRANCH   4   5
ENDBRANCH   3   4
ENDBRANCH   2   3
ENDBRANCH   1   2
END_RES ARG D 557
BEGIN_RES GLU D 570
REMARK  3 active torsions:
REMARK  status: ('A' for Active; 'I' for Inactive)
REMARK    5  A    between atoms: CA   and  CB  
REMARK    6  A    between atoms: CB   and  CG  
REMARK    7  A    between atoms: CG   and  CD  
ROOT
ATOM     14  CA  GLU D 570     -18.033  -6.348 -13.375  1.00 32.92     0.160 C 
ENDROOT
BRANCH  14  15
ATOM     15  CB  GLU D 570     -19.500  -6.345 -13.794  1.00 32.92     0.043 C 
BRANCH  15  16
ATOM     16  CG  GLU D 570     -19.815  -5.919 -15.182  1.00 32.92     0.100 C 
BRANCH  16  17
ATOM     17  CD  GLU D 570     -21.283  -5.630 -15.392  1.00 32.92     0.185 C 
ATOM     18  OE1 GLU D 570     -22.128  -6.335 -14.808  1.00 32.92    -0.647 OA
ATOM     19  OE2 GLU D 570     -21.591  -4.699 -16.161  1.00 32.92    -0.647 OA
ENDBRANCH  16  17
ENDBRANCH  15  16
ENDBRANCH  14  15
END_RES GLU D 570
ENDMDL
MODEL 3
REMARK VINA RESULT:      -5.6      3.135      4.140
REMARK  11 active torsions:
REMARK  status: ('A' for Active; 'I' for Inactive)
REMARK    1  A    between atoms: C_1  and  C_2 
REMARK    2  A    between atoms: C_1  and  C_9 
REMARK    3  A    between atoms: C_2  and  C_3 
REMARK    4  A    between atoms: C_3  and  C_4 
REMARK    5  A    between atoms: C_4  and  C_5 
REMARK    6  A    between atoms: C_5  and  C_6 
REMARK    7  A    between atoms: C_6  and  O_8 
REMARK    8  A    between atoms: C_9  and  C_10 
REMARK    9  A    between atoms: C_10  and  C_11 
REMARK   10  A    between atoms: C_11  and  C_12 
REMARK   11  A    between atoms: C_12  and  O_13 
ROOT
HETATM    1  C   UNL     1     -20.878  -4.488 -10.620  1.00  0.00     0.000 C 
ENDROOT
BRANCH   1   2
HETATM    2  C   UNL     1     -20.795  -4.443  -9.099  1.00  0.00     0.000 C 
BRANCH   2   3
HETATM    3  C   UNL     1     -21.943  -3.625  -8.517  1.00  0.00     0.000 C 
BRANCH   3   4
HETATM    4  C   UNL     1     -23.157  -4.512  -8.267  1.00  0.00     0.002 C 
BRANCH   4   5
HETATM    5  C   UNL     1     -24.078  -4.532  -9.480  1.00  0.00     0.026 C 
BRANCH   5   6
HETATM    6  C   UNL     1     -24.725  -3.172  -9.693  1.00  0.00     0.164 C 
BRANCH   6   7
HETATM    7  O   UNL     1     -26.137  -3.310  -9.718  1.00  0.00    -0.401 OA
HETATM    8  H   UNL     1     -26.335  -4.250  -9.865  1.00  0.00     0.209 HD
ENDBRANCH   6   7
ENDBRANCH   5   6
ENDBRANCH   4   5
ENDBRANCH   3   4
ENDBRANCH   2   3
ENDBRANCH   1   2
BRANCH   1   9
HETATM    9  C   UNL     1     -20.743  -3.088 -11.214  1.00  0.00     0.001 C 
BRANCH   9  10
HETATM   10  C   UNL     1     -22.008  -2.717 -11.980  1.00  0.00     0.010 C 
BRANCH  10  11
HETATM   11  C   UNL     1     -22.514  -3.861 -12.854  1.00  0.00     0.110 C 
BRANCH  11  12
HETATM   12  C   UNL     1     -23.453  -3.339 -13.916  1.00  0.00     0.139 C 
HETATM   13  O   UNL     1     -23.728  -2.162 -14.098  1.00  0.00    -0.650 OA
BRANCH  12  14
HETATM   14  O   UNL     1     -23.975  -4.322 -14.677  1.00  0.00    -0.776 OA
HETATM   15  H   UNL     1     -23.677  -5.219 -14.427  1.00  0.00     0.167 HD
ENDBRANCH  12  14
ENDBRANCH  11  12
ENDBRANCH  10  11
ENDBRANCH   9  10
ENDBRANCH   1   9
TORSDOF 11
BEGIN_RES ARG D 557
REMARK  4 active torsions:
REMARK  status: ('A' for Active; 'I' for Inactive)
REMARK    1  A    between atoms: CA   and  CB  
REMARK    2  A    between atoms: CB   and  CG  
REMARK    3  A    between atoms: CG   and  CD  
REMARK    4  A    between atoms: CD   and  NE  
REMARK       I    between atoms: NE   and  CZ  
REMARK       I    between atoms: CZ   and  NH1 
REMARK       I    between atoms: CZ   and  NH2 
ROOT
ATOM      1  CA  ARG D 557     -26.217   2.705 -17.014  1.00 35.49     0.159 C 
ENDROOT
BRANCH   1   2
ATOM      2  CB  ARG D 557     -26.789   1.319 -17.183  1.00 35.49     0.034 C 
BRANCH   2   3
ATOM      3  CG  ARG D 557     -28.228   1.163 -16.936  1.00 35.49     0.027 C 
BRANCH   3   4
ATOM      4  CD  ARG D 557     -28.623  -0.255 -16.777  1.00 35.49     0.116 C 
BRANCH   4   5
ATOM      5  NE  ARG D 557     -27.633  -1.017 -16.062  1.00 35.49    -0.212 N 
ATOM      6  CZ  ARG D 557     -27.466  -2.318 -16.133  1.00 35.49     0.666 C 
ATOM      7  NH1 ARG D 557     -28.227  -3.090 -16.887  1.00 35.49    -0.235 N 
ATOM      8  NH2 ARG D 557     -26.502  -2.839 -15.431  1.00 35.49    -0.235 N 
ATOM      9  HH  ARG D 557     -28.865  -2.769 -17.359  1.00 35.49     0.174 HD
ATOM     10  HH  ARG D 557     -28.069  -3.933 -16.896  1.00 35.49     0.174 HD
ATOM     11  HH  ARG D 557     -26.022  -2.315 -14.959  1.00 35.49     0.174 HD
ATOM     12  HH  ARG D 557     -26.361  -3.675 -15.454  1.00 35.49     0.174 HD
ATOM     13  HE  ARG D 557     -27.146  -0.608 -15.497  1.00 35.49     0.178 HD
ENDBRANCH   4   5
ENDBRANCH   3   4
ENDBRANCH   2   3
ENDBRANCH   1   2
END_RES ARG D 557
BEGIN_RES GLU D 570
REMARK  3 active torsions:
REMARK  status: ('A' for Active; 'I' for Inactive)
REMARK    5  A    between atoms: CA   and  CB  
REMARK    6  A    between atoms: CB   and  CG  
REMARK    7  A    between atoms: CG   and  CD  
ROOT
ATOM     14  CA  GLU D 570     -18.033  -6.348 -13.375  1.00 32.92     0.160 C 
ENDROOT
BRANCH  14  15
ATOM     15  CB  GLU D 570     -19.500  -6.345 -13.794  1.00 32.92     0.043 C 
BRANCH  15  16
ATOM     16  CG  GLU D 570     -19.796  -6.392 -15.249  1.00 32.92     0.100 C 
BRANCH  16  17
ATOM     17  CD  GLU D 570     -21.218  -5.997 -15.574  1.00 32.92     0.185 C 
ATOM     18  OE1 GLU D 570     -21.421  -4.983 -16.270  1.00 32.92    -0.647 OA
ATOM     19  OE2 GLU D 570     -22.140  -6.699 -15.114  1.00 32.92    -0.647 OA
ENDBRANCH  16  17
ENDBRANCH  15  16
ENDBRANCH  14  15
END_RES GLU D 570
ENDMDL
MODEL 4
REMARK VINA RESULT:      -5.6      2.982      4.193
REMARK  11 active torsions:
REMARK  status: ('A' for Active; 'I' for Inactive)
REMARK    1  A    between atoms: C_1  and  C_2 
REMARK    2  A    between atoms: C_1  and  C_9 
REMARK    3  A    between atoms: C_2  and  C_3 
REMARK    4  A    between atoms: C_3  and  C_4 
REMARK    5  A    between atoms: C_4  and  C_5 
REMARK    6  A    between atoms: C_5  and  C_6 
REMARK    7  A    between atoms: C_6  and  O_8 
REMARK    8  A    between atoms: C_9  and  C_10 
REMARK    9  A    between atoms: C_10  and  C_11 
REMARK   10  A    between atoms: C_11  and  C_12 
REMARK   11  A    between atoms: C_12  and  O_13 
ROOT
HETATM    1  C   UNL     1     -20.486  -3.607 -11.035  1.00  0.00     0.000 C 
ENDROOT
BRANCH   1   2
HETATM    2  C   UNL     1     -20.239  -4.664  -9.966  1.00  0.00     0.000 C 
BRANCH   2   3
HETATM    3  C   UNL     1     -19.633  -4.039  -8.714  1.00  0.00     0.000 C 
BRANCH   3   4
HETATM    4  C   UNL     1     -20.425  -4.447  -7.477  1.00  0.00     0.002 C 
BRANCH   4   5
HETATM    5  C   UNL     1     -21.699  -3.621  -7.347  1.00  0.00     0.026 C 
BRANCH   5   6
HETATM    6  C   UNL     1     -22.926  -4.519  -7.305  1.00  0.00     0.164 C 
BRANCH   6   7
HETATM    7  O   UNL     1     -23.962  -3.954  -8.092  1.00  0.00    -0.401 OA
HETATM    8  H   UNL     1     -23.872  -2.987  -8.042  1.00  0.00     0.209 HD
ENDBRANCH   6   7
ENDBRANCH   5   6
ENDBRANCH   4   5
ENDBRANCH   3   4
ENDBRANCH   2   3
ENDBRANCH   1   2
BRANCH   1   9
HETATM    9  C   UNL     1     -21.977  -3.317 -11.179  1.00  0.00     0.001 C 
BRANCH   9  10
HETATM   10  C   UNL     1     -22.423  -3.551 -12.619  1.00  0.00     0.010 C 
BRANCH  10  11
HETATM   11  C   UNL     1     -23.453  -2.525 -13.081  1.00  0.00     0.110 C 
BRANCH  11  12
HETATM   12  C   UNL     1     -23.481  -2.446 -14.590  1.00  0.00     0.139 C 
HETATM   13  O   UNL     1     -22.545  -2.719 -15.328  1.00  0.00    -0.650 OA
BRANCH  12  14
HETATM   14  O   UNL     1     -24.674  -2.039 -15.067  1.00  0.00    -0.776 OA
HETATM   15  H   UNL     1     -25.216  -1.550 -14.418  1.00  0.00     0.167 HD
ENDBRANCH  12  14
ENDBRANCH  11  12
ENDBRANCH  10  11
ENDBRANCH   9  10
ENDBRANCH   1   9
TORSDOF 11
BEGIN_RES ARG D 557
REMARK  4 active torsions:
REMARK  status: ('A' for Active; 'I' for Inactive)
REMARK    1  A    between atoms: CA   and  CB  
REMARK    2  A    between atoms: CB   and  CG  
REMARK    3  A    between atoms: CG   and  CD  
REMARK    4  A    between atoms: CD   and  NE  
REMARK       I    between atoms: NE   and  CZ  
REMARK       I    between atoms: CZ   and  NH1 
REMARK       I    between atoms: CZ   and  NH2 
ROOT
ATOM      1  CA  ARG D 557     -26.217   2.705 -17.014  1.00 35.49     0.159 C 
ENDROOT
BRANCH   1   2
ATOM      2  CB  ARG D 557     -26.789   1.319 -17.183  1.00 35.49     0.034 C 
BRANCH   2   3
ATOM      3  CG  ARG D 557     -28.233   1.226 -17.432  1.00 35.49     0.027 C 
BRANCH   3   4
ATOM      4  CD  ARG D 557     -28.908   0.297 -16.497  1.00 35.49     0.116 C 
BRANCH   4   5
ATOM      5  NE  ARG D 557     -29.261  -0.947 -17.129  1.00 35.49    -0.212 N 
ATOM      6  CZ  ARG D 557     -28.607  -2.081 -17.011  1.00 35.49     0.666 C 
ATOM      7  NH1 ARG D 557     -27.511  -2.195 -16.284  1.00 35.49    -0.235 N 
ATOM      8  NH2 ARG D 557     -29.083  -3.117 -17.639  1.00 35.49    -0.235 N 
ATOM      9  HH  ARG D 557     -27.181  -1.527 -15.861  1.00 35.49     0.174 HD
ATOM     10  HH  ARG D 557     -27.128  -2.960 -16.242  1.00 35.49     0.174 HD
ATOM     11  HH  ARG D 557     -29.797  -3.015 -18.094  1.00 35.49     0.174 HD
ATOM     12  HH  ARG D 557     -28.691  -3.866 -17.583  1.00 35.49     0.174 HD
ATOM     13  HE  ARG D 557     -29.914  -0.947 -17.674  1.00 35.49     0.178 HD
ENDBRANCH   4   5
ENDBRANCH   3   4
ENDBRANCH   2   3
ENDBRANCH   1   2
END_RES ARG D 557
BEGIN_RES GLU D 570
REMARK  3 active torsions:
REMARK  status: ('A' for Active; 'I' for Inactive)
REMARK    5  A    between atoms: CA   and  CB  
REMARK    6  A    between atoms: CB   and  CG  
REMARK    7  A    between atoms: CG   and  CD  
ROOT
ATOM     14  CA  GLU D 570     -18.033  -6.348 -13.375  1.00 32.92     0.160 C 
ENDROOT
BRANCH  14  15
ATOM     15  CB  GLU D 570     -19.500  -6.345 -13.794  1.00 32.92     0.043 C 
BRANCH  15  16
ATOM     16  CG  GLU D 570     -20.089  -7.636 -14.233  1.00 32.92     0.100 C 
BRANCH  16  17
ATOM     17  CD  GLU D 570     -20.655  -7.580 -15.633  1.00 32.92     0.185 C 
ATOM     18  OE1 GLU D 570     -20.630  -6.499 -16.253  1.00 32.92    -0.647 OA
ATOM     19  OE2 GLU D 570     -21.144  -8.624 -16.109  1.00 32.92    -0.647 OA
ENDBRANCH  16  17
ENDBRANCH  15  16
ENDBRANCH  14  15
END_RES GLU D 570
ENDMDL
MODEL 5
REMARK VINA RESULT:      -5.6      2.804      3.870
REMARK  11 active torsions:
REMARK  status: ('A' for Active; 'I' for Inactive)
REMARK    1  A    between atoms: C_1  and  C_2 
REMARK    2  A    between atoms: C_1  and  C_9 
REMARK    3  A    between atoms: C_2  and  C_3 
REMARK    4  A    between atoms: C_3  and  C_4 
REMARK    5  A    between atoms: C_4  and  C_5 
REMARK    6  A    between atoms: C_5  and  C_6 
REMARK    7  A    between atoms: C_6  and  O_8 
REMARK    8  A    between atoms: C_9  and  C_10 
REMARK    9  A    between atoms: C_10  and  C_11 
REMARK   10  A    between atoms: C_11  and  C_12 
REMARK   11  A    between atoms: C_12  and  O_13 
ROOT
HETATM    1  C   UNL     1     -20.571  -4.056 -10.990  1.00  0.00     0.000 C 
ENDROOT
BRANCH   1   2
HETATM    2  C   UNL     1     -20.483  -4.151  -9.472  1.00  0.00     0.000 C 
BRANCH   2   3
HETATM    3  C   UNL     1     -21.846  -3.910  -8.833  1.00  0.00     0.000 C 
BRANCH   3   4
HETATM    4  C   UNL     1     -21.927  -4.595  -7.474  1.00  0.00     0.002 C 
BRANCH   4   5
HETATM    5  C   UNL     1     -20.618  -4.449  -6.710  1.00  0.00     0.026 C 
BRANCH   5   6
HETATM    6  C   UNL     1     -20.119  -5.802  -6.224  1.00  0.00     0.164 C 
BRANCH   6   7
HETATM    7  O   UNL     1     -20.990  -6.826  -6.676  1.00  0.00    -0.401 OA
HETATM    8  H   UNL     1     -21.547  -6.447  -7.377  1.00  0.00     0.209 HD
ENDBRANCH   6   7
ENDBRANCH   5   6
ENDBRANCH   4   5
ENDBRANCH   3   4
ENDBRANCH   2   3
ENDBRANCH   1   2
BRANCH   1   9
HETATM    9  C   UNL     1     -22.022  -4.123 -11.456  1.00  0.00     0.001 C 
BRANCH   9  10
HETATM   10  C   UNL     1     -22.364  -2.894 -12.293  1.00  0.00     0.010 C 
BRANCH  10  11
HETATM   11  C   UNL     1     -23.788  -2.941 -12.838  1.00  0.00     0.110 C 
BRANCH  11  12
HETATM   12  C   UNL     1     -23.802  -2.603 -14.310  1.00  0.00     0.139 C 
HETATM   13  O   UNL     1     -24.786  -2.251 -14.944  1.00  0.00    -0.650 OA
BRANCH  12  14
HETATM   14  O   UNL     1     -22.587  -2.724 -14.882  1.00  0.00    -0.776 OA
HETATM   15  H   UNL     1     -21.843  -2.533 -14.280  1.00  0.00     0.167 HD
ENDBRANCH  12  14
ENDBRANCH  11  12
ENDBRANCH  10  11
ENDBRANCH   9  10
ENDBRANCH   1   9
TORSDOF 11
BEGIN_RES ARG D 557
REMARK  4 active torsions:
REMARK  status: ('A' for Active; 'I' for Inactive)
REMARK    1  A    between atoms: CA   and  CB  
REMARK    2  A    between atoms: CB   and  CG  
REMARK    3  A    between atoms: CG   and  CD  
REMARK    4  A    between atoms: CD   and  NE  
REMARK       I    between atoms: NE   and  CZ  
REMARK       I    between atoms: CZ   and  NH1 
REMARK       I    between atoms: CZ   and  NH2 
ROOT
ATOM      1  CA  ARG D 557     -26.217   2.705 -17.014  1.00 35.49     0.159 C 
ENDROOT
BRANCH   1   2
ATOM      2  CB  ARG D 557     -26.789   1.319 -17.183  1.00 35.49     0.034 C 
BRANCH   2   3
ATOM      3  CG  ARG D 557     -28.228   1.227 -17.457  1.00 35.49     0.027 C 
BRANCH   3   4
ATOM      4  CD  ARG D 557     -28.924   0.315 -16.521  1.00 35.49     0.116 C 
BRANCH   4   5
ATOM      5  NE  ARG D 557     -29.289  -0.929 -17.146  1.00 35.49    -0.212 N 
ATOM      6  CZ  ARG D 557     -28.643  -2.068 -17.026  1.00 35.49     0.666 C 
ATOM      7  NH1 ARG D 557     -27.545  -2.187 -16.304  1.00 35.49    -0.235 N 
ATOM      8  NH2 ARG D 557     -29.130  -3.102 -17.648  1.00 35.49    -0.235 N 
ATOM      9  HH  ARG D 557     -27.208  -1.520 -15.884  1.00 35.49     0.174 HD
ATOM     10  HH  ARG D 557     -27.168  -2.956 -16.260  1.00 35.49     0.174 HD
ATOM     11  HH  ARG D 557     -29.845  -2.997 -18.101  1.00 35.49     0.174 HD
ATOM     12  HH  ARG D 557     -28.744  -3.854 -17.591  1.00 35.49     0.174 HD
ATOM     13  HE  ARG D 557     -29.944  -0.926 -17.689  1.00 35.49     0.178 HD
ENDBRANCH   4   5
ENDBRANCH   3   4
ENDBRANCH   2   3
ENDBRANCH   1   2
END_RES ARG D 557
BEGIN_RES GLU D 570
REMARK  3 active torsions:
REMARK  status: ('A' for Active; 'I' for Inactive)
REMARK    5  A    between atoms: CA   and  CB  
REMARK    6  A    between atoms: CB   and  CG  
REMARK    7  A    between atoms: CG   and  CD  
ROOT
ATOM     14  CA  GLU D 570     -18.033  -6.348 -13.375  1.00 32.92     0.160 C 
ENDROOT
BRANCH  14  15
ATOM     15  CB  GLU D 570     -19.500  -6.345 -13.794  1.00 32.92     0.043 C 
BRANCH  15  16
ATOM     16  CG  GLU D 570     -19.802  -6.100 -15.228  1.00 32.92     0.100 C 
BRANCH  16  17
ATOM     17  CD  GLU D 570     -21.200  -5.573 -15.454  1.00 32.92     0.185 C 
ATOM     18  OE1 GLU D 570     -22.062  -5.745 -14.572  1.00 32.92    -0.647 OA
ATOM     19  OE2 GLU D 570     -21.439  -4.996 -16.533  1.00 32.92    -0.647 OA
ENDBRANCH  16  17
ENDBRANCH  15  16
ENDBRANCH  14  15
END_RES GLU D 570
ENDMDL
MODEL 6
REMARK VINA RESULT:      -5.4      2.830      5.974
REMARK  11 active torsions:
REMARK  status: ('A' for Active; 'I' for Inactive)
REMARK    1  A    between atoms: C_1  and  C_2 
REMARK    2  A    between atoms: C_1  and  C_9 
REMARK    3  A    between atoms: C_2  and  C_3 
REMARK    4  A    between atoms: C_3  and  C_4 
REMARK    5  A    between atoms: C_4  and  C_5 
REMARK    6  A    between atoms: C_5  and  C_6 
REMARK    7  A    between atoms: C_6  and  O_8 
REMARK    8  A    between atoms: C_9  and  C_10 
REMARK    9  A    between atoms: C_10  and  C_11 
REMARK   10  A    between atoms: C_11  and  C_12 
REMARK   11  A    between atoms: C_12  and  O_13 
ROOT
HETATM    1  C   UNL     1     -20.368  -4.494  -9.651  1.00  0.00     0.000 C 
ENDROOT
BRANCH   1   2
HETATM    2  C   UNL     1     -20.506  -3.708 -10.949  1.00  0.00     0.000 C 
BRANCH   2   3
HETATM    3  C   UNL     1     -21.822  -4.035 -11.645  1.00  0.00     0.000 C 
BRANCH   3   4
HETATM    4  C   UNL     1     -22.517  -2.757 -12.100  1.00  0.00     0.002 C 
BRANCH   4   5
HETATM    5  C   UNL     1     -23.106  -2.922 -13.495  1.00  0.00     0.026 C 
BRANCH   5   6
HETATM    6  C   UNL     1     -22.591  -4.192 -14.155  1.00  0.00     0.164 C 
BRANCH   6   7
HETATM    7  O   UNL     1     -21.943  -3.871 -15.376  1.00  0.00    -0.401 OA
HETATM    8  H   UNL     1     -22.589  -3.407 -15.935  1.00  0.00     0.209 HD
ENDBRANCH   6   7
ENDBRANCH   5   6
ENDBRANCH   4   5
ENDBRANCH   3   4
ENDBRANCH   2   3
ENDBRANCH   1   2
BRANCH   1   9
HETATM    9  C   UNL     1     -21.644  -4.399  -8.819  1.00  0.00     0.001 C 
BRANCH   9  10
HETATM   10  C   UNL     1     -21.355  -3.717  -7.486  1.00  0.00     0.010 C 
BRANCH  10  11
HETATM   11  C   UNL     1     -20.565  -4.612  -6.536  1.00  0.00     0.110 C 
BRANCH  11  12
HETATM   12  C   UNL     1     -21.318  -5.894  -6.270  1.00  0.00     0.139 C 
HETATM   13  O   UNL     1     -20.955  -7.010  -6.614  1.00  0.00    -0.650 OA
BRANCH  12  14
HETATM   14  O   UNL     1     -22.465  -5.692  -5.591  1.00  0.00    -0.776 OA
HETATM   15  H   UNL     1     -22.730  -4.754  -5.528  1.00  0.00     0.167 HD
ENDBRANCH  12  14
ENDBRANCH  11  12
ENDBRANCH  10  11
ENDBRANCH   9  10
ENDBRANCH   1   9
TORSDOF 11
BEGIN_RES ARG D 557
REMARK  4 active torsions:
REMARK  status: ('A' for Active; 'I' for Inactive)
REMARK    1  A    between atoms: CA   and  CB  
REMARK    2  A    between atoms: CB   and  CG  
REMARK    3  A    between atoms: CG   and  CD  
REMARK    4  A    between atoms: CD   and  NE  
REMARK       I    between atoms: NE   and  CZ  
REMARK       I    between atoms: CZ   and  NH1 
REMARK       I    between atoms: CZ   and  NH2 
ROOT
ATOM      1  CA  ARG D 557     -26.217   2.705 -17.014  1.00 35.49     0.159 C 
ENDROOT
BRANCH   1   2
ATOM      2  CB  ARG D 557     -26.789   1.319 -17.183  1.00 35.49     0.034 C 
BRANCH   2   3
ATOM      3  CG  ARG D 557     -28.234   1.225 -17.422  1.00 35.49     0.027 C 
BRANCH   3   4
ATOM      4  CD  ARG D 557     -28.902   0.293 -16.485  1.00 35.49     0.116 C 
BRANCH   4   5
ATOM      5  NE  ARG D 557     -29.283  -0.938 -17.124  1.00 35.49    -0.212 N 
ATOM      6  CZ  ARG D 557     -28.647  -2.084 -17.025  1.00 35.49     0.666 C 
ATOM      7  NH1 ARG D 557     -27.544  -2.223 -16.313  1.00 35.49    -0.235 N 
ATOM      8  NH2 ARG D 557     -29.148  -3.105 -17.657  1.00 35.49    -0.235 N 
ATOM      9  HH  ARG D 557     -27.198  -1.565 -15.887  1.00 35.49     0.174 HD
ATOM     10  HH  ARG D 557     -27.174  -2.996 -16.283  1.00 35.49     0.174 HD
ATOM     11  HH  ARG D 557     -29.865  -2.988 -18.103  1.00 35.49     0.174 HD
ATOM     12  HH  ARG D 557     -28.767  -3.862 -17.614  1.00 35.49     0.174 HD
ATOM     13  HE  ARG D 557     -29.942  -0.922 -17.662  1.00 35.49     0.178 HD
ENDBRANCH   4   5
ENDBRANCH   3   4
ENDBRANCH   2   3
ENDBRANCH   1   2
END_RES ARG D 557
BEGIN_RES GLU D 570
REMARK  3 active torsions:
REMARK  status: ('A' for Active; 'I' for Inactive)
REMARK    5  A    between atoms: CA   and  CB  
REMARK    6  A    between atoms: CB   and  CG  
REMARK    7  A    between atoms: CG   and  CD  
ROOT
ATOM     14  CA  GLU D 570     -18.033  -6.348 -13.375  1.00 32.92     0.160 C 
ENDROOT
BRANCH  14  15
ATOM     15  CB  GLU D 570     -19.500  -6.345 -13.794  1.00 32.92     0.043 C 
BRANCH  15  16
ATOM     16  CG  GLU D 570     -20.081  -7.630 -14.262  1.00 32.92     0.100 C 
BRANCH  16  17
ATOM     17  CD  GLU D 570     -20.697  -7.532 -15.638  1.00 32.92     0.185 C 
ATOM     18  OE1 GLU D 570     -20.697  -6.432 -16.224  1.00 32.92    -0.647 OA
ATOM     19  OE2 GLU D 570     -21.198  -8.562 -16.129  1.00 32.92    -0.647 OA
ENDBRANCH  16  17
ENDBRANCH  15  16
ENDBRANCH  14  15
END_RES GLU D 570
ENDMDL
MODEL 7
REMARK VINA RESULT:      -5.4      1.960      2.341
REMARK  11 active torsions:
REMARK  status: ('A' for Active; 'I' for Inactive)
REMARK    1  A    between atoms: C_1  and  C_2 
REMARK    2  A    between atoms: C_1  and  C_9 
REMARK    3  A    between atoms: C_2  and  C_3 
REMARK    4  A    between atoms: C_3  and  C_4 
REMARK    5  A    between atoms: C_4  and  C_5 
REMARK    6  A    between atoms: C_5  and  C_6 
REMARK    7  A    between atoms: C_6  and  O_8 
REMARK    8  A    between atoms: C_9  and  C_10 
REMARK    9  A    between atoms: C_10  and  C_11 
REMARK   10  A    between atoms: C_11  and  C_12 
REMARK   11  A    between atoms: C_12  and  O_13 
ROOT
HETATM    1  C   UNL     1     -19.726  -4.184  -8.245  1.00  0.00     0.000 C 
ENDROOT
BRANCH   1   2
HETATM    2  C   UNL     1     -20.665  -3.937  -7.071  1.00  0.00     0.000 C 
BRANCH   2   3
HETATM    3  C   UNL     1     -20.244  -4.757  -5.856  1.00  0.00     0.000 C 
BRANCH   3   4
HETATM    4  C   UNL     1     -20.120  -6.231  -6.225  1.00  0.00     0.002 C 
BRANCH   4   5
HETATM    5  C   UNL     1     -20.862  -7.109  -5.225  1.00  0.00     0.026 C 
BRANCH   5   6
HETATM    6  C   UNL     1     -22.215  -6.509  -4.875  1.00  0.00     0.164 C 
BRANCH   6   7
HETATM    7  O   UNL     1     -22.267  -6.214  -3.488  1.00  0.00    -0.401 OA
HETATM    8  H   UNL     1     -21.964  -5.297  -3.374  1.00  0.00     0.209 HD
ENDBRANCH   6   7
ENDBRANCH   5   6
ENDBRANCH   4   5
ENDBRANCH   3   4
ENDBRANCH   2   3
ENDBRANCH   1   2
BRANCH   1   9
HETATM    9  C   UNL     1     -20.513  -4.463  -9.522  1.00  0.00     0.001 C 
BRANCH   9  10
HETATM   10  C   UNL     1     -22.011  -4.369  -9.250  1.00  0.00     0.010 C 
BRANCH  10  11
HETATM   11  C   UNL     1     -22.725  -3.457 -10.242  1.00  0.00     0.110 C 
BRANCH  11  12
HETATM   12  C   UNL     1     -24.207  -3.419  -9.953  1.00  0.00     0.139 C 
HETATM   13  O   UNL     1     -25.084  -3.232 -10.784  1.00  0.00    -0.650 OA
BRANCH  12  14
HETATM   14  O   UNL     1     -24.487  -3.622  -8.650  1.00  0.00    -0.776 OA
HETATM   15  H   UNL     1     -24.222  -2.885  -8.066  1.00  0.00     0.167 HD
ENDBRANCH  12  14
ENDBRANCH  11  12
ENDBRANCH  10  11
ENDBRANCH   9  10
ENDBRANCH   1   9
TORSDOF 11
BEGIN_RES ARG D 557
REMARK  4 active torsions:
REMARK  status: ('A' for Active; 'I' for Inactive)
REMARK    1  A    between atoms: CA   and  CB  
REMARK    2  A    between atoms: CB   and  CG  
REMARK    3  A    between atoms: CG   and  CD  
REMARK    4  A    between atoms: CD   and  NE  
REMARK       I    between atoms: NE   and  CZ  
REMARK       I    between atoms: CZ   and  NH1 
REMARK       I    between atoms: CZ   and  NH2 
ROOT
ATOM      1  CA  ARG D 557     -26.217   2.705 -17.014  1.00 35.49     0.159 C 
ENDROOT
BRANCH   1   2
ATOM      2  CB  ARG D 557     -26.789   1.319 -17.183  1.00 35.49     0.034 C 
BRANCH   2   3
ATOM      3  CG  ARG D 557     -28.233   1.226 -17.427  1.00 35.49     0.027 C 
BRANCH   3   4
ATOM      4  CD  ARG D 557     -28.905   0.295 -16.492  1.00 35.49     0.116 C 
BRANCH   4   5
ATOM      5  NE  ARG D 557     -28.119  -0.885 -16.243  1.00 35.49    -0.212 N 
ATOM      6  CZ  ARG D 557     -28.366  -2.086 -16.714  1.00 35.49     0.666 C 
ATOM      7  NH1 ARG D 557     -29.408  -2.346 -17.482  1.00 35.49    -0.235 N 
ATOM      8  NH2 ARG D 557     -27.533  -3.036 -16.402  1.00 35.49    -0.235 N 
ATOM      9  HH  ARG D 557     -29.967  -1.736 -17.702  1.00 35.49     0.174 HD
ATOM     10  HH  ARG D 557     -29.516  -3.149 -17.762  1.00 35.49     0.174 HD
ATOM     11  HH  ARG D 557     -26.865  -2.837 -15.911  1.00 35.49     0.174 HD
ATOM     12  HH  ARG D 557     -27.657  -3.824 -16.691  1.00 35.49     0.174 HD
ATOM     13  HE  ARG D 557     -27.469  -0.823 -15.698  1.00 35.49     0.178 HD
ENDBRANCH   4   5
ENDBRANCH   3   4
ENDBRANCH   2   3
ENDBRANCH   1   2
END_RES ARG D 557
BEGIN_RES GLU D 570
REMARK  3 active torsions:
REMARK  status: ('A' for Active; 'I' for Inactive)
REMARK    5  A    between atoms: CA   and  CB  
REMARK    6  A    between atoms: CB   and  CG  
REMARK    7  A    between atoms: CG   and  CD  
ROOT
ATOM     14  CA  GLU D 570     -18.033  -6.348 -13.375  1.00 32.92     0.160 C 
ENDROOT
BRANCH  14  15
ATOM     15  CB  GLU D 570     -19.500  -6.345 -13.794  1.00 32.92     0.043 C 
BRANCH  15  16
ATOM     16  CG  GLU D 570     -20.438  -5.515 -12.995  1.00 32.92     0.100 C 
BRANCH  16  17
ATOM     17  CD  GLU D 570     -21.705  -5.172 -13.743  1.00 32.92     0.185 C 
ATOM     18  OE1 GLU D 570     -22.788  -5.160 -13.127  1.00 32.92    -0.647 OA
ATOM     19  OE2 GLU D 570     -21.616  -4.929 -14.963  1.00 32.92    -0.647 OA
ENDBRANCH  16  17
ENDBRANCH  15  16
ENDBRANCH  14  15
END_RES GLU D 570
ENDMDL
MODEL 8
REMARK VINA RESULT:      -5.3      0.966      4.895
REMARK  11 active torsions:
REMARK  status: ('A' for Active; 'I' for Inactive)
REMARK    1  A    between atoms: C_1  and  C_2 
REMARK    2  A    between atoms: C_1  and  C_9 
REMARK    3  A    between atoms: C_2  and  C_3 
REMARK    4  A    between atoms: C_3  and  C_4 
REMARK    5  A    between atoms: C_4  and  C_5 
REMARK    6  A    between atoms: C_5  and  C_6 
REMARK    7  A    between atoms: C_6  and  O_8 
REMARK    8  A    between atoms: C_9  and  C_10 
REMARK    9  A    between atoms: C_10  and  C_11 
REMARK   10  A    between atoms: C_11  and  C_12 
REMARK   11  A    between atoms: C_12  and  O_13 
ROOT
HETATM    1  C   UNL     1     -19.922  -4.687  -6.579  1.00  0.00     0.000 C 
ENDROOT
BRANCH   1   2
HETATM    2  C   UNL     1     -20.809  -3.870  -7.510  1.00  0.00     0.000 C 
BRANCH   2   3
HETATM    3  C   UNL     1     -20.871  -4.504  -8.896  1.00  0.00     0.000 C 
BRANCH   3   4
HETATM    4  C   UNL     1     -21.983  -3.869  -9.723  1.00  0.00     0.002 C 
BRANCH   4   5
HETATM    5  C   UNL     1     -23.308  -3.901  -8.974  1.00  0.00     0.026 C 
BRANCH   5   6
HETATM    6  C   UNL     1     -24.459  -4.207  -9.919  1.00  0.00     0.164 C 
BRANCH   6   7
HETATM    7  O   UNL     1     -25.515  -3.282  -9.708  1.00  0.00    -0.401 OA
HETATM    8  H   UNL     1     -26.204  -3.472 -10.366  1.00  0.00     0.209 HD
ENDBRANCH   6   7
ENDBRANCH   5   6
ENDBRANCH   4   5
ENDBRANCH   3   4
ENDBRANCH   2   3
ENDBRANCH   1   2
BRANCH   1   9
HETATM    9  C   UNL     1     -20.524  -6.066  -6.325  1.00  0.00     0.001 C 
BRANCH   9  10
HETATM   10  C   UNL     1     -21.577  -5.987  -5.224  1.00  0.00     0.010 C 
BRANCH  10  11
HETATM   11  C   UNL     1     -21.529  -7.191  -4.288  1.00  0.00     0.110 C 
BRANCH  11  12
HETATM   12  C   UNL     1     -21.653  -6.748  -2.850  1.00  0.00     0.139 C 
HETATM   13  O   UNL     1     -22.459  -5.930  -2.431  1.00  0.00    -0.650 OA
BRANCH  12  14
HETATM   14  O   UNL     1     -20.768  -7.361  -2.038  1.00  0.00    -0.776 OA
HETATM   15  H   UNL     1     -19.834  -7.192  -2.269  1.00  0.00     0.167 HD
ENDBRANCH  12  14
ENDBRANCH  11  12
ENDBRANCH  10  11
ENDBRANCH   9  10
ENDBRANCH   1   9
TORSDOF 11
BEGIN_RES ARG D 557
REMARK  4 active torsions:
REMARK  status: ('A' for Active; 'I' for Inactive)
REMARK    1  A    between atoms: CA   and  CB  
REMARK    2  A    between atoms: CB   and  CG  
REMARK    3  A    between atoms: CG   and  CD  
REMARK    4  A    between atoms: CD   and  NE  
REMARK       I    between atoms: NE   and  CZ  
REMARK       I    between atoms: CZ   and  NH1 
REMARK       I    between atoms: CZ   and  NH2 
ROOT
ATOM      1  CA  ARG D 557     -26.217   2.705 -17.014  1.00 35.49     0.159 C 
ENDROOT
BRANCH   1   2
ATOM      2  CB  ARG D 557     -26.789   1.319 -17.183  1.00 35.49     0.034 C 
BRANCH   2   3
ATOM      3  CG  ARG D 557     -25.843   0.199 -17.101  1.00 35.49     0.027 C 
BRANCH   3   4
ATOM      4  CD  ARG D 557     -24.760   0.446 -16.122  1.00 35.49     0.116 C 
BRANCH   4   5
ATOM      5  NE  ARG D 557     -24.842  -0.437 -14.988  1.00 35.49    -0.212 N 
ATOM      6  CZ  ARG D 557     -23.995  -1.400 -14.702  1.00 35.49     0.666 C 
ATOM      7  NH1 ARG D 557     -22.951  -1.675 -15.462  1.00 35.49    -0.235 N 
ATOM      8  NH2 ARG D 557     -24.213  -2.089 -13.620  1.00 35.49    -0.235 N 
ATOM      9  HH  ARG D 557     -22.787  -1.233 -16.177  1.00 35.49     0.174 HD
ATOM     10  HH  ARG D 557     -22.431  -2.313 -15.224  1.00 35.49     0.174 HD
ATOM     11  HH  ARG D 557     -24.891  -1.885 -13.145  1.00 35.49     0.174 HD
ATOM     12  HH  ARG D 557     -23.686  -2.716 -13.401  1.00 35.49     0.174 HD
ATOM     13  HE  ARG D 557     -25.524  -0.378 -14.484  1.00 35.49     0.178 HD
ENDBRANCH   4   5
ENDBRANCH   3   4
ENDBRANCH   2   3
ENDBRANCH   1   2
END_RES ARG D 557
BEGIN_RES GLU D 570
REMARK  3 active torsions:
REMARK  status: ('A' for Active; 'I' for Inactive)
REMARK    5  A    between atoms: CA   and  CB  
REMARK    6  A    between atoms: CB   and  CG  
REMARK    7  A    between atoms: CG   and  CD  
ROOT
ATOM     14  CA  GLU D 570     -18.033  -6.348 -13.375  1.00 32.92     0.160 C 
ENDROOT
BRANCH  14  15
ATOM     15  CB  GLU D 570     -19.500  -6.345 -13.794  1.00 32.92     0.043 C 
BRANCH  15  16
ATOM     16  CG  GLU D 570     -20.449  -5.564 -12.959  1.00 32.92     0.100 C 
BRANCH  16  17
ATOM     17  CD  GLU D 570     -21.654  -5.082 -13.731  1.00 32.92     0.185 C 
ATOM     18  OE1 GLU D 570     -22.636  -4.637 -13.105  1.00 32.92    -0.647 OA
ATOM     19  OE2 GLU D 570     -21.624  -5.165 -14.975  1.00 32.92    -0.647 OA
ENDBRANCH  16  17
ENDBRANCH  15  16
ENDBRANCH  14  15
END_RES GLU D 570
ENDMDL
MODEL 9
REMARK VINA RESULT:      -5.2      1.992      5.173
REMARK  11 active torsions:
REMARK  status: ('A' for Active; 'I' for Inactive)
REMARK    1  A    between atoms: C_1  and  C_2 
REMARK    2  A    between atoms: C_1  and  C_9 
REMARK    3  A    between atoms: C_2  and  C_3 
REMARK    4  A    between atoms: C_3  and  C_4 
REMARK    5  A    between atoms: C_4  and  C_5 
REMARK    6  A    between atoms: C_5  and  C_6 
REMARK    7  A    between atoms: C_6  and  O_8 
REMARK    8  A    between atoms: C_9  and  C_10 
REMARK    9  A    between atoms: C_10  and  C_11 
REMARK   10  A    between atoms: C_11  and  C_12 
REMARK   11  A    between atoms: C_12  and  O_13 
ROOT
HETATM    1  C   UNL     1     -19.483  -4.859  -7.154  1.00  0.00     0.000 C 
ENDROOT
BRANCH   1   2
HETATM    2  C   UNL     1     -20.023  -3.894  -8.202  1.00  0.00     0.000 C 
BRANCH   2   3
HETATM    3  C   UNL     1     -21.539  -4.013  -8.319  1.00  0.00     0.000 C 
BRANCH   3   4
HETATM    4  C   UNL     1     -21.940  -4.316  -9.758  1.00  0.00     0.002 C 
BRANCH   4   5
HETATM    5  C   UNL     1     -23.431  -4.608  -9.860  1.00  0.00     0.026 C 
BRANCH   5   6
HETATM    6  C   UNL     1     -24.195  -3.375 -10.318  1.00  0.00     0.164 C 
BRANCH   6   7
HETATM    7  O   UNL     1     -25.043  -2.919  -9.275  1.00  0.00    -0.401 OA
HETATM    8  H   UNL     1     -24.519  -2.323  -8.714  1.00  0.00     0.209 HD
ENDBRANCH   6   7
ENDBRANCH   5   6
ENDBRANCH   4   5
ENDBRANCH   3   4
ENDBRANCH   2   3
ENDBRANCH   1   2
BRANCH   1   9
HETATM    9  C   UNL     1     -20.364  -4.859  -5.908  1.00  0.00     0.001 C 
BRANCH   9  10
HETATM   10  C   UNL     1     -20.596  -6.287  -5.426  1.00  0.00     0.010 C 
BRANCH  10  11
HETATM   11  C   UNL     1     -21.953  -6.458  -4.751  1.00  0.00     0.110 C 
BRANCH  11  12
HETATM   12  C   UNL     1     -21.790  -6.544  -3.252  1.00  0.00     0.139 C 
HETATM   13  O   UNL     1     -22.448  -5.919  -2.433  1.00  0.00    -0.650 OA
BRANCH  12  14
HETATM   14  O   UNL     1     -20.821  -7.407  -2.883  1.00  0.00    -0.776 OA
HETATM   15  H   UNL     1     -20.935  -8.309  -3.241  1.00  0.00     0.167 HD
ENDBRANCH  12  14
ENDBRANCH  11  12
ENDBRANCH  10  11
ENDBRANCH   9  10
ENDBRANCH   1   9
TORSDOF 11
BEGIN_RES ARG D 557
REMARK  4 active torsions:
REMARK  status: ('A' for Active; 'I' for Inactive)
REMARK    1  A    between atoms: CA   and  CB  
REMARK    2  A    between atoms: CB   and  CG  
REMARK    3  A    between atoms: CG   and  CD  
REMARK    4  A    between atoms: CD   and  NE  
REMARK       I    between atoms: NE   and  CZ  
REMARK       I    between atoms: CZ   and  NH1 
REMARK       I    between atoms: CZ   and  NH2 
ROOT
ATOM      1  CA  ARG D 557     -26.217   2.705 -17.014  1.00 35.49     0.159 C 
ENDROOT
BRANCH   1   2
ATOM      2  CB  ARG D 557     -26.789   1.319 -17.183  1.00 35.49     0.034 C 
BRANCH   2   3
ATOM      3  CG  ARG D 557     -28.232   1.226 -17.434  1.00 35.49     0.027 C 
BRANCH   3   4
ATOM      4  CD  ARG D 557     -28.909   0.301 -16.497  1.00 35.49     0.116 C 
BRANCH   4   5
ATOM      5  NE  ARG D 557     -29.293  -0.932 -17.134  1.00 35.49    -0.212 N 
ATOM      6  CZ  ARG D 557     -28.658  -2.078 -17.033  1.00 35.49     0.666 C 
ATOM      7  NH1 ARG D 557     -27.554  -2.218 -16.323  1.00 35.49    -0.235 N 
ATOM      8  NH2 ARG D 557     -29.161  -3.100 -17.663  1.00 35.49    -0.235 N 
ATOM      9  HH  ARG D 557     -27.207  -1.559 -15.898  1.00 35.49     0.174 HD
ATOM     10  HH  ARG D 557     -27.185  -2.990 -16.292  1.00 35.49     0.174 HD
ATOM     11  HH  ARG D 557     -29.878  -2.982 -18.108  1.00 35.49     0.174 HD
ATOM     12  HH  ARG D 557     -28.781  -3.857 -17.619  1.00 35.49     0.174 HD
ATOM     13  HE  ARG D 557     -29.952  -0.916 -17.670  1.00 35.49     0.178 HD
ENDBRANCH   4   5
ENDBRANCH   3   4
ENDBRANCH   2   3
ENDBRANCH   1   2
END_RES ARG D 557
BEGIN_RES GLU D 570
REMARK  3 active torsions:
REMARK  status: ('A' for Active; 'I' for Inactive)
REMARK    5  A    between atoms: CA   and  CB  
REMARK    6  A    between atoms: CB   and  CG  
REMARK    7  A    between atoms: CG   and  CD  
ROOT
ATOM     14  CA  GLU D 570     -18.033  -6.348 -13.375  1.00 32.92     0.160 C 
ENDROOT
BRANCH  14  15
ATOM     15  CB  GLU D 570     -19.500  -6.345 -13.794  1.00 32.92     0.043 C 
BRANCH  15  16
ATOM     16  CG  GLU D 570     -20.448  -5.562 -12.960  1.00 32.92     0.100 C 
BRANCH  16  17
ATOM     17  CD  GLU D 570     -21.745  -5.256 -13.673  1.00 32.92     0.185 C 
ATOM     18  OE1 GLU D 570     -22.213  -6.095 -14.465  1.00 32.92    -0.647 OA
ATOM     19  OE2 GLU D 570     -22.290  -4.157 -13.449  1.00 32.92    -0.647 OA
ENDBRANCH  16  17
ENDBRANCH  15  16
ENDBRANCH  14  15
END_RES GLU D 570
ENDMDL
