MODEL 1
REMARK VINA RESULT:      -5.8      0.000      0.000
REMARK  6 active torsions:
REMARK  status: ('A' for Active; 'I' for Inactive)
REMARK       I    between atoms: C_2  and  N_4 
REMARK    1  A    between atoms: N_4  and  CA_5 
REMARK    2  A    between atoms: CA_5  and  CB_6 
REMARK    3  A    between atoms: CA_5  and  C_10 
REMARK    4  A    between atoms: CB_6  and  CG_7 
REMARK    5  A    between atoms: CG_7  and  SD_8 
REMARK    6  A    between atoms: C_10  and  OXT_12 
ROOT
ATOM      1  CA  MET A   1     -24.625  -6.291 -15.790  1.00  0.00     0.183 C 
ENDROOT
BRANCH   1   2
ATOM      2  N   MET A   1     -26.007  -6.703 -15.547  1.00  0.00    -0.347 N 
HETATM    3  C   UNK A   0     -27.069  -6.074 -16.146  1.00  0.00     0.214 C 
HETATM    4  C   UNK A   0     -28.404  -6.664 -15.788  1.00  0.00     0.117 C 
HETATM    5  O   UNK A   0     -26.944  -5.130 -16.919  1.00  0.00    -0.274 OA
ATOM      6  H   MET A   1     -26.154  -7.515 -14.954  1.00  0.00     0.163 HD
ENDBRANCH   1   2
BRANCH   1   7
ATOM      7  CB  MET A   1     -23.826  -6.314 -14.481  1.00  0.00     0.046 C 
BRANCH   7   8
ATOM      8  CG  MET A   1     -23.076  -5.021 -14.153  1.00  0.00     0.076 C 
BRANCH   8   9
ATOM      9  SD  MET A   1     -24.153  -3.652 -13.616  1.00  0.00    -0.173 SA
ATOM     10  CE  MET A   1     -23.402  -2.299 -14.568  1.00  0.00     0.089 C 
ENDBRANCH   8   9
ENDBRANCH   7   8
ENDBRANCH   1   7
BRANCH   1  11
ATOM     11  C   MET A   1     -24.028  -7.260 -16.812  1.00  0.00     0.163 C 
ATOM     12  O   MET A   1     -23.710  -6.931 -17.950  1.00  0.00    -0.648 OA
BRANCH  11  13
ATOM     13  OXT MET A   1     -23.906  -8.530 -16.366  1.00  0.00    -0.775 OA
ATOM     14  HXT MET A   1     -24.732  -9.057 -16.404  1.00  0.00     0.167 HD
ENDBRANCH  11  13
ENDBRANCH   1  11
TORSDOF 6
BEGIN_RES ARG D 557
REMARK  4 active torsions:
REMARK  status: ('A' for Active; 'I' for Inactive)
REMARK    1  A    between atoms: CA   and  CB  
REMARK    2  A    between atoms: CB   and  CG  
REMARK    3  A    between atoms: CG   and  CD  
REMARK    4  A    between atoms: CD   and  NE  
REMARK       I    between atoms: NE   and  CZ  
REMARK       I    between atoms: CZ   and  NH1 
REMARK       I    between atoms: CZ   and  NH2 
ROOT
ATOM      1  CA  ARG D 557     -26.217   2.705 -17.014  1.00 35.49     0.159 C 
ENDROOT
BRANCH   1   2
ATOM      2  CB  ARG D 557     -26.789   1.319 -17.183  1.00 35.49     0.034 C 
BRANCH   2   3
ATOM      3  CG  ARG D 557     -28.230   1.227 -17.448  1.00 35.49     0.027 C 
BRANCH   3   4
ATOM      4  CD  ARG D 557     -28.918   0.308 -16.512  1.00 35.49     0.116 C 
BRANCH   4   5
ATOM      5  NE  ARG D 557     -29.277  -0.936 -17.140  1.00 35.49    -0.212 N 
ATOM      6  CZ  ARG D 557     -28.630  -2.074 -17.016  1.00 35.49     0.666 C 
ATOM      7  NH1 ARG D 557     -27.535  -2.192 -16.288  1.00 35.49    -0.235 N 
ATOM      8  NH2 ARG D 557     -29.111  -3.109 -17.641  1.00 35.49    -0.235 N 
ATOM      9  HH  ARG D 557     -27.202  -1.524 -15.866  1.00 35.49     0.174 HD
ATOM     10  HH  ARG D 557     -27.158  -2.959 -16.242  1.00 35.49     0.174 HD
ATOM     11  HH  ARG D 557     -29.824  -3.005 -18.098  1.00 35.49     0.174 HD
ATOM     12  HH  ARG D 557     -28.724  -3.861 -17.582  1.00 35.49     0.174 HD
ATOM     13  HE  ARG D 557     -29.929  -0.935 -17.686  1.00 35.49     0.178 HD
ENDBRANCH   4   5
ENDBRANCH   3   4
ENDBRANCH   2   3
ENDBRANCH   1   2
END_RES ARG D 557
BEGIN_RES GLU D 570
REMARK  3 active torsions:
REMARK  status: ('A' for Active; 'I' for Inactive)
REMARK    5  A    between atoms: CA   and  CB  
REMARK    6  A    between atoms: CB   and  CG  
REMARK    7  A    between atoms: CG   and  CD  
ROOT
ATOM     14  CA  GLU D 570     -18.033  -6.348 -13.375  1.00 32.92     0.160 C 
ENDROOT
BRANCH  14  15
ATOM     15  CB  GLU D 570     -19.500  -6.345 -13.794  1.00 32.92     0.043 C 
BRANCH  15  16
ATOM     16  CG  GLU D 570     -20.085  -7.634 -14.246  1.00 32.92     0.100 C 
BRANCH  16  17
ATOM     17  CD  GLU D 570     -20.546  -7.599 -15.685  1.00 32.92     0.185 C 
ATOM     18  OE1 GLU D 570     -20.631  -6.501 -16.267  1.00 32.92    -0.647 OA
ATOM     19  OE2 GLU D 570     -20.843  -8.680 -16.230  1.00 32.92    -0.647 OA
ENDBRANCH  16  17
ENDBRANCH  15  16
ENDBRANCH  14  15
END_RES GLU D 570
ENDMDL
MODEL 2
REMARK VINA RESULT:      -5.7      3.153      4.645
REMARK  6 active torsions:
REMARK  status: ('A' for Active; 'I' for Inactive)
REMARK       I    between atoms: C_2  and  N_4 
REMARK    1  A    between atoms: N_4  and  CA_5 
REMARK    2  A    between atoms: CA_5  and  CB_6 
REMARK    3  A    between atoms: CA_5  and  C_10 
REMARK    4  A    between atoms: CB_6  and  CG_7 
REMARK    5  A    between atoms: CG_7  and  SD_8 
REMARK    6  A    between atoms: C_10  and  OXT_12 
ROOT
ATOM      1  CA  MET A   1     -26.699  -5.856 -16.738  1.00  0.00     0.183 C 
ENDROOT
BRANCH   1   2
ATOM      2  N   MET A   1     -26.904  -6.320 -18.109  1.00  0.00    -0.347 N 
HETATM    3  C   UNK A   0     -25.855  -6.639 -18.933  1.00  0.00     0.214 C 
HETATM    4  C   UNK A   0     -26.276  -7.121 -20.293  1.00  0.00     0.117 C 
HETATM    5  O   UNK A   0     -24.680  -6.560 -18.589  1.00  0.00    -0.274 OA
ATOM      6  H   MET A   1     -27.863  -6.450 -18.419  1.00  0.00     0.163 HD
ENDBRANCH   1   2
BRANCH   1   7
ATOM      7  CB  MET A   1     -27.790  -4.853 -16.347  1.00  0.00     0.046 C 
BRANCH   7   8
ATOM      8  CG  MET A   1     -28.935  -4.711 -17.352  1.00  0.00     0.076 C 
BRANCH   8   9
ATOM      9  SD  MET A   1     -30.519  -5.411 -16.779  1.00  0.00    -0.173 SA
ATOM     10  CE  MET A   1     -30.442  -7.025 -17.607  1.00  0.00     0.089 C 
ENDBRANCH   8   9
ENDBRANCH   7   8
ENDBRANCH   1   7
BRANCH   1  11
ATOM     11  C   MET A   1     -26.733  -7.084 -15.826  1.00  0.00     0.163 C 
ATOM     12  O   MET A   1     -27.724  -7.427 -15.190  1.00  0.00    -0.648 OA
BRANCH  11  13
ATOM     13  OXT MET A   1     -25.561  -7.753 -15.752  1.00  0.00    -0.775 OA
ATOM     14  HXT MET A   1     -24.986  -7.657 -16.541  1.00  0.00     0.167 HD
ENDBRANCH  11  13
ENDBRANCH   1  11
TORSDOF 6
BEGIN_RES ARG D 557
REMARK  4 active torsions:
REMARK  status: ('A' for Active; 'I' for Inactive)
REMARK    1  A    between atoms: CA   and  CB  
REMARK    2  A    between atoms: CB   and  CG  
REMARK    3  A    between atoms: CG   and  CD  
REMARK    4  A    between atoms: CD   and  NE  
REMARK       I    between atoms: NE   and  CZ  
REMARK       I    between atoms: CZ   and  NH1 
REMARK       I    between atoms: CZ   and  NH2 
ROOT
ATOM      1  CA  ARG D 557     -26.217   2.705 -17.014  1.00 35.49     0.159 C 
ENDROOT
BRANCH   1   2
ATOM      2  CB  ARG D 557     -26.789   1.319 -17.183  1.00 35.49     0.034 C 
BRANCH   2   3
ATOM      3  CG  ARG D 557     -25.835   0.204 -17.163  1.00 35.49     0.027 C 
BRANCH   3   4
ATOM      4  CD  ARG D 557     -24.752   0.405 -16.173  1.00 35.49     0.116 C 
BRANCH   4   5
ATOM      5  NE  ARG D 557     -24.908  -0.441 -15.019  1.00 35.49    -0.212 N 
ATOM      6  CZ  ARG D 557     -24.098  -1.413 -14.664  1.00 35.49     0.666 C 
ATOM      7  NH1 ARG D 557     -23.026  -1.733 -15.364  1.00 35.49    -0.235 N 
ATOM      8  NH2 ARG D 557     -24.383  -2.063 -13.573  1.00 35.49    -0.235 N 
ATOM      9  HH  ARG D 557     -22.818  -1.317 -16.083  1.00 35.49     0.174 HD
ATOM     10  HH  ARG D 557     -22.532  -2.375 -15.082  1.00 35.49     0.174 HD
ATOM     11  HH  ARG D 557     -25.078  -1.830 -13.138  1.00 35.49     0.174 HD
ATOM     12  HH  ARG D 557     -23.882  -2.695 -13.310  1.00 35.49     0.174 HD
ATOM     13  HE  ARG D 557     -25.612  -0.351 -14.551  1.00 35.49     0.178 HD
ENDBRANCH   4   5
ENDBRANCH   3   4
ENDBRANCH   2   3
ENDBRANCH   1   2
END_RES ARG D 557
BEGIN_RES GLU D 570
REMARK  3 active torsions:
REMARK  status: ('A' for Active; 'I' for Inactive)
REMARK    5  A    between atoms: CA   and  CB  
REMARK    6  A    between atoms: CB   and  CG  
REMARK    7  A    between atoms: CG   and  CD  
ROOT
ATOM     14  CA  GLU D 570     -18.033  -6.348 -13.375  1.00 32.92     0.160 C 
ENDROOT
BRANCH  14  15
ATOM     15  CB  GLU D 570     -19.500  -6.345 -13.794  1.00 32.92     0.043 C 
BRANCH  15  16
ATOM     16  CG  GLU D 570     -20.440  -5.524 -12.988  1.00 32.92     0.100 C 
BRANCH  16  17
ATOM     17  CD  GLU D 570     -21.745  -5.253 -13.701  1.00 32.92     0.185 C 
ATOM     18  OE1 GLU D 570     -22.314  -4.159 -13.525  1.00 32.92    -0.647 OA
ATOM     19  OE2 GLU D 570     -22.212  -6.152 -14.428  1.00 32.92    -0.647 OA
ENDBRANCH  16  17
ENDBRANCH  15  16
ENDBRANCH  14  15
END_RES GLU D 570
ENDMDL
MODEL 3
REMARK VINA RESULT:      -5.7      4.031      5.452
REMARK  6 active torsions:
REMARK  status: ('A' for Active; 'I' for Inactive)
REMARK       I    between atoms: C_2  and  N_4 
REMARK    1  A    between atoms: N_4  and  CA_5 
REMARK    2  A    between atoms: CA_5  and  CB_6 
REMARK    3  A    between atoms: CA_5  and  C_10 
REMARK    4  A    between atoms: CB_6  and  CG_7 
REMARK    5  A    between atoms: CG_7  and  SD_8 
REMARK    6  A    between atoms: C_10  and  OXT_12 
ROOT
ATOM      1  CA  MET A   1     -23.235  -3.854 -10.505  1.00  0.00     0.183 C 
ENDROOT
BRANCH   1   2
ATOM      2  N   MET A   1     -22.163  -4.314  -9.625  1.00  0.00    -0.347 N 
HETATM    3  C   UNK A   0     -20.841  -4.080  -9.906  1.00  0.00     0.214 C 
HETATM    4  C   UNK A   0     -19.896  -4.608  -8.864  1.00  0.00     0.117 C 
HETATM    5  O   UNK A   0     -20.461  -3.477 -10.905  1.00  0.00    -0.274 OA
ATOM      6  H   MET A   1     -22.435  -4.772  -8.759  1.00  0.00     0.163 HD
ENDBRANCH   1   2
BRANCH   1   7
ATOM      7  CB  MET A   1     -23.555  -4.923 -11.557  1.00  0.00     0.046 C 
BRANCH   7   8
ATOM      8  CG  MET A   1     -23.635  -4.416 -12.998  1.00  0.00     0.076 C 
BRANCH   8   9
ATOM      9  SD  MET A   1     -23.214  -2.652 -13.191  1.00  0.00    -0.173 SA
ATOM     10  CE  MET A   1     -24.534  -2.160 -14.337  1.00  0.00     0.089 C 
ENDBRANCH   8   9
ENDBRANCH   7   8
ENDBRANCH   1   7
BRANCH   1  11
ATOM     11  C   MET A   1     -24.458  -3.565  -9.631  1.00  0.00     0.163 C 
ATOM     12  O   MET A   1     -25.519  -3.137 -10.072  1.00  0.00    -0.648 OA
BRANCH  11  13
ATOM     13  OXT MET A   1     -24.263  -3.794  -8.313  1.00  0.00    -0.775 OA
ATOM     14  HXT MET A   1     -23.340  -4.018  -8.070  1.00  0.00     0.167 HD
ENDBRANCH  11  13
ENDBRANCH   1  11
TORSDOF 6
BEGIN_RES ARG D 557
REMARK  4 active torsions:
REMARK  status: ('A' for Active; 'I' for Inactive)
REMARK    1  A    between atoms: CA   and  CB  
REMARK    2  A    between atoms: CB   and  CG  
REMARK    3  A    between atoms: CG   and  CD  
REMARK    4  A    between atoms: CD   and  NE  
REMARK       I    between atoms: NE   and  CZ  
REMARK       I    between atoms: CZ   and  NH1 
REMARK       I    between atoms: CZ   and  NH2 
ROOT
ATOM      1  CA  ARG D 557     -26.217   2.705 -17.014  1.00 35.49     0.159 C 
ENDROOT
BRANCH   1   2
ATOM      2  CB  ARG D 557     -26.789   1.319 -17.183  1.00 35.49     0.034 C 
BRANCH   2   3
ATOM      3  CG  ARG D 557     -28.233   1.226 -17.430  1.00 35.49     0.027 C 
BRANCH   3   4
ATOM      4  CD  ARG D 557     -28.907   0.298 -16.494  1.00 35.49     0.116 C 
BRANCH   4   5
ATOM      5  NE  ARG D 557     -29.303  -0.928 -17.135  1.00 35.49    -0.212 N 
ATOM      6  CZ  ARG D 557     -28.680  -2.081 -17.038  1.00 35.49     0.666 C 
ATOM      7  NH1 ARG D 557     -27.579  -2.235 -16.326  1.00 35.49    -0.235 N 
ATOM      8  NH2 ARG D 557     -29.192  -3.096 -17.672  1.00 35.49    -0.235 N 
ATOM      9  HH  ARG D 557     -27.225  -1.581 -15.899  1.00 35.49     0.174 HD
ATOM     10  HH  ARG D 557     -27.217  -3.011 -16.297  1.00 35.49     0.174 HD
ATOM     11  HH  ARG D 557     -29.908  -2.969 -18.118  1.00 35.49     0.174 HD
ATOM     12  HH  ARG D 557     -28.821  -3.857 -17.630  1.00 35.49     0.174 HD
ATOM     13  HE  ARG D 557     -29.961  -0.903 -17.672  1.00 35.49     0.178 HD
ENDBRANCH   4   5
ENDBRANCH   3   4
ENDBRANCH   2   3
ENDBRANCH   1   2
END_RES ARG D 557
BEGIN_RES GLU D 570
REMARK  3 active torsions:
REMARK  status: ('A' for Active; 'I' for Inactive)
REMARK    5  A    between atoms: CA   and  CB  
REMARK    6  A    between atoms: CB   and  CG  
REMARK    7  A    between atoms: CG   and  CD  
ROOT
ATOM     14  CA  GLU D 570     -18.033  -6.348 -13.375  1.00 32.92     0.160 C 
ENDROOT
BRANCH  14  15
ATOM     15  CB  GLU D 570     -19.500  -6.345 -13.794  1.00 32.92     0.043 C 
BRANCH  15  16
ATOM     16  CG  GLU D 570     -19.805  -6.037 -15.215  1.00 32.92     0.100 C 
BRANCH  16  17
ATOM     17  CD  GLU D 570     -21.280  -5.828 -15.469  1.00 32.92     0.185 C 
ATOM     18  OE1 GLU D 570     -22.077  -6.746 -15.197  1.00 32.92    -0.647 OA
ATOM     19  OE2 GLU D 570     -21.640  -4.740 -15.961  1.00 32.92    -0.647 OA
ENDBRANCH  16  17
ENDBRANCH  15  16
ENDBRANCH  14  15
END_RES GLU D 570
ENDMDL
MODEL 4
REMARK VINA RESULT:      -5.6      2.489      3.543
REMARK  6 active torsions:
REMARK  status: ('A' for Active; 'I' for Inactive)
REMARK       I    between atoms: C_2  and  N_4 
REMARK    1  A    between atoms: N_4  and  CA_5 
REMARK    2  A    between atoms: CA_5  and  CB_6 
REMARK    3  A    between atoms: CA_5  and  C_10 
REMARK    4  A    between atoms: CB_6  and  CG_7 
REMARK    5  A    between atoms: CG_7  and  SD_8 
REMARK    6  A    between atoms: C_10  and  OXT_12 
ROOT
ATOM      1  CA  MET A   1     -22.729  -4.115 -13.480  1.00  0.00     0.183 C 
ENDROOT
BRANCH   1   2
ATOM      2  N   MET A   1     -23.639  -2.998 -13.728  1.00  0.00    -0.347 N 
HETATM    3  C   UNK A   0     -23.449  -2.122 -14.766  1.00  0.00     0.214 C 
HETATM    4  C   UNK A   0     -24.507  -1.060 -14.866  1.00  0.00     0.117 C 
HETATM    5  O   UNK A   0     -22.513  -2.205 -15.555  1.00  0.00    -0.274 OA
ATOM      6  H   MET A   1     -24.457  -2.921 -13.130  1.00  0.00     0.163 HD
ENDBRANCH   1   2
BRANCH   1   7
ATOM      7  CB  MET A   1     -22.644  -4.408 -11.978  1.00  0.00     0.046 C 
BRANCH   7   8
ATOM      8  CG  MET A   1     -23.186  -3.305 -11.066  1.00  0.00     0.076 C 
BRANCH   8   9
ATOM      9  SD  MET A   1     -24.145  -3.921  -9.643  1.00  0.00    -0.173 SA
ATOM     10  CE  MET A   1     -22.795  -4.122  -8.446  1.00  0.00     0.089 C 
ENDBRANCH   8   9
ENDBRANCH   7   8
ENDBRANCH   1   7
BRANCH   1  11
ATOM     11  C   MET A   1     -23.269  -5.326 -14.243  1.00  0.00     0.163 C 
ATOM     12  O   MET A   1     -23.870  -6.251 -13.708  1.00  0.00    -0.648 OA
BRANCH  11  13
ATOM     13  OXT MET A   1     -23.000  -5.312 -15.569  1.00  0.00    -0.775 OA
ATOM     14  HXT MET A   1     -23.705  -5.694 -16.132  1.00  0.00     0.167 HD
ENDBRANCH  11  13
ENDBRANCH   1  11
TORSDOF 6
BEGIN_RES ARG D 557
REMARK  4 active torsions:
REMARK  status: ('A' for Active; 'I' for Inactive)
REMARK    1  A    between atoms: CA   and  CB  
REMARK    2  A    between atoms: CB   and  CG  
REMARK    3  A    between atoms: CG   and  CD  
REMARK    4  A    between atoms: CD   and  NE  
REMARK       I    between atoms: NE   and  CZ  
REMARK       I    between atoms: CZ   and  NH1 
REMARK       I    between atoms: CZ   and  NH2 
ROOT
ATOM      1  CA  ARG D 557     -26.217   2.705 -17.014  1.00 35.49     0.159 C 
ENDROOT
BRANCH   1   2
ATOM      2  CB  ARG D 557     -26.789   1.319 -17.183  1.00 35.49     0.034 C 
BRANCH   2   3
ATOM      3  CG  ARG D 557     -28.234   1.225 -17.423  1.00 35.49     0.027 C 
BRANCH   3   4
ATOM      4  CD  ARG D 557     -28.902   0.290 -16.489  1.00 35.49     0.116 C 
BRANCH   4   5
ATOM      5  NE  ARG D 557     -29.302  -0.931 -17.137  1.00 35.49    -0.212 N 
ATOM      6  CZ  ARG D 557     -28.684  -2.087 -17.046  1.00 35.49     0.666 C 
ATOM      7  NH1 ARG D 557     -27.583  -2.249 -16.334  1.00 35.49    -0.235 N 
ATOM      8  NH2 ARG D 557     -29.200  -3.096 -17.685  1.00 35.49    -0.235 N 
ATOM      9  HH  ARG D 557     -27.227  -1.599 -15.903  1.00 35.49     0.174 HD
ATOM     10  HH  ARG D 557     -27.226  -3.027 -16.309  1.00 35.49     0.174 HD
ATOM     11  HH  ARG D 557     -29.915  -2.964 -18.131  1.00 35.49     0.174 HD
ATOM     12  HH  ARG D 557     -28.832  -3.859 -17.647  1.00 35.49     0.174 HD
ATOM     13  HE  ARG D 557     -29.960  -0.901 -17.674  1.00 35.49     0.178 HD
ENDBRANCH   4   5
ENDBRANCH   3   4
ENDBRANCH   2   3
ENDBRANCH   1   2
END_RES ARG D 557
BEGIN_RES GLU D 570
REMARK  3 active torsions:
REMARK  status: ('A' for Active; 'I' for Inactive)
REMARK    5  A    between atoms: CA   and  CB  
REMARK    6  A    between atoms: CB   and  CG  
REMARK    7  A    between atoms: CG   and  CD  
ROOT
ATOM     14  CA  GLU D 570     -18.033  -6.348 -13.375  1.00 32.92     0.160 C 
ENDROOT
BRANCH  14  15
ATOM     15  CB  GLU D 570     -19.500  -6.345 -13.794  1.00 32.92     0.043 C 
BRANCH  15  16
ATOM     16  CG  GLU D 570     -20.102  -7.645 -14.186  1.00 32.92     0.100 C 
BRANCH  16  17
ATOM     17  CD  GLU D 570     -20.505  -7.693 -15.642  1.00 32.92     0.185 C 
ATOM     18  OE1 GLU D 570     -20.718  -8.799 -16.175  1.00 32.92    -0.647 OA
ATOM     19  OE2 GLU D 570     -20.593  -6.613 -16.260  1.00 32.92    -0.647 OA
ENDBRANCH  16  17
ENDBRANCH  15  16
ENDBRANCH  14  15
END_RES GLU D 570
ENDMDL
MODEL 5
REMARK VINA RESULT:      -5.4      2.789      4.213
REMARK  6 active torsions:
REMARK  status: ('A' for Active; 'I' for Inactive)
REMARK       I    between atoms: C_2  and  N_4 
REMARK    1  A    between atoms: N_4  and  CA_5 
REMARK    2  A    between atoms: CA_5  and  CB_6 
REMARK    3  A    between atoms: CA_5  and  C_10 
REMARK    4  A    between atoms: CB_6  and  CG_7 
REMARK    5  A    between atoms: CG_7  and  SD_8 
REMARK    6  A    between atoms: C_10  and  OXT_12 
ROOT
ATOM      1  CA  MET A   1     -22.781  -3.539 -13.605  1.00  0.00     0.183 C 
ENDROOT
BRANCH   1   2
ATOM      2  N   MET A   1     -23.728  -3.722 -12.505  1.00  0.00    -0.347 N 
HETATM    3  C   UNK A   0     -23.371  -3.516 -11.197  1.00  0.00     0.214 C 
HETATM    4  C   UNK A   0     -24.493  -3.730 -10.221  1.00  0.00     0.117 C 
HETATM    5  O   UNK A   0     -22.246  -3.169 -10.853  1.00  0.00    -0.274 OA
ATOM      6  H   MET A   1     -24.686  -3.958 -12.749  1.00  0.00     0.163 HD
ENDBRANCH   1   2
BRANCH   1   7
ATOM      7  CB  MET A   1     -22.699  -4.814 -14.453  1.00  0.00     0.046 C 
BRANCH   7   8
ATOM      8  CG  MET A   1     -23.692  -5.915 -14.073  1.00  0.00     0.076 C 
BRANCH   8   9
ATOM      9  SD  MET A   1     -24.952  -6.253 -15.347  1.00  0.00    -0.173 SA
ATOM     10  CE  MET A   1     -24.046  -7.478 -16.336  1.00  0.00     0.089 C 
ENDBRANCH   8   9
ENDBRANCH   7   8
ENDBRANCH   1   7
BRANCH   1  11
ATOM     11  C   MET A   1     -23.271  -2.356 -14.442  1.00  0.00     0.163 C 
ATOM     12  O   MET A   1     -22.753  -2.016 -15.501  1.00  0.00    -0.648 OA
BRANCH  11  13
ATOM     13  OXT MET A   1     -24.314  -1.688 -13.901  1.00  0.00    -0.775 OA
ATOM     14  HXT MET A   1     -24.111  -1.230 -13.058  1.00  0.00     0.167 HD
ENDBRANCH  11  13
ENDBRANCH   1  11
TORSDOF 6
BEGIN_RES ARG D 557
REMARK  4 active torsions:
REMARK  status: ('A' for Active; 'I' for Inactive)
REMARK    1  A    between atoms: CA   and  CB  
REMARK    2  A    between atoms: CB   and  CG  
REMARK    3  A    between atoms: CG   and  CD  
REMARK    4  A    between atoms: CD   and  NE  
REMARK       I    between atoms: NE   and  CZ  
REMARK       I    between atoms: CZ   and  NH1 
REMARK       I    between atoms: CZ   and  NH2 
ROOT
ATOM      1  CA  ARG D 557     -26.217   2.705 -17.014  1.00 35.49     0.159 C 
ENDROOT
BRANCH   1   2
ATOM      2  CB  ARG D 557     -26.789   1.319 -17.183  1.00 35.49     0.034 C 
BRANCH   2   3
ATOM      3  CG  ARG D 557     -28.221   1.156 -16.902  1.00 35.49     0.027 C 
BRANCH   3   4
ATOM      4  CD  ARG D 557     -28.620  -0.267 -16.811  1.00 35.49     0.116 C 
BRANCH   4   5
ATOM      5  NE  ARG D 557     -27.649  -1.058 -16.103  1.00 35.49    -0.212 N 
ATOM      6  CZ  ARG D 557     -27.527  -2.365 -16.169  1.00 35.49     0.666 C 
ATOM      7  NH1 ARG D 557     -28.322  -3.115 -16.910  1.00 35.49    -0.235 N 
ATOM      8  NH2 ARG D 557     -26.574  -2.916 -15.474  1.00 35.49    -0.235 N 
ATOM      9  HH  ARG D 557     -28.954  -2.774 -17.377  1.00 35.49     0.174 HD
ATOM     10  HH  ARG D 557     -28.194  -3.962 -16.916  1.00 35.49     0.174 HD
ATOM     11  HH  ARG D 557     -26.071  -2.406 -15.011  1.00 35.49     0.174 HD
ATOM     12  HH  ARG D 557     -26.462  -3.756 -15.495  1.00 35.49     0.174 HD
ATOM     13  HE  ARG D 557     -27.141  -0.664 -15.546  1.00 35.49     0.178 HD
ENDBRANCH   4   5
ENDBRANCH   3   4
ENDBRANCH   2   3
ENDBRANCH   1   2
END_RES ARG D 557
BEGIN_RES GLU D 570
REMARK  3 active torsions:
REMARK  status: ('A' for Active; 'I' for Inactive)
REMARK    5  A    between atoms: CA   and  CB  
REMARK    6  A    between atoms: CB   and  CG  
REMARK    7  A    between atoms: CG   and  CD  
ROOT
ATOM     14  CA  GLU D 570     -18.033  -6.348 -13.375  1.00 32.92     0.160 C 
ENDROOT
BRANCH  14  15
ATOM     15  CB  GLU D 570     -19.500  -6.345 -13.794  1.00 32.92     0.043 C 
BRANCH  15  16
ATOM     16  CG  GLU D 570     -20.102  -7.645 -14.189  1.00 32.92     0.100 C 
BRANCH  16  17
ATOM     17  CD  GLU D 570     -20.481  -7.698 -15.651  1.00 32.92     0.185 C 
ATOM     18  OE1 GLU D 570     -20.715  -8.804 -16.175  1.00 32.92    -0.647 OA
ATOM     19  OE2 GLU D 570     -20.529  -6.624 -16.282  1.00 32.92    -0.647 OA
ENDBRANCH  16  17
ENDBRANCH  15  16
ENDBRANCH  14  15
END_RES GLU D 570
ENDMDL
MODEL 6
REMARK VINA RESULT:      -5.2      4.561      5.919
REMARK  6 active torsions:
REMARK  status: ('A' for Active; 'I' for Inactive)
REMARK       I    between atoms: C_2  and  N_4 
REMARK    1  A    between atoms: N_4  and  CA_5 
REMARK    2  A    between atoms: CA_5  and  CB_6 
REMARK    3  A    between atoms: CA_5  and  C_10 
REMARK    4  A    between atoms: CB_6  and  CG_7 
REMARK    5  A    between atoms: CG_7  and  SD_8 
REMARK    6  A    between atoms: C_10  and  OXT_12 
ROOT
ATOM      1  CA  MET A   1     -22.683  -3.640  -9.642  1.00  0.00     0.183 C 
ENDROOT
BRANCH   1   2
ATOM      2  N   MET A   1     -22.073  -4.719  -8.865  1.00  0.00    -0.347 N 
HETATM    3  C   UNK A   0     -21.501  -4.498  -7.638  1.00  0.00     0.214 C 
HETATM    4  C   UNK A   0     -20.955  -5.739  -6.991  1.00  0.00     0.117 C 
HETATM    5  O   UNK A   0     -21.455  -3.394  -7.106  1.00  0.00    -0.274 OA
ATOM      6  H   MET A   1     -22.135  -5.659  -9.245  1.00  0.00     0.163 HD
ENDBRANCH   1   2
BRANCH   1   7
ATOM      7  CB  MET A   1     -22.134  -3.640 -11.073  1.00  0.00     0.046 C 
BRANCH   7   8
ATOM      8  CG  MET A   1     -22.884  -2.740 -12.058  1.00  0.00     0.076 C 
BRANCH   8   9
ATOM      9  SD  MET A   1     -22.969  -3.402 -13.755  1.00  0.00    -0.173 SA
ATOM     10  CE  MET A   1     -23.409  -5.122 -13.375  1.00  0.00     0.089 C 
ENDBRANCH   8   9
ENDBRANCH   7   8
ENDBRANCH   1   7
BRANCH   1  11
ATOM     11  C   MET A   1     -24.196  -3.866  -9.636  1.00  0.00     0.163 C 
ATOM     12  O   MET A   1     -24.727  -4.901 -10.025  1.00  0.00    -0.648 OA
BRANCH  11  13
ATOM     13  OXT MET A   1     -24.913  -2.809  -9.192  1.00  0.00    -0.775 OA
ATOM     14  HXT MET A   1     -24.588  -1.937  -9.502  1.00  0.00     0.167 HD
ENDBRANCH  11  13
ENDBRANCH   1  11
TORSDOF 6
BEGIN_RES ARG D 557
REMARK  4 active torsions:
REMARK  status: ('A' for Active; 'I' for Inactive)
REMARK    1  A    between atoms: CA   and  CB  
REMARK    2  A    between atoms: CB   and  CG  
REMARK    3  A    between atoms: CG   and  CD  
REMARK    4  A    between atoms: CD   and  NE  
REMARK       I    between atoms: NE   and  CZ  
REMARK       I    between atoms: CZ   and  NH1 
REMARK       I    between atoms: CZ   and  NH2 
ROOT
ATOM      1  CA  ARG D 557     -26.217   2.705 -17.014  1.00 35.49     0.159 C 
ENDROOT
BRANCH   1   2
ATOM      2  CB  ARG D 557     -26.789   1.319 -17.183  1.00 35.49     0.034 C 
BRANCH   2   3
ATOM      3  CG  ARG D 557     -28.214   1.150 -16.874  1.00 35.49     0.027 C 
BRANCH   3   4
ATOM      4  CD  ARG D 557     -28.591  -0.272 -16.711  1.00 35.49     0.116 C 
BRANCH   4   5
ATOM      5  NE  ARG D 557     -27.593  -1.019 -15.992  1.00 35.49    -0.212 N 
ATOM      6  CZ  ARG D 557     -27.407  -2.319 -16.063  1.00 35.49     0.666 C 
ATOM      7  NH1 ARG D 557     -28.154  -3.102 -16.818  1.00 35.49    -0.235 N 
ATOM      8  NH2 ARG D 557     -26.439  -2.825 -15.356  1.00 35.49    -0.235 N 
ATOM      9  HH  ARG D 557     -28.796  -2.790 -17.293  1.00 35.49     0.174 HD
ATOM     10  HH  ARG D 557     -27.985  -3.942 -16.826  1.00 35.49     0.174 HD
ATOM     11  HH  ARG D 557     -25.968  -2.294 -14.884  1.00 35.49     0.174 HD
ATOM     12  HH  ARG D 557     -26.285  -3.659 -15.379  1.00 35.49     0.174 HD
ATOM     13  HE  ARG D 557     -27.114  -0.604 -15.426  1.00 35.49     0.178 HD
ENDBRANCH   4   5
ENDBRANCH   3   4
ENDBRANCH   2   3
ENDBRANCH   1   2
END_RES ARG D 557
BEGIN_RES GLU D 570
REMARK  3 active torsions:
REMARK  status: ('A' for Active; 'I' for Inactive)
REMARK    5  A    between atoms: CA   and  CB  
REMARK    6  A    between atoms: CB   and  CG  
REMARK    7  A    between atoms: CG   and  CD  
ROOT
ATOM     14  CA  GLU D 570     -18.033  -6.348 -13.375  1.00 32.92     0.160 C 
ENDROOT
BRANCH  14  15
ATOM     15  CB  GLU D 570     -19.500  -6.345 -13.794  1.00 32.92     0.043 C 
BRANCH  15  16
ATOM     16  CG  GLU D 570     -20.123  -7.655 -14.115  1.00 32.92     0.100 C 
BRANCH  16  17
ATOM     17  CD  GLU D 570     -20.753  -7.688 -15.488  1.00 32.92     0.185 C 
ATOM     18  OE1 GLU D 570     -20.638  -8.716 -16.182  1.00 32.92    -0.647 OA
ATOM     19  OE2 GLU D 570     -21.354  -6.668 -15.880  1.00 32.92    -0.647 OA
ENDBRANCH  16  17
ENDBRANCH  15  16
ENDBRANCH  14  15
END_RES GLU D 570
ENDMDL
MODEL 7
REMARK VINA RESULT:      -5.0      4.104      5.140
REMARK  6 active torsions:
REMARK  status: ('A' for Active; 'I' for Inactive)
REMARK       I    between atoms: C_2  and  N_4 
REMARK    1  A    between atoms: N_4  and  CA_5 
REMARK    2  A    between atoms: CA_5  and  CB_6 
REMARK    3  A    between atoms: CA_5  and  C_10 
REMARK    4  A    between atoms: CB_6  and  CG_7 
REMARK    5  A    between atoms: CG_7  and  SD_8 
REMARK    6  A    between atoms: C_10  and  OXT_12 
ROOT
ATOM      1  CA  MET A   1     -22.855  -4.311 -10.928  1.00  0.00     0.183 C 
ENDROOT
BRANCH   1   2
ATOM      2  N   MET A   1     -22.540  -3.754 -12.243  1.00  0.00    -0.347 N 
HETATM    3  C   UNK A   0     -22.775  -4.449 -13.402  1.00  0.00     0.214 C 
HETATM    4  C   UNK A   0     -22.409  -3.694 -14.648  1.00  0.00     0.117 C 
HETATM    5  O   UNK A   0     -23.259  -5.576 -13.425  1.00  0.00    -0.274 OA
ATOM      6  H   MET A   1     -22.186  -2.802 -12.274  1.00  0.00     0.163 HD
ENDBRANCH   1   2
BRANCH   1   7
ATOM      7  CB  MET A   1     -21.892  -3.755  -9.872  1.00  0.00     0.046 C 
BRANCH   7   8
ATOM      8  CG  MET A   1     -20.549  -4.480  -9.768  1.00  0.00     0.076 C 
BRANCH   8   9
ATOM      9  SD  MET A   1     -19.833  -4.486  -8.092  1.00  0.00    -0.173 SA
ATOM     10  CE  MET A   1     -21.205  -3.715  -7.185  1.00  0.00     0.089 C 
ENDBRANCH   8   9
ENDBRANCH   7   8
ENDBRANCH   1   7
BRANCH   1  11
ATOM     11  C   MET A   1     -24.301  -3.933 -10.602  1.00  0.00     0.163 C 
ATOM     12  O   MET A   1     -24.951  -3.119 -11.250  1.00  0.00    -0.648 OA
BRANCH  11  13
ATOM     13  OXT MET A   1     -24.803  -4.553  -9.510  1.00  0.00    -0.775 OA
ATOM     14  HXT MET A   1     -24.851  -5.530  -9.582  1.00  0.00     0.167 HD
ENDBRANCH  11  13
ENDBRANCH   1  11
TORSDOF 6
BEGIN_RES ARG D 557
REMARK  4 active torsions:
REMARK  status: ('A' for Active; 'I' for Inactive)
REMARK    1  A    between atoms: CA   and  CB  
REMARK    2  A    between atoms: CB   and  CG  
REMARK    3  A    between atoms: CG   and  CD  
REMARK    4  A    between atoms: CD   and  NE  
REMARK       I    between atoms: NE   and  CZ  
REMARK       I    between atoms: CZ   and  NH1 
REMARK       I    between atoms: CZ   and  NH2 
ROOT
ATOM      1  CA  ARG D 557     -26.217   2.705 -17.014  1.00 35.49     0.159 C 
ENDROOT
BRANCH   1   2
ATOM      2  CB  ARG D 557     -26.789   1.319 -17.183  1.00 35.49     0.034 C 
BRANCH   2   3
ATOM      3  CG  ARG D 557     -26.023   0.212 -16.597  1.00 35.49     0.027 C 
BRANCH   3   4
ATOM      4  CD  ARG D 557     -26.883  -0.934 -16.225  1.00 35.49     0.116 C 
BRANCH   4   5
ATOM      5  NE  ARG D 557     -26.350  -1.672 -15.110  1.00 35.49    -0.212 N 
ATOM      6  CZ  ARG D 557     -26.426  -2.974 -14.944  1.00 35.49     0.666 C 
ATOM      7  NH1 ARG D 557     -27.034  -3.765 -15.809  1.00 35.49    -0.235 N 
ATOM      8  NH2 ARG D 557     -25.867  -3.477 -13.882  1.00 35.49    -0.235 N 
ATOM      9  HH  ARG D 557     -27.407  -3.456 -16.515  1.00 35.49     0.174 HD
ATOM     10  HH  ARG D 557     -27.050  -4.607 -15.649  1.00 35.49     0.174 HD
ATOM     11  HH  ARG D 557     -25.475  -2.943 -13.345  1.00 35.49     0.174 HD
ATOM     12  HH  ARG D 557     -25.892  -4.313 -13.742  1.00 35.49     0.174 HD
ATOM     13  HE  ARG D 557     -26.005  -1.233 -14.469  1.00 35.49     0.178 HD
ENDBRANCH   4   5
ENDBRANCH   3   4
ENDBRANCH   2   3
ENDBRANCH   1   2
END_RES ARG D 557
BEGIN_RES GLU D 570
REMARK  3 active torsions:
REMARK  status: ('A' for Active; 'I' for Inactive)
REMARK    5  A    between atoms: CA   and  CB  
REMARK    6  A    between atoms: CB   and  CG  
REMARK    7  A    between atoms: CG   and  CD  
ROOT
ATOM     14  CA  GLU D 570     -18.033  -6.348 -13.375  1.00 32.92     0.160 C 
ENDROOT
BRANCH  14  15
ATOM     15  CB  GLU D 570     -19.500  -6.345 -13.794  1.00 32.92     0.043 C 
BRANCH  15  16
ATOM     16  CG  GLU D 570     -19.796  -6.279 -15.248  1.00 32.92     0.100 C 
BRANCH  16  17
ATOM     17  CD  GLU D 570     -20.838  -7.283 -15.684  1.00 32.92     0.185 C 
ATOM     18  OE1 GLU D 570     -20.648  -8.492 -15.451  1.00 32.92    -0.647 OA
ATOM     19  OE2 GLU D 570     -21.847  -6.857 -16.280  1.00 32.92    -0.647 OA
ENDBRANCH  16  17
ENDBRANCH  15  16
ENDBRANCH  14  15
END_RES GLU D 570
ENDMDL
MODEL 8
REMARK VINA RESULT:      -5.0      4.053      4.918
REMARK  6 active torsions:
REMARK  status: ('A' for Active; 'I' for Inactive)
REMARK       I    between atoms: C_2  and  N_4 
REMARK    1  A    between atoms: N_4  and  CA_5 
REMARK    2  A    between atoms: CA_5  and  CB_6 
REMARK    3  A    between atoms: CA_5  and  C_10 
REMARK    4  A    between atoms: CB_6  and  CG_7 
REMARK    5  A    between atoms: CG_7  and  SD_8 
REMARK    6  A    between atoms: C_10  and  OXT_12 
ROOT
ATOM      1  CA  MET A   1     -23.614  -3.918 -10.702  1.00  0.00     0.183 C 
ENDROOT
BRANCH   1   2
ATOM      2  N   MET A   1     -24.067  -3.312 -11.952  1.00  0.00    -0.347 N 
HETATM    3  C   UNK A   0     -23.873  -3.919 -13.167  1.00  0.00     0.214 C 
HETATM    4  C   UNK A   0     -24.435  -3.148 -14.328  1.00  0.00     0.117 C 
HETATM    5  O   UNK A   0     -23.311  -5.002 -13.296  1.00  0.00    -0.274 OA
ATOM      6  H   MET A   1     -24.584  -2.439 -11.887  1.00  0.00     0.163 HD
ENDBRANCH   1   2
BRANCH   1   7
ATOM      7  CB  MET A   1     -22.229  -3.381 -10.321  1.00  0.00     0.046 C 
BRANCH   7   8
ATOM      8  CG  MET A   1     -21.140  -4.443 -10.160  1.00  0.00     0.076 C 
BRANCH   8   9
ATOM      9  SD  MET A   1     -20.942  -5.054  -8.453  1.00  0.00    -0.173 SA
ATOM     10  CE  MET A   1     -19.491  -4.078  -7.960  1.00  0.00     0.089 C 
ENDBRANCH   8   9
ENDBRANCH   7   8
ENDBRANCH   1   7
BRANCH   1  11
ATOM     11  C   MET A   1     -24.646  -3.579  -9.625  1.00  0.00     0.163 C 
ATOM     12  O   MET A   1     -25.750  -3.104  -9.871  1.00  0.00    -0.648 OA
BRANCH  11  13
ATOM     13  OXT MET A   1     -24.229  -3.820  -8.361  1.00  0.00    -0.775 OA
ATOM     14  HXT MET A   1     -23.261  -3.945  -8.269  1.00  0.00     0.167 HD
ENDBRANCH  11  13
ENDBRANCH   1  11
TORSDOF 6
BEGIN_RES ARG D 557
REMARK  4 active torsions:
REMARK  status: ('A' for Active; 'I' for Inactive)
REMARK    1  A    between atoms: CA   and  CB  
REMARK    2  A    between atoms: CB   and  CG  
REMARK    3  A    between atoms: CG   and  CD  
REMARK    4  A    between atoms: CD   and  NE  
REMARK       I    between atoms: NE   and  CZ  
REMARK       I    between atoms: CZ   and  NH1 
REMARK       I    between atoms: CZ   and  NH2 
ROOT
ATOM      1  CA  ARG D 557     -26.217   2.705 -17.014  1.00 35.49     0.159 C 
ENDROOT
BRANCH   1   2
ATOM      2  CB  ARG D 557     -26.789   1.319 -17.183  1.00 35.49     0.034 C 
BRANCH   2   3
ATOM      3  CG  ARG D 557     -28.234   1.225 -17.423  1.00 35.49     0.027 C 
BRANCH   3   4
ATOM      4  CD  ARG D 557     -28.904   0.298 -16.483  1.00 35.49     0.116 C 
BRANCH   4   5
ATOM      5  NE  ARG D 557     -29.292  -0.933 -17.119  1.00 35.49    -0.212 N 
ATOM      6  CZ  ARG D 557     -28.660  -2.081 -17.022  1.00 35.49     0.666 C 
ATOM      7  NH1 ARG D 557     -27.554  -2.224 -16.315  1.00 35.49    -0.235 N 
ATOM      8  NH2 ARG D 557     -29.168  -3.101 -17.651  1.00 35.49    -0.235 N 
ATOM      9  HH  ARG D 557     -27.204  -1.566 -15.892  1.00 35.49     0.174 HD
ATOM     10  HH  ARG D 557     -27.187  -2.997 -16.286  1.00 35.49     0.174 HD
ATOM     11  HH  ARG D 557     -29.887  -2.981 -18.094  1.00 35.49     0.174 HD
ATOM     12  HH  ARG D 557     -28.790  -3.859 -17.609  1.00 35.49     0.174 HD
ATOM     13  HE  ARG D 557     -29.954  -0.915 -17.653  1.00 35.49     0.178 HD
ENDBRANCH   4   5
ENDBRANCH   3   4
ENDBRANCH   2   3
ENDBRANCH   1   2
END_RES ARG D 557
BEGIN_RES GLU D 570
REMARK  3 active torsions:
REMARK  status: ('A' for Active; 'I' for Inactive)
REMARK    5  A    between atoms: CA   and  CB  
REMARK    6  A    between atoms: CB   and  CG  
REMARK    7  A    between atoms: CG   and  CD  
ROOT
ATOM     14  CA  GLU D 570     -18.033  -6.348 -13.375  1.00 32.92     0.160 C 
ENDROOT
BRANCH  14  15
ATOM     15  CB  GLU D 570     -19.500  -6.345 -13.794  1.00 32.92     0.043 C 
BRANCH  15  16
ATOM     16  CG  GLU D 570     -19.796  -6.284 -15.249  1.00 32.92     0.100 C 
BRANCH  16  17
ATOM     17  CD  GLU D 570     -20.839  -7.289 -15.680  1.00 32.92     0.185 C 
ATOM     18  OE1 GLU D 570     -21.896  -6.880 -16.199  1.00 32.92    -0.647 OA
ATOM     19  OE2 GLU D 570     -20.604  -8.497 -15.482  1.00 32.92    -0.647 OA
ENDBRANCH  16  17
ENDBRANCH  15  16
ENDBRANCH  14  15
END_RES GLU D 570
ENDMDL
MODEL 9
REMARK VINA RESULT:      -4.7      5.950      7.025
REMARK  6 active torsions:
REMARK  status: ('A' for Active; 'I' for Inactive)
REMARK       I    between atoms: C_2  and  N_4 
REMARK    1  A    between atoms: N_4  and  CA_5 
REMARK    2  A    between atoms: CA_5  and  CB_6 
REMARK    3  A    between atoms: CA_5  and  C_10 
REMARK    4  A    between atoms: CB_6  and  CG_7 
REMARK    5  A    between atoms: CG_7  and  SD_8 
REMARK    6  A    between atoms: C_10  and  OXT_12 
ROOT
ATOM      1  CA  MET A   1     -22.423  -4.565  -7.507  1.00  0.00     0.183 C 
ENDROOT
BRANCH   1   2
ATOM      2  N   MET A   1     -23.561  -3.862  -8.098  1.00  0.00    -0.347 N 
HETATM    3  C   UNK A   0     -24.008  -4.139  -9.365  1.00  0.00     0.214 C 
HETATM    4  C   UNK A   0     -25.204  -3.329  -9.777  1.00  0.00     0.117 C 
HETATM    5  O   UNK A   0     -23.493  -4.983 -10.091  1.00  0.00    -0.274 OA
ATOM      6  H   MET A   1     -24.050  -3.191  -7.512  1.00  0.00     0.163 HD
ENDBRANCH   1   2
BRANCH   1   7
ATOM      7  CB  MET A   1     -21.285  -3.580  -7.213  1.00  0.00     0.046 C 
BRANCH   7   8
ATOM      8  CG  MET A   1     -19.931  -3.947  -7.824  1.00  0.00     0.076 C 
BRANCH   8   9
ATOM      9  SD  MET A   1     -20.044  -4.738  -9.463  1.00  0.00    -0.173 SA
ATOM     10  CE  MET A   1     -20.515  -3.291 -10.454  1.00  0.00     0.089 C 
ENDBRANCH   8   9
ENDBRANCH   7   8
ENDBRANCH   1   7
BRANCH   1  11
ATOM     11  C   MET A   1     -22.911  -5.235  -6.222  1.00  0.00     0.163 C 
ATOM     12  O   MET A   1     -22.170  -5.825  -5.442  1.00  0.00    -0.648 OA
BRANCH  11  13
ATOM     13  OXT MET A   1     -24.246  -5.152  -6.026  1.00  0.00    -0.775 OA
ATOM     14  HXT MET A   1     -24.521  -4.476  -5.370  1.00  0.00     0.167 HD
ENDBRANCH  11  13
ENDBRANCH   1  11
TORSDOF 6
BEGIN_RES ARG D 557
REMARK  4 active torsions:
REMARK  status: ('A' for Active; 'I' for Inactive)
REMARK    1  A    between atoms: CA   and  CB  
REMARK    2  A    between atoms: CB   and  CG  
REMARK    3  A    between atoms: CG   and  CD  
REMARK    4  A    between atoms: CD   and  NE  
REMARK       I    between atoms: NE   and  CZ  
REMARK       I    between atoms: CZ   and  NH1 
REMARK       I    between atoms: CZ   and  NH2 
ROOT
ATOM      1  CA  ARG D 557     -26.217   2.705 -17.014  1.00 35.49     0.159 C 
ENDROOT
BRANCH   1   2
ATOM      2  CB  ARG D 557     -26.789   1.319 -17.183  1.00 35.49     0.034 C 
BRANCH   2   3
ATOM      3  CG  ARG D 557     -25.836   0.203 -17.153  1.00 35.49     0.027 C 
BRANCH   3   4
ATOM      4  CD  ARG D 557     -24.758   0.408 -16.158  1.00 35.49     0.116 C 
BRANCH   4   5
ATOM      5  NE  ARG D 557     -24.911  -0.444 -15.009  1.00 35.49    -0.212 N 
ATOM      6  CZ  ARG D 557     -24.099  -1.417 -14.661  1.00 35.49     0.666 C 
ATOM      7  NH1 ARG D 557     -23.027  -1.733 -15.365  1.00 35.49    -0.235 N 
ATOM      8  NH2 ARG D 557     -24.381  -2.074 -13.574  1.00 35.49    -0.235 N 
ATOM      9  HH  ARG D 557     -22.821  -1.312 -16.082  1.00 35.49     0.174 HD
ATOM     10  HH  ARG D 557     -22.533  -2.375 -15.088  1.00 35.49     0.174 HD
ATOM     11  HH  ARG D 557     -25.075  -1.844 -13.135  1.00 35.49     0.174 HD
ATOM     12  HH  ARG D 557     -23.878  -2.706 -13.315  1.00 35.49     0.174 HD
ATOM     13  HE  ARG D 557     -25.614  -0.358 -14.539  1.00 35.49     0.178 HD
ENDBRANCH   4   5
ENDBRANCH   3   4
ENDBRANCH   2   3
ENDBRANCH   1   2
END_RES ARG D 557
BEGIN_RES GLU D 570
REMARK  3 active torsions:
REMARK  status: ('A' for Active; 'I' for Inactive)
REMARK    5  A    between atoms: CA   and  CB  
REMARK    6  A    between atoms: CB   and  CG  
REMARK    7  A    between atoms: CG   and  CD  
ROOT
ATOM     14  CA  GLU D 570     -18.033  -6.348 -13.375  1.00 32.92     0.160 C 
ENDROOT
BRANCH  14  15
ATOM     15  CB  GLU D 570     -19.500  -6.345 -13.794  1.00 32.92     0.043 C 
BRANCH  15  16
ATOM     16  CG  GLU D 570     -20.444  -5.539 -12.977  1.00 32.92     0.100 C 
BRANCH  16  17
ATOM     17  CD  GLU D 570     -21.738  -5.239 -13.697  1.00 32.92     0.185 C 
ATOM     18  OE1 GLU D 570     -22.197  -6.081 -14.492  1.00 32.92    -0.647 OA
ATOM     19  OE2 GLU D 570     -22.290  -4.143 -13.475  1.00 32.92    -0.647 OA
ENDBRANCH  16  17
ENDBRANCH  15  16
ENDBRANCH  14  15
END_RES GLU D 570
ENDMDL
