MODEL 1
REMARK VINA RESULT:      -7.3      0.000      0.000
REMARK WARNING: 32 MAX_TORS EXCEEDED!!!
REMARK  61 active torsions:
REMARK  status: ('A' for Active; 'I' for Inactive)
REMARK    1  A    between atoms: C_2  and  C_3 
REMARK    2  A    between atoms: C_3  and  C_4 
REMARK    3  A    between atoms: C_4  and  C_5 
REMARK    4  A    between atoms: C_5  and  C_6 
REMARK    5  A    between atoms: C_6  and  C_7 
REMARK    6  A    between atoms: C_7  and  C_8 
REMARK    7  A    between atoms: C_8  and  C_9 
REMARK    8  A    between atoms: C_9  and  C_10 
REMARK    9  A    between atoms: C_10  and  C_11 
REMARK   10  A    between atoms: C_11  and  C_12 
REMARK   11  A    between atoms: C_12  and  C_13 
REMARK   12  A    between atoms: C_14  and  C_15 
REMARK   13  A    between atoms: C_15  and  C_16 
REMARK   14  A    between atoms: C_16  and  C_17 
REMARK   15  A    between atoms: C_18  and  O_19 
REMARK   16  A    between atoms: C_24  and  C_25 
REMARK   17  A    between atoms: C_25  and  C_26 
REMARK   18  A    between atoms: C_26  and  C_27 
REMARK   19  A    between atoms: C_27  and  C_28 
REMARK   20  A    between atoms: C_28  and  C_29 
REMARK   21  A    between atoms: C_29  and  C_30 
REMARK   22  A    between atoms: C_30  and  C_31 
REMARK   23  A    between atoms: C_31  and  C_32 
REMARK   24  A    between atoms: C_32  and  C_33 
REMARK   25  A    between atoms: C_33  and  C_34 
REMARK   26  A    between atoms: C_34  and  C_35 
REMARK   27  A    between atoms: C_35  and  C_36 
REMARK   28  A    between atoms: C_36  and  C_37 
REMARK   29  A    between atoms: C_37  and  C_38 
REMARK   30  A    between atoms: C_38  and  C_39 
REMARK   31  A    between atoms: C_39  and  C_40 
REMARK   32  A    between atoms: C_40  and  O_42 
REMARK   33  A    between atoms: C_45  and  C_46 
REMARK   34  A    between atoms: C_46  and  C_47 
REMARK   35  A    between atoms: C_47  and  C_48 
REMARK   36  A    between atoms: C_48  and  C_49 
REMARK   37  A    between atoms: C_49  and  C_50 
REMARK   38  A    between atoms: C_50  and  C_51 
REMARK   39  A    between atoms: C_51  and  C_52 
REMARK   40  A    between atoms: C_52  and  C_53 
REMARK   41  A    between atoms: C_53  and  C_54 
REMARK   42  A    between atoms: C_54  and  C_55 
REMARK   43  A    between atoms: C_55  and  C_56 
REMARK   44  A    between atoms: C_56  and  C_57 
REMARK   45  A    between atoms: C_57  and  C_58 
REMARK   46  A    between atoms: C_58  and  C_59 
REMARK   47  A    between atoms: C_59  and  C_60 
REMARK   48  A    between atoms: C_60  and  C_61 
REMARK   49  A    between atoms: C_61  and  O_63 
REMARK   50  A    between atoms: O_66  and  C_67 
REMARK   51  A    between atoms: C_68  and  O_77 
REMARK   52  A    between atoms: C_69  and  O_76 
REMARK   53  A    between atoms: C_70  and  O_75 
REMARK   54  A    between atoms: C_71  and  C_73 
REMARK   55  A    between atoms: C_73  and  O_74 
REMARK   56  A    between atoms: O_83  and  C_84 
REMARK   57  A    between atoms: C_85  and  O_94 
REMARK   58  A    between atoms: C_86  and  O_93 
REMARK   59  A    between atoms: C_87  and  O_92 
REMARK   60  A    between atoms: C_88  and  C_90 
REMARK   61  A    between atoms: C_90  and  O_91 
ROOT
HETATM    1  C   UNL     2     -20.308  -5.307  -5.688  1.00  0.00     0.000 C 
ENDROOT
BRANCH   1   2
HETATM    2  C   UNL     2     -20.471  -6.756  -5.791  1.00  0.00     0.000 C 
BRANCH   2   3
HETATM    3  C   UNL     2     -21.682  -7.045  -4.987  1.00  0.00     0.000 C 
BRANCH   3   4
HETATM    4  C   UNL     2     -21.368  -6.342  -3.736  1.00  0.00     0.000 C 
BRANCH   4   5
HETATM    5  C   UNL     2     -21.464  -7.290  -2.590  1.00  0.00     0.000 C 
BRANCH   5   6
HETATM    6  C   UNL     2     -22.268  -6.482  -1.590  1.00  0.00     0.000 C 
BRANCH   6   7
HETATM    7  C   UNL     2     -22.319  -7.226  -0.343  1.00  0.00     0.000 C 
BRANCH   7   8
HETATM    8  C   UNL     2     -22.298  -8.726  -0.739  1.00  0.00     0.000 C 
BRANCH   8   9
HETATM    9  C   UNL     2     -23.481 -10.280  -0.424  1.00  0.00    -0.000 C 
BRANCH   9  10
HETATM   10  C   UNL     2     -23.554 -12.072   0.411  1.00  0.00    -0.005 C 
HETATM   11  C   UNL     2     -23.208 -13.498   1.547  1.00  0.00     0.005 C 
ENDBRANCH   9  10
ENDBRANCH   8   9
ENDBRANCH   7   8
ENDBRANCH   6   7
ENDBRANCH   5   6
ENDBRANCH   4   5
ENDBRANCH   3   4
ENDBRANCH   2   3
ENDBRANCH   1   2
BRANCH   1  12
HETATM   12  C   UNL     2     -19.545  -4.934  -6.892  1.00  0.00     0.000 C 
BRANCH  12  13
HETATM   13  C   UNL     2     -20.597  -5.030  -7.898  1.00  0.00     0.000 C 
BRANCH  13  14
HETATM   14  C   UNL     2     -21.269  -3.722  -7.844  1.00  0.00     0.000 C 
BRANCH  14  15
HETATM   15  C   UNL     2     -22.692  -4.093  -7.908  1.00  0.00     0.001 C 
BRANCH  15  16
HETATM   16  C   UNL     2     -22.755  -4.754  -9.205  1.00  0.00     0.010 C 
BRANCH  16  17
HETATM   17  C   UNL     2     -23.155  -3.677 -10.193  1.00  0.00     0.110 C 
BRANCH  17  18
HETATM   18  C   UNL     2     -24.035  -3.959 -10.554  1.00  0.00     0.139 C 
HETATM   19  O   UNL     2     -25.126  -3.168 -10.672  1.00  0.00    -0.650 OA
BRANCH  18  20
HETATM   20  O   UNL     2     -23.687  -5.121 -10.782  1.00  0.00    -0.776 OA
HETATM   21  H   UNL     2     -23.251  -5.738 -11.791  1.00  0.00     0.167 HD
ENDBRANCH  18  20
ENDBRANCH  17  18
ENDBRANCH  16  17
ENDBRANCH  15  16
ENDBRANCH  14  15
ENDBRANCH  13  14
ENDBRANCH  12  13
ENDBRANCH   1  12
TORSDOF 61
BEGIN_RES ARG D 557
REMARK  4 active torsions:
REMARK  status: ('A' for Active; 'I' for Inactive)
REMARK    1  A    between atoms: CA   and  CB  
REMARK    2  A    between atoms: CB   and  CG  
REMARK    3  A    between atoms: CG   and  CD  
REMARK    4  A    between atoms: CD   and  NE  
REMARK       I    between atoms: NE   and  CZ  
REMARK       I    between atoms: CZ   and  NH1 
REMARK       I    between atoms: CZ   and  NH2 
ROOT
ATOM      1  CA  ARG D 557     -26.217   2.705 -17.014  1.00 35.49     0.159 C 
ENDROOT
BRANCH   1   2
ATOM      2  CB  ARG D 557     -26.789   1.319 -17.183  1.00 35.49     0.034 C 
BRANCH   2   3
ATOM      3  CG  ARG D 557     -25.838   0.202 -17.138  1.00 35.49     0.027 C 
BRANCH   3   4
ATOM      4  CD  ARG D 557     -24.757   0.420 -16.150  1.00 35.49     0.116 C 
BRANCH   4   5
ATOM      5  NE  ARG D 557     -24.894  -0.432 -14.998  1.00 35.49    -0.212 N 
ATOM      6  CZ  ARG D 557     -24.070  -1.395 -14.653  1.00 35.49     0.666 C 
ATOM      7  NH1 ARG D 557     -22.999  -1.701 -15.363  1.00 35.49    -0.235 N 
ATOM      8  NH2 ARG D 557     -24.339  -2.054 -13.563  1.00 35.49    -0.235 N 
ATOM      9  HH  ARG D 557     -22.802  -1.279 -16.082  1.00 35.49     0.174 HD
ATOM     10  HH  ARG D 557     -22.496  -2.338 -15.087  1.00 35.49     0.174 HD
ATOM     11  HH  ARG D 557     -25.033  -1.830 -13.122  1.00 35.49     0.174 HD
ATOM     12  HH  ARG D 557     -23.828  -2.680 -13.306  1.00 35.49     0.174 HD
ATOM     13  HE  ARG D 557     -25.596  -0.352 -14.524  1.00 35.49     0.178 HD
ENDBRANCH   4   5
ENDBRANCH   3   4
ENDBRANCH   2   3
ENDBRANCH   1   2
END_RES ARG D 557
BEGIN_RES GLU D 570
REMARK  3 active torsions:
REMARK  status: ('A' for Active; 'I' for Inactive)
REMARK    5  A    between atoms: CA   and  CB  
REMARK    6  A    between atoms: CB   and  CG  
REMARK    7  A    between atoms: CG   and  CD  
ROOT
ATOM     14  CA  GLU D 570     -18.033  -6.348 -13.375  1.00 32.92     0.160 C 
ENDROOT
BRANCH  14  15
ATOM     15  CB  GLU D 570     -19.500  -6.345 -13.794  1.00 32.92     0.043 C 
BRANCH  15  16
ATOM     16  CG  GLU D 570     -20.435  -5.502 -13.005  1.00 32.92     0.100 C 
BRANCH  16  17
ATOM     17  CD  GLU D 570     -21.721  -5.202 -13.740  1.00 32.92     0.185 C 
ATOM     18  OE1 GLU D 570     -22.238  -4.075 -13.621  1.00 32.92    -0.647 OA
ATOM     19  OE2 GLU D 570     -22.226  -6.111 -14.430  1.00 32.92    -0.647 OA
ENDBRANCH  16  17
ENDBRANCH  15  16
ENDBRANCH  14  15
END_RES GLU D 570
ENDMDL
MODEL 2
REMARK VINA RESULT:      -6.9      2.171      3.492
REMARK WARNING: 32 MAX_TORS EXCEEDED!!!
REMARK  61 active torsions:
REMARK  status: ('A' for Active; 'I' for Inactive)
REMARK    1  A    between atoms: C_2  and  C_3 
REMARK    2  A    between atoms: C_3  and  C_4 
REMARK    3  A    between atoms: C_4  and  C_5 
REMARK    4  A    between atoms: C_5  and  C_6 
REMARK    5  A    between atoms: C_6  and  C_7 
REMARK    6  A    between atoms: C_7  and  C_8 
REMARK    7  A    between atoms: C_8  and  C_9 
REMARK    8  A    between atoms: C_9  and  C_10 
REMARK    9  A    between atoms: C_10  and  C_11 
REMARK   10  A    between atoms: C_11  and  C_12 
REMARK   11  A    between atoms: C_12  and  C_13 
REMARK   12  A    between atoms: C_14  and  C_15 
REMARK   13  A    between atoms: C_15  and  C_16 
REMARK   14  A    between atoms: C_16  and  C_17 
REMARK   15  A    between atoms: C_18  and  O_19 
REMARK   16  A    between atoms: C_24  and  C_25 
REMARK   17  A    between atoms: C_25  and  C_26 
REMARK   18  A    between atoms: C_26  and  C_27 
REMARK   19  A    between atoms: C_27  and  C_28 
REMARK   20  A    between atoms: C_28  and  C_29 
REMARK   21  A    between atoms: C_29  and  C_30 
REMARK   22  A    between atoms: C_30  and  C_31 
REMARK   23  A    between atoms: C_31  and  C_32 
REMARK   24  A    between atoms: C_32  and  C_33 
REMARK   25  A    between atoms: C_33  and  C_34 
REMARK   26  A    between atoms: C_34  and  C_35 
REMARK   27  A    between atoms: C_35  and  C_36 
REMARK   28  A    between atoms: C_36  and  C_37 
REMARK   29  A    between atoms: C_37  and  C_38 
REMARK   30  A    between atoms: C_38  and  C_39 
REMARK   31  A    between atoms: C_39  and  C_40 
REMARK   32  A    between atoms: C_40  and  O_42 
REMARK   33  A    between atoms: C_45  and  C_46 
REMARK   34  A    between atoms: C_46  and  C_47 
REMARK   35  A    between atoms: C_47  and  C_48 
REMARK   36  A    between atoms: C_48  and  C_49 
REMARK   37  A    between atoms: C_49  and  C_50 
REMARK   38  A    between atoms: C_50  and  C_51 
REMARK   39  A    between atoms: C_51  and  C_52 
REMARK   40  A    between atoms: C_52  and  C_53 
REMARK   41  A    between atoms: C_53  and  C_54 
REMARK   42  A    between atoms: C_54  and  C_55 
REMARK   43  A    between atoms: C_55  and  C_56 
REMARK   44  A    between atoms: C_56  and  C_57 
REMARK   45  A    between atoms: C_57  and  C_58 
REMARK   46  A    between atoms: C_58  and  C_59 
REMARK   47  A    between atoms: C_59  and  C_60 
REMARK   48  A    between atoms: C_60  and  C_61 
REMARK   49  A    between atoms: C_61  and  O_63 
REMARK   50  A    between atoms: O_66  and  C_67 
REMARK   51  A    between atoms: C_68  and  O_77 
REMARK   52  A    between atoms: C_69  and  O_76 
REMARK   53  A    between atoms: C_70  and  O_75 
REMARK   54  A    between atoms: C_71  and  C_73 
REMARK   55  A    between atoms: C_73  and  O_74 
REMARK   56  A    between atoms: O_83  and  C_84 
REMARK   57  A    between atoms: C_85  and  O_94 
REMARK   58  A    between atoms: C_86  and  O_93 
REMARK   59  A    between atoms: C_87  and  O_92 
REMARK   60  A    between atoms: C_88  and  C_90 
REMARK   61  A    between atoms: C_90  and  O_91 
ROOT
HETATM    1  C   UNL     2     -21.856  -4.150  -8.598  1.00  0.00     0.000 C 
ENDROOT
BRANCH   1   2
HETATM    2  C   UNL     2     -21.851  -4.502  -7.179  1.00  0.00     0.000 C 
BRANCH   2   3
HETATM    3  C   UNL     2     -20.418  -4.473  -6.801  1.00  0.00     0.000 C 
BRANCH   3   4
HETATM    4  C   UNL     2     -20.458  -5.129  -5.487  1.00  0.00     0.000 C 
BRANCH   4   5
HETATM    5  C   UNL     2     -20.446  -6.609  -5.664  1.00  0.00     0.000 C 
BRANCH   5   6
HETATM    6  C   UNL     2     -20.814  -7.088  -4.274  1.00  0.00     0.000 C 
BRANCH   6   7
HETATM    7  C   UNL     2     -21.959  -6.318  -3.818  1.00  0.00     0.000 C 
BRANCH   7   8
HETATM    8  C   UNL     2     -21.838  -6.249  -2.272  1.00  0.00     0.000 C 
BRANCH   8   9
HETATM    9  C   UNL     2     -22.355  -7.425  -0.768  1.00  0.00    -0.000 C 
BRANCH   9  10
HETATM   10  C   UNL     2     -22.876  -9.279  -0.313  1.00  0.00    -0.005 C 
HETATM   11  C   UNL     2     -23.889 -10.820  -0.104  1.00  0.00     0.005 C 
ENDBRANCH   9  10
ENDBRANCH   8   9
ENDBRANCH   7   8
ENDBRANCH   6   7
ENDBRANCH   5   6
ENDBRANCH   4   5
ENDBRANCH   3   4
ENDBRANCH   2   3
ENDBRANCH   1   2
BRANCH   1  12
HETATM   12  C   UNL     2     -20.446  -4.253  -9.009  1.00  0.00     0.000 C 
BRANCH  12  13
HETATM   13  C   UNL     2     -20.605  -4.268 -10.459  1.00  0.00     0.000 C 
BRANCH  13  14
HETATM   14  C   UNL     2     -21.995  -3.836 -10.674  1.00  0.00     0.000 C 
BRANCH  14  15
HETATM   15  C   UNL     2     -21.938  -3.237 -12.017  1.00  0.00     0.001 C 
BRANCH  15  16
HETATM   16  C   UNL     2     -23.349  -3.201 -12.374  1.00  0.00     0.010 C 
BRANCH  16  17
HETATM   17  C   UNL     2     -23.446  -2.266 -13.563  1.00  0.00     0.110 C 
BRANCH  17  18
HETATM   18  C   UNL     2     -23.783  -2.820 -14.312  1.00  0.00     0.139 C 
HETATM   19  O   UNL     2     -24.715  -3.796 -14.212  1.00  0.00    -0.650 OA
BRANCH  18  20
HETATM   20  O   UNL     2     -23.077  -2.280 -15.169  1.00  0.00    -0.776 OA
HETATM   21  H   UNL     2     -22.310  -2.692 -16.080  1.00  0.00     0.167 HD
ENDBRANCH  18  20
ENDBRANCH  17  18
ENDBRANCH  16  17
ENDBRANCH  15  16
ENDBRANCH  14  15
ENDBRANCH  13  14
ENDBRANCH  12  13
ENDBRANCH   1  12
TORSDOF 61
BEGIN_RES ARG D 557
REMARK  4 active torsions:
REMARK  status: ('A' for Active; 'I' for Inactive)
REMARK    1  A    between atoms: CA   and  CB  
REMARK    2  A    between atoms: CB   and  CG  
REMARK    3  A    between atoms: CG   and  CD  
REMARK    4  A    between atoms: CD   and  NE  
REMARK       I    between atoms: NE   and  CZ  
REMARK       I    between atoms: CZ   and  NH1 
REMARK       I    between atoms: CZ   and  NH2 
ROOT
ATOM      1  CA  ARG D 557     -26.217   2.705 -17.014  1.00 35.49     0.159 C 
ENDROOT
BRANCH   1   2
ATOM      2  CB  ARG D 557     -26.789   1.319 -17.183  1.00 35.49     0.034 C 
BRANCH   2   3
ATOM      3  CG  ARG D 557     -25.955   0.200 -16.728  1.00 35.49     0.027 C 
BRANCH   3   4
ATOM      4  CD  ARG D 557     -26.744  -0.850 -16.044  1.00 35.49     0.116 C 
BRANCH   4   5
ATOM      5  NE  ARG D 557     -27.989  -1.117 -16.715  1.00 35.49    -0.212 N 
ATOM      6  CZ  ARG D 557     -28.500  -2.306 -16.941  1.00 35.49     0.666 C 
ATOM      7  NH1 ARG D 557     -27.893  -3.420 -16.575  1.00 35.49    -0.235 N 
ATOM      8  NH2 ARG D 557     -29.651  -2.360 -17.546  1.00 35.49    -0.235 N 
ATOM      9  HH  ARG D 557     -27.136  -3.408 -16.175  1.00 35.49     0.174 HD
ATOM     10  HH  ARG D 557     -28.275  -4.167 -16.748  1.00 35.49     0.174 HD
ATOM     11  HH  ARG D 557     -30.023  -1.624 -17.764  1.00 35.49     0.174 HD
ATOM     12  HH  ARG D 557     -30.014  -3.109 -17.706  1.00 35.49     0.174 HD
ATOM     13  HE  ARG D 557     -28.411  -0.459 -17.049  1.00 35.49     0.178 HD
ENDBRANCH   4   5
ENDBRANCH   3   4
ENDBRANCH   2   3
ENDBRANCH   1   2
END_RES ARG D 557
BEGIN_RES GLU D 570
REMARK  3 active torsions:
REMARK  status: ('A' for Active; 'I' for Inactive)
REMARK    5  A    between atoms: CA   and  CB  
REMARK    6  A    between atoms: CB   and  CG  
REMARK    7  A    between atoms: CG   and  CD  
ROOT
ATOM     14  CA  GLU D 570     -18.033  -6.348 -13.375  1.00 32.92     0.160 C 
ENDROOT
BRANCH  14  15
ATOM     15  CB  GLU D 570     -19.500  -6.345 -13.794  1.00 32.92     0.043 C 
BRANCH  15  16
ATOM     16  CG  GLU D 570     -19.811  -5.961 -15.195  1.00 32.92     0.100 C 
BRANCH  16  17
ATOM     17  CD  GLU D 570     -21.257  -5.571 -15.392  1.00 32.92     0.185 C 
ATOM     18  OE1 GLU D 570     -21.584  -4.962 -16.429  1.00 32.92    -0.647 OA
ATOM     19  OE2 GLU D 570     -22.069  -5.863 -14.492  1.00 32.92    -0.647 OA
ENDBRANCH  16  17
ENDBRANCH  15  16
ENDBRANCH  14  15
END_RES GLU D 570
ENDMDL
MODEL 3
REMARK VINA RESULT:      -6.8      1.806      3.036
REMARK WARNING: 32 MAX_TORS EXCEEDED!!!
REMARK  61 active torsions:
REMARK  status: ('A' for Active; 'I' for Inactive)
REMARK    1  A    between atoms: C_2  and  C_3 
REMARK    2  A    between atoms: C_3  and  C_4 
REMARK    3  A    between atoms: C_4  and  C_5 
REMARK    4  A    between atoms: C_5  and  C_6 
REMARK    5  A    between atoms: C_6  and  C_7 
REMARK    6  A    between atoms: C_7  and  C_8 
REMARK    7  A    between atoms: C_8  and  C_9 
REMARK    8  A    between atoms: C_9  and  C_10 
REMARK    9  A    between atoms: C_10  and  C_11 
REMARK   10  A    between atoms: C_11  and  C_12 
REMARK   11  A    between atoms: C_12  and  C_13 
REMARK   12  A    between atoms: C_14  and  C_15 
REMARK   13  A    between atoms: C_15  and  C_16 
REMARK   14  A    between atoms: C_16  and  C_17 
REMARK   15  A    between atoms: C_18  and  O_19 
REMARK   16  A    between atoms: C_24  and  C_25 
REMARK   17  A    between atoms: C_25  and  C_26 
REMARK   18  A    between atoms: C_26  and  C_27 
REMARK   19  A    between atoms: C_27  and  C_28 
REMARK   20  A    between atoms: C_28  and  C_29 
REMARK   21  A    between atoms: C_29  and  C_30 
REMARK   22  A    between atoms: C_30  and  C_31 
REMARK   23  A    between atoms: C_31  and  C_32 
REMARK   24  A    between atoms: C_32  and  C_33 
REMARK   25  A    between atoms: C_33  and  C_34 
REMARK   26  A    between atoms: C_34  and  C_35 
REMARK   27  A    between atoms: C_35  and  C_36 
REMARK   28  A    between atoms: C_36  and  C_37 
REMARK   29  A    between atoms: C_37  and  C_38 
REMARK   30  A    between atoms: C_38  and  C_39 
REMARK   31  A    between atoms: C_39  and  C_40 
REMARK   32  A    between atoms: C_40  and  O_42 
REMARK   33  A    between atoms: C_45  and  C_46 
REMARK   34  A    between atoms: C_46  and  C_47 
REMARK   35  A    between atoms: C_47  and  C_48 
REMARK   36  A    between atoms: C_48  and  C_49 
REMARK   37  A    between atoms: C_49  and  C_50 
REMARK   38  A    between atoms: C_50  and  C_51 
REMARK   39  A    between atoms: C_51  and  C_52 
REMARK   40  A    between atoms: C_52  and  C_53 
REMARK   41  A    between atoms: C_53  and  C_54 
REMARK   42  A    between atoms: C_54  and  C_55 
REMARK   43  A    between atoms: C_55  and  C_56 
REMARK   44  A    between atoms: C_56  and  C_57 
REMARK   45  A    between atoms: C_57  and  C_58 
REMARK   46  A    between atoms: C_58  and  C_59 
REMARK   47  A    between atoms: C_59  and  C_60 
REMARK   48  A    between atoms: C_60  and  C_61 
REMARK   49  A    between atoms: C_61  and  O_63 
REMARK   50  A    between atoms: O_66  and  C_67 
REMARK   51  A    between atoms: C_68  and  O_77 
REMARK   52  A    between atoms: C_69  and  O_76 
REMARK   53  A    between atoms: C_70  and  O_75 
REMARK   54  A    between atoms: C_71  and  C_73 
REMARK   55  A    between atoms: C_73  and  O_74 
REMARK   56  A    between atoms: O_83  and  C_84 
REMARK   57  A    between atoms: C_85  and  O_94 
REMARK   58  A    between atoms: C_86  and  O_93 
REMARK   59  A    between atoms: C_87  and  O_92 
REMARK   60  A    between atoms: C_88  and  C_90 
REMARK   61  A    between atoms: C_90  and  O_91 
ROOT
HETATM    1  C   UNL     2     -20.447  -4.935  -9.123  1.00  0.00     0.000 C 
ENDROOT
BRANCH   1   2
HETATM    2  C   UNL     2     -20.018  -3.835  -8.261  1.00  0.00     0.000 C 
BRANCH   2   3
HETATM    3  C   UNL     2     -20.821  -4.004  -7.026  1.00  0.00     0.000 C 
BRANCH   3   4
HETATM    4  C   UNL     2     -19.900  -4.790  -6.194  1.00  0.00     0.000 C 
BRANCH   4   5
HETATM    5  C   UNL     2     -20.588  -6.020  -5.709  1.00  0.00     0.000 C 
BRANCH   5   6
HETATM    6  C   UNL     2     -20.847  -5.675  -4.256  1.00  0.00     0.000 C 
BRANCH   6   7
HETATM    7  C   UNL     2     -21.970  -6.472  -3.794  1.00  0.00     0.000 C 
BRANCH   7   8
HETATM    8  C   UNL     2     -21.972  -6.349  -2.247  1.00  0.00     0.000 C 
BRANCH   8   9
HETATM    9  C   UNL     2     -22.144  -7.616  -0.737  1.00  0.00    -0.000 C 
BRANCH   9  10
HETATM   10  C   UNL     2     -23.139  -9.206  -0.108  1.00  0.00    -0.005 C 
HETATM   11  C   UNL     2     -23.825 -10.927  -0.015  1.00  0.00     0.005 C 
ENDBRANCH   9  10
ENDBRANCH   8   9
ENDBRANCH   7   8
ENDBRANCH   6   7
ENDBRANCH   5   6
ENDBRANCH   4   5
ENDBRANCH   3   4
ENDBRANCH   2   3
ENDBRANCH   1   2
BRANCH   1  12
HETATM   12  C   UNL     2     -19.757  -4.692 -10.402  1.00  0.00     0.000 C 
BRANCH  12  13
HETATM   13  C   UNL     2     -20.571  -3.600 -10.926  1.00  0.00     0.000 C 
BRANCH  13  14
HETATM   14  C   UNL     2     -21.542  -4.265 -11.809  1.00  0.00     0.000 C 
BRANCH  14  15
HETATM   15  C   UNL     2     -22.490  -3.181 -12.111  1.00  0.00     0.001 C 
BRANCH  15  16
HETATM   16  C   UNL     2     -23.059  -2.924 -10.795  1.00  0.00     0.010 C 
BRANCH  16  17
HETATM   17  C   UNL     2     -24.072  -4.028 -10.566  1.00  0.00     0.110 C 
BRANCH  17  18
HETATM   18  C   UNL     2     -24.626  -3.728  -9.801  1.00  0.00     0.139 C 
HETATM   19  O   UNL     2     -25.839  -3.136  -9.894  1.00  0.00    -0.650 OA
BRANCH  18  20
HETATM   20  O   UNL     2     -23.823  -4.092  -8.938  1.00  0.00    -0.776 OA
HETATM   21  H   UNL     2     -23.844  -4.936  -8.001  1.00  0.00     0.167 HD
ENDBRANCH  18  20
ENDBRANCH  17  18
ENDBRANCH  16  17
ENDBRANCH  15  16
ENDBRANCH  14  15
ENDBRANCH  13  14
ENDBRANCH  12  13
ENDBRANCH   1  12
TORSDOF 61
BEGIN_RES ARG D 557
REMARK  4 active torsions:
REMARK  status: ('A' for Active; 'I' for Inactive)
REMARK    1  A    between atoms: CA   and  CB  
REMARK    2  A    between atoms: CB   and  CG  
REMARK    3  A    between atoms: CG   and  CD  
REMARK    4  A    between atoms: CD   and  NE  
REMARK       I    between atoms: NE   and  CZ  
REMARK       I    between atoms: CZ   and  NH1 
REMARK       I    between atoms: CZ   and  NH2 
ROOT
ATOM      1  CA  ARG D 557     -26.217   2.705 -17.014  1.00 35.49     0.159 C 
ENDROOT
BRANCH   1   2
ATOM      2  CB  ARG D 557     -26.789   1.319 -17.183  1.00 35.49     0.034 C 
BRANCH   2   3
ATOM      3  CG  ARG D 557     -25.958   0.200 -16.722  1.00 35.49     0.027 C 
BRANCH   3   4
ATOM      4  CD  ARG D 557     -26.760  -0.885 -16.113  1.00 35.49     0.116 C 
BRANCH   4   5
ATOM      5  NE  ARG D 557     -25.994  -1.667 -15.179  1.00 35.49    -0.212 N 
ATOM      6  CZ  ARG D 557     -26.121  -2.959 -14.973  1.00 35.49     0.666 C 
ATOM      7  NH1 ARG D 557     -27.007  -3.696 -15.617  1.00 35.49    -0.235 N 
ATOM      8  NH2 ARG D 557     -25.326  -3.509 -14.101  1.00 35.49    -0.235 N 
ATOM      9  HH  ARG D 557     -27.538  -3.356 -16.196  1.00 35.49     0.174 HD
ATOM     10  HH  ARG D 557     -27.042  -4.534 -15.443  1.00 35.49     0.174 HD
ATOM     11  HH  ARG D 557     -24.758  -3.010 -13.706  1.00 35.49     0.174 HD
ATOM     12  HH  ARG D 557     -25.375  -4.341 -13.944  1.00 35.49     0.174 HD
ATOM     13  HE  ARG D 557     -25.449  -1.259 -14.669  1.00 35.49     0.178 HD
ENDBRANCH   4   5
ENDBRANCH   3   4
ENDBRANCH   2   3
ENDBRANCH   1   2
END_RES ARG D 557
BEGIN_RES GLU D 570
REMARK  3 active torsions:
REMARK  status: ('A' for Active; 'I' for Inactive)
REMARK    5  A    between atoms: CA   and  CB  
REMARK    6  A    between atoms: CB   and  CG  
REMARK    7  A    between atoms: CG   and  CD  
ROOT
ATOM     14  CA  GLU D 570     -18.033  -6.348 -13.375  1.00 32.92     0.160 C 
ENDROOT
BRANCH  14  15
ATOM     15  CB  GLU D 570     -19.500  -6.345 -13.794  1.00 32.92     0.043 C 
BRANCH  15  16
ATOM     16  CG  GLU D 570     -19.797  -6.427 -15.248  1.00 32.92     0.100 C 
BRANCH  16  17
ATOM     17  CD  GLU D 570     -20.921  -7.385 -15.567  1.00 32.92     0.185 C 
ATOM     18  OE1 GLU D 570     -20.653  -8.586 -15.766  1.00 32.92    -0.647 OA
ATOM     19  OE2 GLU D 570     -22.078  -6.927 -15.634  1.00 32.92    -0.647 OA
ENDBRANCH  16  17
ENDBRANCH  15  16
ENDBRANCH  14  15
END_RES GLU D 570
ENDMDL
MODEL 4
REMARK VINA RESULT:      -6.8      1.602      3.616
REMARK WARNING: 32 MAX_TORS EXCEEDED!!!
REMARK  61 active torsions:
REMARK  status: ('A' for Active; 'I' for Inactive)
REMARK    1  A    between atoms: C_2  and  C_3 
REMARK    2  A    between atoms: C_3  and  C_4 
REMARK    3  A    between atoms: C_4  and  C_5 
REMARK    4  A    between atoms: C_5  and  C_6 
REMARK    5  A    between atoms: C_6  and  C_7 
REMARK    6  A    between atoms: C_7  and  C_8 
REMARK    7  A    between atoms: C_8  and  C_9 
REMARK    8  A    between atoms: C_9  and  C_10 
REMARK    9  A    between atoms: C_10  and  C_11 
REMARK   10  A    between atoms: C_11  and  C_12 
REMARK   11  A    between atoms: C_12  and  C_13 
REMARK   12  A    between atoms: C_14  and  C_15 
REMARK   13  A    between atoms: C_15  and  C_16 
REMARK   14  A    between atoms: C_16  and  C_17 
REMARK   15  A    between atoms: C_18  and  O_19 
REMARK   16  A    between atoms: C_24  and  C_25 
REMARK   17  A    between atoms: C_25  and  C_26 
REMARK   18  A    between atoms: C_26  and  C_27 
REMARK   19  A    between atoms: C_27  and  C_28 
REMARK   20  A    between atoms: C_28  and  C_29 
REMARK   21  A    between atoms: C_29  and  C_30 
REMARK   22  A    between atoms: C_30  and  C_31 
REMARK   23  A    between atoms: C_31  and  C_32 
REMARK   24  A    between atoms: C_32  and  C_33 
REMARK   25  A    between atoms: C_33  and  C_34 
REMARK   26  A    between atoms: C_34  and  C_35 
REMARK   27  A    between atoms: C_35  and  C_36 
REMARK   28  A    between atoms: C_36  and  C_37 
REMARK   29  A    between atoms: C_37  and  C_38 
REMARK   30  A    between atoms: C_38  and  C_39 
REMARK   31  A    between atoms: C_39  and  C_40 
REMARK   32  A    between atoms: C_40  and  O_42 
REMARK   33  A    between atoms: C_45  and  C_46 
REMARK   34  A    between atoms: C_46  and  C_47 
REMARK   35  A    between atoms: C_47  and  C_48 
REMARK   36  A    between atoms: C_48  and  C_49 
REMARK   37  A    between atoms: C_49  and  C_50 
REMARK   38  A    between atoms: C_50  and  C_51 
REMARK   39  A    between atoms: C_51  and  C_52 
REMARK   40  A    between atoms: C_52  and  C_53 
REMARK   41  A    between atoms: C_53  and  C_54 
REMARK   42  A    between atoms: C_54  and  C_55 
REMARK   43  A    between atoms: C_55  and  C_56 
REMARK   44  A    between atoms: C_56  and  C_57 
REMARK   45  A    between atoms: C_57  and  C_58 
REMARK   46  A    between atoms: C_58  and  C_59 
REMARK   47  A    between atoms: C_59  and  C_60 
REMARK   48  A    between atoms: C_60  and  C_61 
REMARK   49  A    between atoms: C_61  and  O_63 
REMARK   50  A    between atoms: O_66  and  C_67 
REMARK   51  A    between atoms: C_68  and  O_77 
REMARK   52  A    between atoms: C_69  and  O_76 
REMARK   53  A    between atoms: C_70  and  O_75 
REMARK   54  A    between atoms: C_71  and  C_73 
REMARK   55  A    between atoms: C_73  and  O_74 
REMARK   56  A    between atoms: O_83  and  C_84 
REMARK   57  A    between atoms: C_85  and  O_94 
REMARK   58  A    between atoms: C_86  and  O_93 
REMARK   59  A    between atoms: C_87  and  O_92 
REMARK   60  A    between atoms: C_88  and  C_90 
REMARK   61  A    between atoms: C_90  and  O_91 
ROOT
HETATM    1  C   UNL     2     -22.215  -6.282  -2.244  1.00  0.00     0.000 C 
ENDROOT
BRANCH   1   2
HETATM    2  C   UNL     2     -21.563  -7.181  -1.295  1.00  0.00     0.000 C 
BRANCH   2   3
HETATM    3  C   UNL     2     -22.621  -7.497  -0.305  1.00  0.00     0.000 C 
BRANCH   3   4
HETATM    4  C   UNL     2     -21.871  -8.308   0.664  1.00  0.00     0.000 C 
BRANCH   4   5
HETATM    5  C   UNL     2     -21.996  -9.752   0.314  1.00  0.00     0.000 C 
BRANCH   5   6
HETATM    6  C   UNL     2     -23.489  -9.884   0.086  1.00  0.00     0.000 C 
BRANCH   6   7
HETATM    7  C   UNL     2     -23.778 -11.271  -0.233  1.00  0.00     0.000 C 
BRANCH   7   8
HETATM    8  C   UNL     2     -23.685 -11.383  -1.778  1.00  0.00     0.000 C 
BRANCH   8   9
HETATM    9  C   UNL     2     -22.483 -10.653  -3.170  1.00  0.00    -0.000 C 
BRANCH   9  10
HETATM   10  C   UNL     2     -20.650  -9.979  -3.486  1.00  0.00    -0.005 C 
HETATM   11  C   UNL     2     -19.013  -9.145  -3.223  1.00  0.00     0.005 C 
ENDBRANCH   9  10
ENDBRANCH   8   9
ENDBRANCH   7   8
ENDBRANCH   6   7
ENDBRANCH   5   6
ENDBRANCH   4   5
ENDBRANCH   3   4
ENDBRANCH   2   3
ENDBRANCH   1   2
BRANCH   1  12
HETATM   12  C   UNL     2     -21.231  -6.112  -3.328  1.00  0.00     0.000 C 
BRANCH  12  13
HETATM   13  C   UNL     2     -22.021  -6.577  -4.463  1.00  0.00     0.000 C 
BRANCH  13  14
HETATM   14  C   UNL     2     -21.101  -6.479  -5.607  1.00  0.00     0.000 C 
BRANCH  14  15
HETATM   15  C   UNL     2     -20.480  -5.161  -5.404  1.00  0.00     0.001 C 
BRANCH  15  16
HETATM   16  C   UNL     2     -20.114  -4.805  -6.768  1.00  0.00     0.010 C 
BRANCH  16  17
HETATM   17  C   UNL     2     -21.260  -3.962  -7.291  1.00  0.00     0.110 C 
BRANCH  17  18
HETATM   18  C   UNL     2     -21.216  -4.034  -8.278  1.00  0.00     0.139 C 
HETATM   19  O   UNL     2     -20.164  -4.506  -8.986  1.00  0.00    -0.650 OA
BRANCH  18  20
HETATM   20  O   UNL     2     -22.349  -3.582  -8.468  1.00  0.00    -0.776 OA
HETATM   21  H   UNL     2     -23.322  -3.899  -9.204  1.00  0.00     0.167 HD
ENDBRANCH  18  20
ENDBRANCH  17  18
ENDBRANCH  16  17
ENDBRANCH  15  16
ENDBRANCH  14  15
ENDBRANCH  13  14
ENDBRANCH  12  13
ENDBRANCH   1  12
TORSDOF 61
BEGIN_RES ARG D 557
REMARK  4 active torsions:
REMARK  status: ('A' for Active; 'I' for Inactive)
REMARK    1  A    between atoms: CA   and  CB  
REMARK    2  A    between atoms: CB   and  CG  
REMARK    3  A    between atoms: CG   and  CD  
REMARK    4  A    between atoms: CD   and  NE  
REMARK       I    between atoms: NE   and  CZ  
REMARK       I    between atoms: CZ   and  NH1 
REMARK       I    between atoms: CZ   and  NH2 
ROOT
ATOM      1  CA  ARG D 557     -26.217   2.705 -17.014  1.00 35.49     0.159 C 
ENDROOT
BRANCH   1   2
ATOM      2  CB  ARG D 557     -26.789   1.319 -17.183  1.00 35.49     0.034 C 
BRANCH   2   3
ATOM      3  CG  ARG D 557     -25.862   0.195 -17.003  1.00 35.49     0.027 C 
BRANCH   3   4
ATOM      4  CD  ARG D 557     -26.278  -0.710 -15.908  1.00 35.49     0.116 C 
BRANCH   4   5
ATOM      5  NE  ARG D 557     -25.230  -0.910 -14.942  1.00 35.49    -0.212 N 
ATOM      6  CZ  ARG D 557     -24.937  -2.046 -14.350  1.00 35.49     0.666 C 
ATOM      7  NH1 ARG D 557     -25.608  -3.159 -14.581  1.00 35.49    -0.235 N 
ATOM      8  NH2 ARG D 557     -23.939  -2.048 -13.515  1.00 35.49    -0.235 N 
ATOM      9  HH  ARG D 557     -26.267  -3.182 -15.128  1.00 35.49     0.174 HD
ATOM     10  HH  ARG D 557     -25.370  -3.871 -14.168  1.00 35.49     0.174 HD
ATOM     11  HH  ARG D 557     -23.519  -1.317 -13.392  1.00 35.49     0.174 HD
ATOM     12  HH  ARG D 557     -23.717  -2.764 -13.118  1.00 35.49     0.174 HD
ATOM     13  HE  ARG D 557     -24.794  -0.229 -14.680  1.00 35.49     0.178 HD
ENDBRANCH   4   5
ENDBRANCH   3   4
ENDBRANCH   2   3
ENDBRANCH   1   2
END_RES ARG D 557
BEGIN_RES GLU D 570
REMARK  3 active torsions:
REMARK  status: ('A' for Active; 'I' for Inactive)
REMARK    5  A    between atoms: CA   and  CB  
REMARK    6  A    between atoms: CB   and  CG  
REMARK    7  A    between atoms: CG   and  CD  
ROOT
ATOM     14  CA  GLU D 570     -18.033  -6.348 -13.375  1.00 32.92     0.160 C 
ENDROOT
BRANCH  14  15
ATOM     15  CB  GLU D 570     -19.500  -6.345 -13.794  1.00 32.92     0.043 C 
BRANCH  15  16
ATOM     16  CG  GLU D 570     -20.450  -5.567 -12.957  1.00 32.92     0.100 C 
BRANCH  16  17
ATOM     17  CD  GLU D 570     -21.677  -5.122 -13.716  1.00 32.92     0.185 C 
ATOM     18  OE1 GLU D 570     -22.694  -4.786 -13.080  1.00 32.92    -0.647 OA
ATOM     19  OE2 GLU D 570     -21.627  -5.125 -14.962  1.00 32.92    -0.647 OA
ENDBRANCH  16  17
ENDBRANCH  15  16
ENDBRANCH  14  15
END_RES GLU D 570
ENDMDL
MODEL 5
REMARK VINA RESULT:      -6.7      2.745      4.866
REMARK WARNING: 32 MAX_TORS EXCEEDED!!!
REMARK  61 active torsions:
REMARK  status: ('A' for Active; 'I' for Inactive)
REMARK    1  A    between atoms: C_2  and  C_3 
REMARK    2  A    between atoms: C_3  and  C_4 
REMARK    3  A    between atoms: C_4  and  C_5 
REMARK    4  A    between atoms: C_5  and  C_6 
REMARK    5  A    between atoms: C_6  and  C_7 
REMARK    6  A    between atoms: C_7  and  C_8 
REMARK    7  A    between atoms: C_8  and  C_9 
REMARK    8  A    between atoms: C_9  and  C_10 
REMARK    9  A    between atoms: C_10  and  C_11 
REMARK   10  A    between atoms: C_11  and  C_12 
REMARK   11  A    between atoms: C_12  and  C_13 
REMARK   12  A    between atoms: C_14  and  C_15 
REMARK   13  A    between atoms: C_15  and  C_16 
REMARK   14  A    between atoms: C_16  and  C_17 
REMARK   15  A    between atoms: C_18  and  O_19 
REMARK   16  A    between atoms: C_24  and  C_25 
REMARK   17  A    between atoms: C_25  and  C_26 
REMARK   18  A    between atoms: C_26  and  C_27 
REMARK   19  A    between atoms: C_27  and  C_28 
REMARK   20  A    between atoms: C_28  and  C_29 
REMARK   21  A    between atoms: C_29  and  C_30 
REMARK   22  A    between atoms: C_30  and  C_31 
REMARK   23  A    between atoms: C_31  and  C_32 
REMARK   24  A    between atoms: C_32  and  C_33 
REMARK   25  A    between atoms: C_33  and  C_34 
REMARK   26  A    between atoms: C_34  and  C_35 
REMARK   27  A    between atoms: C_35  and  C_36 
REMARK   28  A    between atoms: C_36  and  C_37 
REMARK   29  A    between atoms: C_37  and  C_38 
REMARK   30  A    between atoms: C_38  and  C_39 
REMARK   31  A    between atoms: C_39  and  C_40 
REMARK   32  A    between atoms: C_40  and  O_42 
REMARK   33  A    between atoms: C_45  and  C_46 
REMARK   34  A    between atoms: C_46  and  C_47 
REMARK   35  A    between atoms: C_47  and  C_48 
REMARK   36  A    between atoms: C_48  and  C_49 
REMARK   37  A    between atoms: C_49  and  C_50 
REMARK   38  A    between atoms: C_50  and  C_51 
REMARK   39  A    between atoms: C_51  and  C_52 
REMARK   40  A    between atoms: C_52  and  C_53 
REMARK   41  A    between atoms: C_53  and  C_54 
REMARK   42  A    between atoms: C_54  and  C_55 
REMARK   43  A    between atoms: C_55  and  C_56 
REMARK   44  A    between atoms: C_56  and  C_57 
REMARK   45  A    between atoms: C_57  and  C_58 
REMARK   46  A    between atoms: C_58  and  C_59 
REMARK   47  A    between atoms: C_59  and  C_60 
REMARK   48  A    between atoms: C_60  and  C_61 
REMARK   49  A    between atoms: C_61  and  O_63 
REMARK   50  A    between atoms: O_66  and  C_67 
REMARK   51  A    between atoms: C_68  and  O_77 
REMARK   52  A    between atoms: C_69  and  O_76 
REMARK   53  A    between atoms: C_70  and  O_75 
REMARK   54  A    between atoms: C_71  and  C_73 
REMARK   55  A    between atoms: C_73  and  O_74 
REMARK   56  A    between atoms: O_83  and  C_84 
REMARK   57  A    between atoms: C_85  and  O_94 
REMARK   58  A    between atoms: C_86  and  O_93 
REMARK   59  A    between atoms: C_87  and  O_92 
REMARK   60  A    between atoms: C_88  and  C_90 
REMARK   61  A    between atoms: C_90  and  O_91 
ROOT
HETATM    1  C   UNL     2     -23.324  -4.845  -9.918  1.00  0.00     0.000 C 
ENDROOT
BRANCH   1   2
HETATM    2  C   UNL     2     -23.154  -3.733  -8.985  1.00  0.00     0.000 C 
BRANCH   2   3
HETATM    3  C   UNL     2     -22.541  -4.353  -7.785  1.00  0.00     0.000 C 
BRANCH   3   4
HETATM    4  C   UNL     2     -21.111  -4.176  -8.073  1.00  0.00     0.000 C 
BRANCH   4   5
HETATM    5  C   UNL     2     -20.350  -5.359  -7.577  1.00  0.00     0.000 C 
BRANCH   5   6
HETATM    6  C   UNL     2     -20.457  -5.184  -6.076  1.00  0.00     0.000 C 
BRANCH   6   7
HETATM    7  C   UNL     2     -20.510  -6.503  -5.468  1.00  0.00     0.000 C 
BRANCH   7   8
HETATM    8  C   UNL     2     -21.690  -6.462  -4.462  1.00  0.00     0.000 C 
BRANCH   8   9
HETATM    9  C   UNL     2     -21.869  -6.137  -2.518  1.00  0.00    -0.000 C 
BRANCH   9  10
HETATM   10  C   UNL     2     -22.374  -6.995  -0.808  1.00  0.00    -0.005 C 
HETATM   11  C   UNL     2     -22.380  -8.146   0.647  1.00  0.00     0.005 C 
ENDBRANCH   9  10
ENDBRANCH   8   9
ENDBRANCH   7   8
ENDBRANCH   6   7
ENDBRANCH   5   6
ENDBRANCH   4   5
ENDBRANCH   3   4
ENDBRANCH   2   3
ENDBRANCH   1   2
BRANCH   1  12
HETATM   12  C   UNL     2     -23.661  -4.204 -11.200  1.00  0.00     0.000 C 
BRANCH  12  13
HETATM   13  C   UNL     2     -22.525  -3.299 -11.337  1.00  0.00     0.000 C 
BRANCH  13  14
HETATM   14  C   UNL     2     -22.033  -3.541 -12.703  1.00  0.00     0.000 C 
BRANCH  14  15
HETATM   15  C   UNL     2     -23.271  -3.842 -13.438  1.00  0.00     0.001 C 
BRANCH  15  16
HETATM   16  C   UNL     2     -23.279  -2.778 -14.432  1.00  0.00     0.010 C 
BRANCH  16  17
HETATM   17  C   UNL     2     -24.400  -1.844 -14.022  1.00  0.00     0.110 C 
BRANCH  17  18
HETATM   18  C   UNL     2     -24.593  -1.291 -14.821  1.00  0.00     0.139 C 
HETATM   19  O   UNL     2     -23.829  -0.272 -15.275  1.00  0.00    -0.650 OA
BRANCH  18  20
HETATM   20  O   UNL     2     -25.638  -1.882 -15.109  1.00  0.00    -0.776 OA
HETATM   21  H   UNL     2     -26.715  -1.561 -15.682  1.00  0.00     0.167 HD
ENDBRANCH  18  20
ENDBRANCH  17  18
ENDBRANCH  16  17
ENDBRANCH  15  16
ENDBRANCH  14  15
ENDBRANCH  13  14
ENDBRANCH  12  13
ENDBRANCH   1  12
TORSDOF 61
BEGIN_RES ARG D 557
REMARK  4 active torsions:
REMARK  status: ('A' for Active; 'I' for Inactive)
REMARK    1  A    between atoms: CA   and  CB  
REMARK    2  A    between atoms: CB   and  CG  
REMARK    3  A    between atoms: CG   and  CD  
REMARK    4  A    between atoms: CD   and  NE  
REMARK       I    between atoms: NE   and  CZ  
REMARK       I    between atoms: CZ   and  NH1 
REMARK       I    between atoms: CZ   and  NH2 
ROOT
ATOM      1  CA  ARG D 557     -26.217   2.705 -17.014  1.00 35.49     0.159 C 
ENDROOT
BRANCH   1   2
ATOM      2  CB  ARG D 557     -26.789   1.319 -17.183  1.00 35.49     0.034 C 
BRANCH   2   3
ATOM      3  CG  ARG D 557     -28.225   1.228 -17.475  1.00 35.49     0.027 C 
BRANCH   3   4
ATOM      4  CD  ARG D 557     -28.931   0.312 -16.550  1.00 35.49     0.116 C 
BRANCH   4   5
ATOM      5  NE  ARG D 557     -28.210  -0.917 -16.349  1.00 35.49    -0.212 N 
ATOM      6  CZ  ARG D 557     -28.547  -2.094 -16.828  1.00 35.49     0.666 C 
ATOM      7  NH1 ARG D 557     -29.631  -2.277 -17.560  1.00 35.49    -0.235 N 
ATOM      8  NH2 ARG D 557     -27.763  -3.098 -16.563  1.00 35.49    -0.235 N 
ATOM      9  HH  ARG D 557     -30.160  -1.630 -17.749  1.00 35.49     0.174 HD
ATOM     10  HH  ARG D 557     -29.799  -3.066 -17.848  1.00 35.49     0.174 HD
ATOM     11  HH  ARG D 557     -27.066  -2.948 -16.094  1.00 35.49     0.174 HD
ATOM     12  HH  ARG D 557     -27.946  -3.871 -16.858  1.00 35.49     0.174 HD
ATOM     13  HE  ARG D 557     -27.537  -0.905 -15.828  1.00 35.49     0.178 HD
ENDBRANCH   4   5
ENDBRANCH   3   4
ENDBRANCH   2   3
ENDBRANCH   1   2
END_RES ARG D 557
BEGIN_RES GLU D 570
REMARK  3 active torsions:
REMARK  status: ('A' for Active; 'I' for Inactive)
REMARK    5  A    between atoms: CA   and  CB  
REMARK    6  A    between atoms: CB   and  CG  
REMARK    7  A    between atoms: CG   and  CD  
ROOT
ATOM     14  CA  GLU D 570     -18.033  -6.348 -13.375  1.00 32.92     0.160 C 
ENDROOT
BRANCH  14  15
ATOM     15  CB  GLU D 570     -19.500  -6.345 -13.794  1.00 32.92     0.043 C 
BRANCH  15  16
ATOM     16  CG  GLU D 570     -19.798  -6.205 -15.243  1.00 32.92     0.100 C 
BRANCH  16  17
ATOM     17  CD  GLU D 570     -20.747  -7.264 -15.754  1.00 32.92     0.185 C 
ATOM     18  OE1 GLU D 570     -20.647  -8.427 -15.319  1.00 32.92    -0.647 OA
ATOM     19  OE2 GLU D 570     -21.588  -6.930 -16.612  1.00 32.92    -0.647 OA
ENDBRANCH  16  17
ENDBRANCH  15  16
ENDBRANCH  14  15
END_RES GLU D 570
ENDMDL
MODEL 6
REMARK VINA RESULT:      -6.5      8.198     13.767
REMARK WARNING: 32 MAX_TORS EXCEEDED!!!
REMARK  61 active torsions:
REMARK  status: ('A' for Active; 'I' for Inactive)
REMARK    1  A    between atoms: C_2  and  C_3 
REMARK    2  A    between atoms: C_3  and  C_4 
REMARK    3  A    between atoms: C_4  and  C_5 
REMARK    4  A    between atoms: C_5  and  C_6 
REMARK    5  A    between atoms: C_6  and  C_7 
REMARK    6  A    between atoms: C_7  and  C_8 
REMARK    7  A    between atoms: C_8  and  C_9 
REMARK    8  A    between atoms: C_9  and  C_10 
REMARK    9  A    between atoms: C_10  and  C_11 
REMARK   10  A    between atoms: C_11  and  C_12 
REMARK   11  A    between atoms: C_12  and  C_13 
REMARK   12  A    between atoms: C_14  and  C_15 
REMARK   13  A    between atoms: C_15  and  C_16 
REMARK   14  A    between atoms: C_16  and  C_17 
REMARK   15  A    between atoms: C_18  and  O_19 
REMARK   16  A    between atoms: C_24  and  C_25 
REMARK   17  A    between atoms: C_25  and  C_26 
REMARK   18  A    between atoms: C_26  and  C_27 
REMARK   19  A    between atoms: C_27  and  C_28 
REMARK   20  A    between atoms: C_28  and  C_29 
REMARK   21  A    between atoms: C_29  and  C_30 
REMARK   22  A    between atoms: C_30  and  C_31 
REMARK   23  A    between atoms: C_31  and  C_32 
REMARK   24  A    between atoms: C_32  and  C_33 
REMARK   25  A    between atoms: C_33  and  C_34 
REMARK   26  A    between atoms: C_34  and  C_35 
REMARK   27  A    between atoms: C_35  and  C_36 
REMARK   28  A    between atoms: C_36  and  C_37 
REMARK   29  A    between atoms: C_37  and  C_38 
REMARK   30  A    between atoms: C_38  and  C_39 
REMARK   31  A    between atoms: C_39  and  C_40 
REMARK   32  A    between atoms: C_40  and  O_42 
REMARK   33  A    between atoms: C_45  and  C_46 
REMARK   34  A    between atoms: C_46  and  C_47 
REMARK   35  A    between atoms: C_47  and  C_48 
REMARK   36  A    between atoms: C_48  and  C_49 
REMARK   37  A    between atoms: C_49  and  C_50 
REMARK   38  A    between atoms: C_50  and  C_51 
REMARK   39  A    between atoms: C_51  and  C_52 
REMARK   40  A    between atoms: C_52  and  C_53 
REMARK   41  A    between atoms: C_53  and  C_54 
REMARK   42  A    between atoms: C_54  and  C_55 
REMARK   43  A    between atoms: C_55  and  C_56 
REMARK   44  A    between atoms: C_56  and  C_57 
REMARK   45  A    between atoms: C_57  and  C_58 
REMARK   46  A    between atoms: C_58  and  C_59 
REMARK   47  A    between atoms: C_59  and  C_60 
REMARK   48  A    between atoms: C_60  and  C_61 
REMARK   49  A    between atoms: C_61  and  O_63 
REMARK   50  A    between atoms: O_66  and  C_67 
REMARK   51  A    between atoms: C_68  and  O_77 
REMARK   52  A    between atoms: C_69  and  O_76 
REMARK   53  A    between atoms: C_70  and  O_75 
REMARK   54  A    between atoms: C_71  and  C_73 
REMARK   55  A    between atoms: C_73  and  O_74 
REMARK   56  A    between atoms: O_83  and  C_84 
REMARK   57  A    between atoms: C_85  and  O_94 
REMARK   58  A    between atoms: C_86  and  O_93 
REMARK   59  A    between atoms: C_87  and  O_92 
REMARK   60  A    between atoms: C_88  and  C_90 
REMARK   61  A    between atoms: C_90  and  O_91 
ROOT
HETATM    1  C   UNL     2     -34.808  -2.090 -12.044  1.00  0.00     0.000 C 
ENDROOT
BRANCH   1   2
HETATM    2  C   UNL     2     -35.596  -0.877 -11.833  1.00  0.00     0.000 C 
BRANCH   2   3
HETATM    3  C   UNL     2     -36.073  -0.510 -13.188  1.00  0.00     0.000 C 
BRANCH   3   4
HETATM    4  C   UNL     2     -35.017   0.414 -13.620  1.00  0.00     0.000 C 
BRANCH   4   5
HETATM    5  C   UNL     2     -35.094   0.609 -15.096  1.00  0.00     0.000 C 
BRANCH   5   6
HETATM    6  C   UNL     2     -36.188  -0.368 -15.477  1.00  0.00     0.000 C 
BRANCH   6   7
HETATM    7  C   UNL     2     -35.812  -1.005 -16.728  1.00  0.00     0.000 C 
BRANCH   7   8
HETATM    8  C   UNL     2     -34.898  -2.197 -16.342  1.00  0.00     0.000 C 
BRANCH   8   9
HETATM    9  C   UNL     2     -33.449  -3.204 -17.237  1.00  0.00    -0.000 C 
BRANCH   9  10
HETATM   10  C   UNL     2     -32.029  -4.548 -16.930  1.00  0.00    -0.005 C 
HETATM   11  C   UNL     2     -30.374  -5.307 -16.572  1.00  0.00     0.005 C 
ENDBRANCH   9  10
ENDBRANCH   8   9
ENDBRANCH   7   8
ENDBRANCH   6   7
ENDBRANCH   5   6
ENDBRANCH   4   5
ENDBRANCH   3   4
ENDBRANCH   2   3
ENDBRANCH   1   2
BRANCH   1  12
HETATM   12  C   UNL     2     -33.855  -2.112 -10.921  1.00  0.00     0.000 C 
BRANCH  12  13
HETATM   13  C   UNL     2     -32.999  -3.217 -11.337  1.00  0.00     0.000 C 
BRANCH  13  14
HETATM   14  C   UNL     2     -33.941  -4.255 -11.785  1.00  0.00     0.000 C 
BRANCH  14  15
HETATM   15  C   UNL     2     -33.331  -5.486 -11.259  1.00  0.00     0.001 C 
BRANCH  15  16
HETATM   16  C   UNL     2     -34.406  -6.002 -10.423  1.00  0.00     0.010 C 
BRANCH  16  17
HETATM   17  C   UNL     2     -34.519  -7.475 -10.765  1.00  0.00     0.110 C 
BRANCH  17  18
HETATM   18  C   UNL     2     -34.531  -7.951  -9.896  1.00  0.00     0.139 C 
HETATM   19  O   UNL     2     -33.778  -9.029  -9.580  1.00  0.00    -0.650 OA
BRANCH  18  20
HETATM   20  O   UNL     2     -35.382  -7.217  -9.385  1.00  0.00    -0.776 OA
HETATM   21  H   UNL     2     -35.499  -5.974  -9.214  1.00  0.00     0.167 HD
ENDBRANCH  18  20
ENDBRANCH  17  18
ENDBRANCH  16  17
ENDBRANCH  15  16
ENDBRANCH  14  15
ENDBRANCH  13  14
ENDBRANCH  12  13
ENDBRANCH   1  12
TORSDOF 61
BEGIN_RES ARG D 557
REMARK  4 active torsions:
REMARK  status: ('A' for Active; 'I' for Inactive)
REMARK    1  A    between atoms: CA   and  CB  
REMARK    2  A    between atoms: CB   and  CG  
REMARK    3  A    between atoms: CG   and  CD  
REMARK    4  A    between atoms: CD   and  NE  
REMARK       I    between atoms: NE   and  CZ  
REMARK       I    between atoms: CZ   and  NH1 
REMARK       I    between atoms: CZ   and  NH2 
ROOT
ATOM      1  CA  ARG D 557     -26.217   2.705 -17.014  1.00 35.49     0.159 C 
ENDROOT
BRANCH   1   2
ATOM      2  CB  ARG D 557     -26.789   1.319 -17.183  1.00 35.49     0.034 C 
BRANCH   2   3
ATOM      3  CG  ARG D 557     -25.936   0.198 -16.770  1.00 35.49     0.027 C 
BRANCH   3   4
ATOM      4  CD  ARG D 557     -26.700  -0.867 -16.079  1.00 35.49     0.116 C 
BRANCH   4   5
ATOM      5  NE  ARG D 557     -25.898  -1.568 -15.112  1.00 35.49    -0.212 N 
ATOM      6  CZ  ARG D 557     -25.966  -2.853 -14.844  1.00 35.49     0.666 C 
ATOM      7  NH1 ARG D 557     -26.819  -3.659 -15.449  1.00 35.49    -0.235 N 
ATOM      8  NH2 ARG D 557     -25.146  -3.325 -13.950  1.00 35.49    -0.235 N 
ATOM      9  HH  ARG D 557     -27.366  -3.371 -16.042  1.00 35.49     0.174 HD
ATOM     10  HH  ARG D 557     -26.817  -4.489 -15.236  1.00 35.49     0.174 HD
ATOM     11  HH  ARG D 557     -24.601  -2.782 -13.582  1.00 35.49     0.174 HD
ATOM     12  HH  ARG D 557     -25.158  -4.150 -13.754  1.00 35.49     0.174 HD
ATOM     13  HE  ARG D 557     -25.371  -1.113 -14.624  1.00 35.49     0.178 HD
ENDBRANCH   4   5
ENDBRANCH   3   4
ENDBRANCH   2   3
ENDBRANCH   1   2
END_RES ARG D 557
BEGIN_RES GLU D 570
REMARK  3 active torsions:
REMARK  status: ('A' for Active; 'I' for Inactive)
REMARK    5  A    between atoms: CA   and  CB  
REMARK    6  A    between atoms: CB   and  CG  
REMARK    7  A    between atoms: CG   and  CD  
ROOT
ATOM     14  CA  GLU D 570     -18.033  -6.348 -13.375  1.00 32.92     0.160 C 
ENDROOT
BRANCH  14  15
ATOM     15  CB  GLU D 570     -19.500  -6.345 -13.794  1.00 32.92     0.043 C 
BRANCH  15  16
ATOM     16  CG  GLU D 570     -20.441  -5.525 -12.988  1.00 32.92     0.100 C 
BRANCH  16  17
ATOM     17  CD  GLU D 570     -21.731  -5.222 -13.714  1.00 32.92     0.185 C 
ATOM     18  OE1 GLU D 570     -22.170  -6.049 -14.537  1.00 32.92    -0.647 OA
ATOM     19  OE2 GLU D 570     -22.299  -4.140 -13.470  1.00 32.92    -0.647 OA
ENDBRANCH  16  17
ENDBRANCH  15  16
ENDBRANCH  14  15
END_RES GLU D 570
ENDMDL
MODEL 7
REMARK VINA RESULT:      -6.5      2.101      2.578
REMARK WARNING: 32 MAX_TORS EXCEEDED!!!
REMARK  61 active torsions:
REMARK  status: ('A' for Active; 'I' for Inactive)
REMARK    1  A    between atoms: C_2  and  C_3 
REMARK    2  A    between atoms: C_3  and  C_4 
REMARK    3  A    between atoms: C_4  and  C_5 
REMARK    4  A    between atoms: C_5  and  C_6 
REMARK    5  A    between atoms: C_6  and  C_7 
REMARK    6  A    between atoms: C_7  and  C_8 
REMARK    7  A    between atoms: C_8  and  C_9 
REMARK    8  A    between atoms: C_9  and  C_10 
REMARK    9  A    between atoms: C_10  and  C_11 
REMARK   10  A    between atoms: C_11  and  C_12 
REMARK   11  A    between atoms: C_12  and  C_13 
REMARK   12  A    between atoms: C_14  and  C_15 
REMARK   13  A    between atoms: C_15  and  C_16 
REMARK   14  A    between atoms: C_16  and  C_17 
REMARK   15  A    between atoms: C_18  and  O_19 
REMARK   16  A    between atoms: C_24  and  C_25 
REMARK   17  A    between atoms: C_25  and  C_26 
REMARK   18  A    between atoms: C_26  and  C_27 
REMARK   19  A    between atoms: C_27  and  C_28 
REMARK   20  A    between atoms: C_28  and  C_29 
REMARK   21  A    between atoms: C_29  and  C_30 
REMARK   22  A    between atoms: C_30  and  C_31 
REMARK   23  A    between atoms: C_31  and  C_32 
REMARK   24  A    between atoms: C_32  and  C_33 
REMARK   25  A    between atoms: C_33  and  C_34 
REMARK   26  A    between atoms: C_34  and  C_35 
REMARK   27  A    between atoms: C_35  and  C_36 
REMARK   28  A    between atoms: C_36  and  C_37 
REMARK   29  A    between atoms: C_37  and  C_38 
REMARK   30  A    between atoms: C_38  and  C_39 
REMARK   31  A    between atoms: C_39  and  C_40 
REMARK   32  A    between atoms: C_40  and  O_42 
REMARK   33  A    between atoms: C_45  and  C_46 
REMARK   34  A    between atoms: C_46  and  C_47 
REMARK   35  A    between atoms: C_47  and  C_48 
REMARK   36  A    between atoms: C_48  and  C_49 
REMARK   37  A    between atoms: C_49  and  C_50 
REMARK   38  A    between atoms: C_50  and  C_51 
REMARK   39  A    between atoms: C_51  and  C_52 
REMARK   40  A    between atoms: C_52  and  C_53 
REMARK   41  A    between atoms: C_53  and  C_54 
REMARK   42  A    between atoms: C_54  and  C_55 
REMARK   43  A    between atoms: C_55  and  C_56 
REMARK   44  A    between atoms: C_56  and  C_57 
REMARK   45  A    between atoms: C_57  and  C_58 
REMARK   46  A    between atoms: C_58  and  C_59 
REMARK   47  A    between atoms: C_59  and  C_60 
REMARK   48  A    between atoms: C_60  and  C_61 
REMARK   49  A    between atoms: C_61  and  O_63 
REMARK   50  A    between atoms: O_66  and  C_67 
REMARK   51  A    between atoms: C_68  and  O_77 
REMARK   52  A    between atoms: C_69  and  O_76 
REMARK   53  A    between atoms: C_70  and  O_75 
REMARK   54  A    between atoms: C_71  and  C_73 
REMARK   55  A    between atoms: C_73  and  O_74 
REMARK   56  A    between atoms: O_83  and  C_84 
REMARK   57  A    between atoms: C_85  and  O_94 
REMARK   58  A    between atoms: C_86  and  O_93 
REMARK   59  A    between atoms: C_87  and  O_92 
REMARK   60  A    between atoms: C_88  and  C_90 
REMARK   61  A    between atoms: C_90  and  O_91 
ROOT
HETATM    1  C   UNL     2     -20.824  -5.624  -5.460  1.00  0.00     0.000 C 
ENDROOT
BRANCH   1   2
HETATM    2  C   UNL     2     -22.027  -6.333  -5.030  1.00  0.00     0.000 C 
BRANCH   2   3
HETATM    3  C   UNL     2     -21.523  -7.386  -4.115  1.00  0.00     0.000 C 
BRANCH   3   4
HETATM    4  C   UNL     2     -21.555  -6.682  -2.826  1.00  0.00     0.000 C 
BRANCH   4   5
HETATM    5  C   UNL     2     -21.212  -7.631  -1.728  1.00  0.00     0.000 C 
BRANCH   5   6
HETATM    6  C   UNL     2     -22.201  -7.225  -0.653  1.00  0.00     0.000 C 
BRANCH   6   7
HETATM    7  C   UNL     2     -22.323  -8.325   0.289  1.00  0.00     0.000 C 
BRANCH   7   8
HETATM    8  C   UNL     2     -22.785  -9.550  -0.543  1.00  0.00     0.000 C 
BRANCH   8   9
HETATM    9  C   UNL     2     -22.866 -11.504  -0.241  1.00  0.00    -0.000 C 
BRANCH   9  10
HETATM   10  C   UNL     2     -22.910 -12.888   1.172  1.00  0.00    -0.005 C 
HETATM   11  C   UNL     2     -23.528 -14.201   2.329  1.00  0.00     0.005 C 
ENDBRANCH   9  10
ENDBRANCH   8   9
ENDBRANCH   7   8
ENDBRANCH   6   7
ENDBRANCH   5   6
ENDBRANCH   4   5
ENDBRANCH   3   4
ENDBRANCH   2   3
ENDBRANCH   1   2
BRANCH   1  12
HETATM   12  C   UNL     2     -20.862  -5.690  -6.931  1.00  0.00     0.000 C 
BRANCH  12  13
HETATM   13  C   UNL     2     -20.884  -4.266  -7.248  1.00  0.00     0.000 C 
BRANCH  13  14
HETATM   14  C   UNL     2     -22.194  -4.057  -7.883  1.00  0.00     0.000 C 
BRANCH  14  15
HETATM   15  C   UNL     2     -21.859  -4.068  -9.316  1.00  0.00     0.001 C 
BRANCH  15  16
HETATM   16  C   UNL     2     -23.103  -4.553  -9.897  1.00  0.00     0.010 C 
BRANCH  16  17
HETATM   17  C   UNL     2     -24.113  -3.443  -9.684  1.00  0.00     0.110 C 
BRANCH  17  18
HETATM   18  C   UNL     2     -24.660  -3.417 -10.510  1.00  0.00     0.139 C 
HETATM   19  O   UNL     2     -24.203  -3.653 -11.762  1.00  0.00    -0.650 OA
BRANCH  18  20
HETATM   20  O   UNL     2     -25.712  -3.129  -9.933  1.00  0.00    -0.776 OA
HETATM   21  H   UNL     2     -26.219  -2.066  -9.482  1.00  0.00     0.167 HD
ENDBRANCH  18  20
ENDBRANCH  17  18
ENDBRANCH  16  17
ENDBRANCH  15  16
ENDBRANCH  14  15
ENDBRANCH  13  14
ENDBRANCH  12  13
ENDBRANCH   1  12
TORSDOF 61
BEGIN_RES ARG D 557
REMARK  4 active torsions:
REMARK  status: ('A' for Active; 'I' for Inactive)
REMARK    1  A    between atoms: CA   and  CB  
REMARK    2  A    between atoms: CB   and  CG  
REMARK    3  A    between atoms: CG   and  CD  
REMARK    4  A    between atoms: CD   and  NE  
REMARK       I    between atoms: NE   and  CZ  
REMARK       I    between atoms: CZ   and  NH1 
REMARK       I    between atoms: CZ   and  NH2 
ROOT
ATOM      1  CA  ARG D 557     -26.217   2.705 -17.014  1.00 35.49     0.159 C 
ENDROOT
BRANCH   1   2
ATOM      2  CB  ARG D 557     -26.789   1.319 -17.183  1.00 35.49     0.034 C 
BRANCH   2   3
ATOM      3  CG  ARG D 557     -28.224   1.228 -17.480  1.00 35.49     0.027 C 
BRANCH   3   4
ATOM      4  CD  ARG D 557     -28.936   0.321 -16.551  1.00 35.49     0.116 C 
BRANCH   4   5
ATOM      5  NE  ARG D 557     -29.300  -0.921 -17.179  1.00 35.49    -0.212 N 
ATOM      6  CZ  ARG D 557     -28.669  -2.066 -17.042  1.00 35.49     0.666 C 
ATOM      7  NH1 ARG D 557     -27.586  -2.194 -16.297  1.00 35.49    -0.235 N 
ATOM      8  NH2 ARG D 557     -29.153  -3.098 -17.670  1.00 35.49    -0.235 N 
ATOM      9  HH  ARG D 557     -27.252  -1.528 -15.874  1.00 35.49     0.174 HD
ATOM     10  HH  ARG D 557     -27.218  -2.965 -16.243  1.00 35.49     0.174 HD
ATOM     11  HH  ARG D 557     -29.858  -2.987 -18.138  1.00 35.49     0.174 HD
ATOM     12  HH  ARG D 557     -28.775  -3.854 -17.603  1.00 35.49     0.174 HD
ATOM     13  HE  ARG D 557     -29.944  -0.914 -17.735  1.00 35.49     0.178 HD
ENDBRANCH   4   5
ENDBRANCH   3   4
ENDBRANCH   2   3
ENDBRANCH   1   2
END_RES ARG D 557
BEGIN_RES GLU D 570
REMARK  3 active torsions:
REMARK  status: ('A' for Active; 'I' for Inactive)
REMARK    5  A    between atoms: CA   and  CB  
REMARK    6  A    between atoms: CB   and  CG  
REMARK    7  A    between atoms: CG   and  CD  
ROOT
ATOM     14  CA  GLU D 570     -18.033  -6.348 -13.375  1.00 32.92     0.160 C 
ENDROOT
BRANCH  14  15
ATOM     15  CB  GLU D 570     -19.500  -6.345 -13.794  1.00 32.92     0.043 C 
BRANCH  15  16
ATOM     16  CG  GLU D 570     -19.800  -6.152 -15.236  1.00 32.92     0.100 C 
BRANCH  16  17
ATOM     17  CD  GLU D 570     -21.258  -5.862 -15.502  1.00 32.92     0.185 C 
ATOM     18  OE1 GLU D 570     -22.103  -6.749 -15.274  1.00 32.92    -0.647 OA
ATOM     19  OE2 GLU D 570     -21.558  -4.740 -15.958  1.00 32.92    -0.647 OA
ENDBRANCH  16  17
ENDBRANCH  15  16
ENDBRANCH  14  15
END_RES GLU D 570
ENDMDL
MODEL 8
REMARK VINA RESULT:      -6.5      3.187      6.185
REMARK WARNING: 32 MAX_TORS EXCEEDED!!!
REMARK  61 active torsions:
REMARK  status: ('A' for Active; 'I' for Inactive)
REMARK    1  A    between atoms: C_2  and  C_3 
REMARK    2  A    between atoms: C_3  and  C_4 
REMARK    3  A    between atoms: C_4  and  C_5 
REMARK    4  A    between atoms: C_5  and  C_6 
REMARK    5  A    between atoms: C_6  and  C_7 
REMARK    6  A    between atoms: C_7  and  C_8 
REMARK    7  A    between atoms: C_8  and  C_9 
REMARK    8  A    between atoms: C_9  and  C_10 
REMARK    9  A    between atoms: C_10  and  C_11 
REMARK   10  A    between atoms: C_11  and  C_12 
REMARK   11  A    between atoms: C_12  and  C_13 
REMARK   12  A    between atoms: C_14  and  C_15 
REMARK   13  A    between atoms: C_15  and  C_16 
REMARK   14  A    between atoms: C_16  and  C_17 
REMARK   15  A    between atoms: C_18  and  O_19 
REMARK   16  A    between atoms: C_24  and  C_25 
REMARK   17  A    between atoms: C_25  and  C_26 
REMARK   18  A    between atoms: C_26  and  C_27 
REMARK   19  A    between atoms: C_27  and  C_28 
REMARK   20  A    between atoms: C_28  and  C_29 
REMARK   21  A    between atoms: C_29  and  C_30 
REMARK   22  A    between atoms: C_30  and  C_31 
REMARK   23  A    between atoms: C_31  and  C_32 
REMARK   24  A    between atoms: C_32  and  C_33 
REMARK   25  A    between atoms: C_33  and  C_34 
REMARK   26  A    between atoms: C_34  and  C_35 
REMARK   27  A    between atoms: C_35  and  C_36 
REMARK   28  A    between atoms: C_36  and  C_37 
REMARK   29  A    between atoms: C_37  and  C_38 
REMARK   30  A    between atoms: C_38  and  C_39 
REMARK   31  A    between atoms: C_39  and  C_40 
REMARK   32  A    between atoms: C_40  and  O_42 
REMARK   33  A    between atoms: C_45  and  C_46 
REMARK   34  A    between atoms: C_46  and  C_47 
REMARK   35  A    between atoms: C_47  and  C_48 
REMARK   36  A    between atoms: C_48  and  C_49 
REMARK   37  A    between atoms: C_49  and  C_50 
REMARK   38  A    between atoms: C_50  and  C_51 
REMARK   39  A    between atoms: C_51  and  C_52 
REMARK   40  A    between atoms: C_52  and  C_53 
REMARK   41  A    between atoms: C_53  and  C_54 
REMARK   42  A    between atoms: C_54  and  C_55 
REMARK   43  A    between atoms: C_55  and  C_56 
REMARK   44  A    between atoms: C_56  and  C_57 
REMARK   45  A    between atoms: C_57  and  C_58 
REMARK   46  A    between atoms: C_58  and  C_59 
REMARK   47  A    between atoms: C_59  and  C_60 
REMARK   48  A    between atoms: C_60  and  C_61 
REMARK   49  A    between atoms: C_61  and  O_63 
REMARK   50  A    between atoms: O_66  and  C_67 
REMARK   51  A    between atoms: C_68  and  O_77 
REMARK   52  A    between atoms: C_69  and  O_76 
REMARK   53  A    between atoms: C_70  and  O_75 
REMARK   54  A    between atoms: C_71  and  C_73 
REMARK   55  A    between atoms: C_73  and  O_74 
REMARK   56  A    between atoms: O_83  and  C_84 
REMARK   57  A    between atoms: C_85  and  O_94 
REMARK   58  A    between atoms: C_86  and  O_93 
REMARK   59  A    between atoms: C_87  and  O_92 
REMARK   60  A    between atoms: C_88  and  C_90 
REMARK   61  A    between atoms: C_90  and  O_91 
ROOT
HETATM    1  C   UNL     2     -23.420  -4.248 -12.224  1.00  0.00     0.000 C 
ENDROOT
BRANCH   1   2
HETATM    2  C   UNL     2     -22.716  -3.169 -11.534  1.00  0.00     0.000 C 
BRANCH   2   3
HETATM    3  C   UNL     2     -22.441  -3.717 -10.184  1.00  0.00     0.000 C 
BRANCH   3   4
HETATM    4  C   UNL     2     -21.015  -4.051 -10.297  1.00  0.00     0.000 C 
BRANCH   4   5
HETATM    5  C   UNL     2     -20.516  -4.572  -8.993  1.00  0.00     0.000 C 
BRANCH   5   6
HETATM    6  C   UNL     2     -21.614  -4.130  -8.046  1.00  0.00     0.000 C 
BRANCH   6   7
HETATM    7  C   UNL     2     -21.004  -3.783  -6.774  1.00  0.00     0.000 C 
BRANCH   7   8
HETATM    8  C   UNL     2     -20.604  -5.127  -6.111  1.00  0.00     0.000 C 
BRANCH   8   9
HETATM    9  C   UNL     2     -21.323  -6.238  -4.640  1.00  0.00    -0.000 C 
BRANCH   9  10
HETATM   10  C   UNL     2     -21.657  -6.261  -2.690  1.00  0.00    -0.005 C 
HETATM   11  C   UNL     2     -22.312  -6.749  -1.024  1.00  0.00     0.005 C 
ENDBRANCH   9  10
ENDBRANCH   8   9
ENDBRANCH   7   8
ENDBRANCH   6   7
ENDBRANCH   5   6
ENDBRANCH   4   5
ENDBRANCH   3   4
ENDBRANCH   2   3
ENDBRANCH   1   2
BRANCH   1  12
HETATM   12  C   UNL     2     -22.818  -4.282 -13.568  1.00  0.00     0.000 C 
BRANCH  12  13
HETATM   13  C   UNL     2     -23.927  -4.847 -14.329  1.00  0.00     0.000 C 
BRANCH  13  14
HETATM   14  C   UNL     2     -23.694  -6.299 -14.283  1.00  0.00     0.000 C 
BRANCH  14  15
HETATM   15  C   UNL     2     -24.197  -6.743 -15.593  1.00  0.00     0.001 C 
BRANCH  15  16
HETATM   16  C   UNL     2     -25.497  -6.087 -15.636  1.00  0.00     0.010 C 
BRANCH  16  17
HETATM   17  C   UNL     2     -26.514  -7.204 -15.762  1.00  0.00     0.110 C 
BRANCH  17  18
HETATM   18  C   UNL     2     -27.400  -6.760 -15.763  1.00  0.00     0.139 C 
HETATM   19  O   UNL     2     -27.716  -5.637 -16.448  1.00  0.00    -0.650 OA
BRANCH  18  20
HETATM   20  O   UNL     2     -27.927  -7.574 -14.999  1.00  0.00    -0.776 OA
HETATM   21  H   UNL     2     -27.507  -8.517 -14.275  1.00  0.00     0.167 HD
ENDBRANCH  18  20
ENDBRANCH  17  18
ENDBRANCH  16  17
ENDBRANCH  15  16
ENDBRANCH  14  15
ENDBRANCH  13  14
ENDBRANCH  12  13
ENDBRANCH   1  12
TORSDOF 61
BEGIN_RES ARG D 557
REMARK  4 active torsions:
REMARK  status: ('A' for Active; 'I' for Inactive)
REMARK    1  A    between atoms: CA   and  CB  
REMARK    2  A    between atoms: CB   and  CG  
REMARK    3  A    between atoms: CG   and  CD  
REMARK    4  A    between atoms: CD   and  NE  
REMARK       I    between atoms: NE   and  CZ  
REMARK       I    between atoms: CZ   and  NH1 
REMARK       I    between atoms: CZ   and  NH2 
ROOT
ATOM      1  CA  ARG D 557     -26.217   2.705 -17.014  1.00 35.49     0.159 C 
ENDROOT
BRANCH   1   2
ATOM      2  CB  ARG D 557     -26.789   1.319 -17.183  1.00 35.49     0.034 C 
BRANCH   2   3
ATOM      3  CG  ARG D 557     -28.230   1.227 -17.445  1.00 35.49     0.027 C 
BRANCH   3   4
ATOM      4  CD  ARG D 557     -28.870   0.121 -16.697  1.00 35.49     0.116 C 
BRANCH   4   5
ATOM      5  NE  ARG D 557     -27.906  -0.816 -16.184  1.00 35.49    -0.212 N 
ATOM      6  CZ  ARG D 557     -27.864  -2.102 -16.454  1.00 35.49     0.666 C 
ATOM      7  NH1 ARG D 557     -28.745  -2.689 -17.243  1.00 35.49    -0.235 N 
ATOM      8  NH2 ARG D 557     -26.905  -2.797 -15.916  1.00 35.49    -0.235 N 
ATOM      9  HH  ARG D 557     -29.383  -2.250 -17.610  1.00 35.49     0.174 HD
ATOM     10  HH  ARG D 557     -28.666  -3.530 -17.386  1.00 35.49     0.174 HD
ATOM     11  HH  ARG D 557     -26.347  -2.390 -15.417  1.00 35.49     0.174 HD
ATOM     12  HH  ARG D 557     -26.843  -3.629 -16.070  1.00 35.49     0.174 HD
ATOM     13  HE  ARG D 557     -27.345  -0.537 -15.609  1.00 35.49     0.178 HD
ENDBRANCH   4   5
ENDBRANCH   3   4
ENDBRANCH   2   3
ENDBRANCH   1   2
END_RES ARG D 557
BEGIN_RES GLU D 570
REMARK  3 active torsions:
REMARK  status: ('A' for Active; 'I' for Inactive)
REMARK    5  A    between atoms: CA   and  CB  
REMARK    6  A    between atoms: CB   and  CG  
REMARK    7  A    between atoms: CG   and  CD  
ROOT
ATOM     14  CA  GLU D 570     -18.033  -6.348 -13.375  1.00 32.92     0.160 C 
ENDROOT
BRANCH  14  15
ATOM     15  CB  GLU D 570     -19.500  -6.345 -13.794  1.00 32.92     0.043 C 
BRANCH  15  16
ATOM     16  CG  GLU D 570     -19.966  -7.456 -14.664  1.00 32.92     0.100 C 
BRANCH  16  17
ATOM     17  CD  GLU D 570     -20.560  -6.975 -15.967  1.00 32.92     0.185 C 
ATOM     18  OE1 GLU D 570     -21.020  -7.811 -16.768  1.00 32.92    -0.647 OA
ATOM     19  OE2 GLU D 570     -20.549  -5.749 -16.197  1.00 32.92    -0.647 OA
ENDBRANCH  16  17
ENDBRANCH  15  16
ENDBRANCH  14  15
END_RES GLU D 570
ENDMDL
MODEL 9
REMARK VINA RESULT:      -6.4      2.836      3.913
REMARK WARNING: 32 MAX_TORS EXCEEDED!!!
REMARK  61 active torsions:
REMARK  status: ('A' for Active; 'I' for Inactive)
REMARK    1  A    between atoms: C_2  and  C_3 
REMARK    2  A    between atoms: C_3  and  C_4 
REMARK    3  A    between atoms: C_4  and  C_5 
REMARK    4  A    between atoms: C_5  and  C_6 
REMARK    5  A    between atoms: C_6  and  C_7 
REMARK    6  A    between atoms: C_7  and  C_8 
REMARK    7  A    between atoms: C_8  and  C_9 
REMARK    8  A    between atoms: C_9  and  C_10 
REMARK    9  A    between atoms: C_10  and  C_11 
REMARK   10  A    between atoms: C_11  and  C_12 
REMARK   11  A    between atoms: C_12  and  C_13 
REMARK   12  A    between atoms: C_14  and  C_15 
REMARK   13  A    between atoms: C_15  and  C_16 
REMARK   14  A    between atoms: C_16  and  C_17 
REMARK   15  A    between atoms: C_18  and  O_19 
REMARK   16  A    between atoms: C_24  and  C_25 
REMARK   17  A    between atoms: C_25  and  C_26 
REMARK   18  A    between atoms: C_26  and  C_27 
REMARK   19  A    between atoms: C_27  and  C_28 
REMARK   20  A    between atoms: C_28  and  C_29 
REMARK   21  A    between atoms: C_29  and  C_30 
REMARK   22  A    between atoms: C_30  and  C_31 
REMARK   23  A    between atoms: C_31  and  C_32 
REMARK   24  A    between atoms: C_32  and  C_33 
REMARK   25  A    between atoms: C_33  and  C_34 
REMARK   26  A    between atoms: C_34  and  C_35 
REMARK   27  A    between atoms: C_35  and  C_36 
REMARK   28  A    between atoms: C_36  and  C_37 
REMARK   29  A    between atoms: C_37  and  C_38 
REMARK   30  A    between atoms: C_38  and  C_39 
REMARK   31  A    between atoms: C_39  and  C_40 
REMARK   32  A    between atoms: C_40  and  O_42 
REMARK   33  A    between atoms: C_45  and  C_46 
REMARK   34  A    between atoms: C_46  and  C_47 
REMARK   35  A    between atoms: C_47  and  C_48 
REMARK   36  A    between atoms: C_48  and  C_49 
REMARK   37  A    between atoms: C_49  and  C_50 
REMARK   38  A    between atoms: C_50  and  C_51 
REMARK   39  A    between atoms: C_51  and  C_52 
REMARK   40  A    between atoms: C_52  and  C_53 
REMARK   41  A    between atoms: C_53  and  C_54 
REMARK   42  A    between atoms: C_54  and  C_55 
REMARK   43  A    between atoms: C_55  and  C_56 
REMARK   44  A    between atoms: C_56  and  C_57 
REMARK   45  A    between atoms: C_57  and  C_58 
REMARK   46  A    between atoms: C_58  and  C_59 
REMARK   47  A    between atoms: C_59  and  C_60 
REMARK   48  A    between atoms: C_60  and  C_61 
REMARK   49  A    between atoms: C_61  and  O_63 
REMARK   50  A    between atoms: O_66  and  C_67 
REMARK   51  A    between atoms: C_68  and  O_77 
REMARK   52  A    between atoms: C_69  and  O_76 
REMARK   53  A    between atoms: C_70  and  O_75 
REMARK   54  A    between atoms: C_71  and  C_73 
REMARK   55  A    between atoms: C_73  and  O_74 
REMARK   56  A    between atoms: O_83  and  C_84 
REMARK   57  A    between atoms: C_85  and  O_94 
REMARK   58  A    between atoms: C_86  and  O_93 
REMARK   59  A    between atoms: C_87  and  O_92 
REMARK   60  A    between atoms: C_88  and  C_90 
REMARK   61  A    between atoms: C_90  and  O_91 
ROOT
HETATM    1  C   UNL     2     -21.722  -4.568  -8.175  1.00  0.00     0.000 C 
ENDROOT
BRANCH   1   2
HETATM    2  C   UNL     2     -21.882  -5.028  -6.798  1.00  0.00     0.000 C 
BRANCH   2   3
HETATM    3  C   UNL     2     -20.589  -4.698  -6.149  1.00  0.00     0.000 C 
BRANCH   3   4
HETATM    4  C   UNL     2     -20.705  -5.444  -4.889  1.00  0.00     0.000 C 
BRANCH   4   5
HETATM    5  C   UNL     2     -21.463  -6.706  -5.120  1.00  0.00     0.000 C 
BRANCH   5   6
HETATM    6  C   UNL     2     -22.175  -6.884  -3.794  1.00  0.00     0.000 C 
BRANCH   6   7
HETATM    7  C   UNL     2     -21.305  -6.388  -2.742  1.00  0.00     0.000 C 
BRANCH   7   8
HETATM    8  C   UNL     2     -20.795  -7.642  -1.984  1.00  0.00     0.000 C 
BRANCH   8   9
HETATM    9  C   UNL     2     -19.518  -9.101  -2.379  1.00  0.00    -0.000 C 
BRANCH   9  10
HETATM   10  C   UNL     2     -17.631  -9.472  -2.845  1.00  0.00    -0.005 C 
HETATM   11  C   UNL     2     -16.087  -9.754  -3.834  1.00  0.00     0.005 C 
ENDBRANCH   9  10
ENDBRANCH   8   9
ENDBRANCH   7   8
ENDBRANCH   6   7
ENDBRANCH   5   6
ENDBRANCH   4   5
ENDBRANCH   3   4
ENDBRANCH   2   3
ENDBRANCH   1   2
BRANCH   1  12
HETATM   12  C   UNL     2     -20.288  -4.749  -8.462  1.00  0.00     0.000 C 
BRANCH  12  13
HETATM   13  C   UNL     2     -20.212  -4.127  -9.779  1.00  0.00     0.000 C 
BRANCH  13  14
HETATM   14  C   UNL     2     -21.574  -4.259 -10.320  1.00  0.00     0.000 C 
BRANCH  14  15
HETATM   15  C   UNL     2     -21.405  -3.826 -11.716  1.00  0.00     0.001 C 
BRANCH  15  16
HETATM   16  C   UNL     2     -22.511  -2.890 -11.861  1.00  0.00     0.010 C 
BRANCH  16  17
HETATM   17  C   UNL     2     -23.770  -3.721 -11.719  1.00  0.00     0.110 C 
BRANCH  17  18
HETATM   18  C   UNL     2     -24.512  -3.136 -12.019  1.00  0.00     0.139 C 
HETATM   19  O   UNL     2     -24.637  -2.596 -13.253  1.00  0.00    -0.650 OA
BRANCH  18  20
HETATM   20  O   UNL     2     -25.109  -3.159 -10.939  1.00  0.00    -0.776 OA
HETATM   21  H   UNL     2     -25.014  -2.522  -9.855  1.00  0.00     0.167 HD
ENDBRANCH  18  20
ENDBRANCH  17  18
ENDBRANCH  16  17
ENDBRANCH  15  16
ENDBRANCH  14  15
ENDBRANCH  13  14
ENDBRANCH  12  13
ENDBRANCH   1  12
TORSDOF 61
BEGIN_RES ARG D 557
REMARK  4 active torsions:
REMARK  status: ('A' for Active; 'I' for Inactive)
REMARK    1  A    between atoms: CA   and  CB  
REMARK    2  A    between atoms: CB   and  CG  
REMARK    3  A    between atoms: CG   and  CD  
REMARK    4  A    between atoms: CD   and  NE  
REMARK       I    between atoms: NE   and  CZ  
REMARK       I    between atoms: CZ   and  NH1 
REMARK       I    between atoms: CZ   and  NH2 
ROOT
ATOM      1  CA  ARG D 557     -26.217   2.705 -17.014  1.00 35.49     0.159 C 
ENDROOT
BRANCH   1   2
ATOM      2  CB  ARG D 557     -26.789   1.319 -17.183  1.00 35.49     0.034 C 
BRANCH   2   3
ATOM      3  CG  ARG D 557     -28.231   1.226 -17.439  1.00 35.49     0.027 C 
BRANCH   3   4
ATOM      4  CD  ARG D 557     -28.913   0.302 -16.504  1.00 35.49     0.116 C 
BRANCH   4   5
ATOM      5  NE  ARG D 557     -29.301  -0.927 -17.144  1.00 35.49    -0.212 N 
ATOM      6  CZ  ARG D 557     -28.673  -2.078 -17.043  1.00 35.49     0.666 C 
ATOM      7  NH1 ARG D 557     -27.572  -2.224 -16.329  1.00 35.49    -0.235 N 
ATOM      8  NH2 ARG D 557     -29.180  -3.096 -17.675  1.00 35.49    -0.235 N 
ATOM      9  HH  ARG D 557     -27.222  -1.568 -15.903  1.00 35.49     0.174 HD
ATOM     10  HH  ARG D 557     -27.208  -2.999 -16.298  1.00 35.49     0.174 HD
ATOM     11  HH  ARG D 557     -29.896  -2.973 -18.123  1.00 35.49     0.174 HD
ATOM     12  HH  ARG D 557     -28.805  -3.855 -17.631  1.00 35.49     0.174 HD
ATOM     13  HE  ARG D 557     -29.959  -0.907 -17.682  1.00 35.49     0.178 HD
ENDBRANCH   4   5
ENDBRANCH   3   4
ENDBRANCH   2   3
ENDBRANCH   1   2
END_RES ARG D 557
BEGIN_RES GLU D 570
REMARK  3 active torsions:
REMARK  status: ('A' for Active; 'I' for Inactive)
REMARK    5  A    between atoms: CA   and  CB  
REMARK    6  A    between atoms: CB   and  CG  
REMARK    7  A    between atoms: CG   and  CD  
ROOT
ATOM     14  CA  GLU D 570     -18.033  -6.348 -13.375  1.00 32.92     0.160 C 
ENDROOT
BRANCH  14  15
ATOM     15  CB  GLU D 570     -19.500  -6.345 -13.794  1.00 32.92     0.043 C 
BRANCH  15  16
ATOM     16  CG  GLU D 570     -19.798  -6.210 -15.243  1.00 32.92     0.100 C 
BRANCH  16  17
ATOM     17  CD  GLU D 570     -20.678  -7.319 -15.770  1.00 32.92     0.185 C 
ATOM     18  OE1 GLU D 570     -21.461  -7.076 -16.709  1.00 32.92    -0.647 OA
ATOM     19  OE2 GLU D 570     -20.597  -8.438 -15.227  1.00 32.92    -0.647 OA
ENDBRANCH  16  17
ENDBRANCH  15  16
ENDBRANCH  14  15
END_RES GLU D 570
ENDMDL
