MODEL 1
REMARK VINA RESULT:      -6.5      0.000      0.000
REMARK  9 active torsions:
REMARK  status: ('A' for Active; 'I' for Inactive)
REMARK    1  A    between atoms: C_1  and  C_2 
REMARK    2  A    between atoms: C_1  and  C_5 
REMARK    3  A    between atoms: C_2  and  O_4 
REMARK    4  A    between atoms: C_5  and  C_6 
REMARK    5  A    between atoms: C_5  and  C_10 
REMARK    6  A    between atoms: C_5  and  O_13 
REMARK    7  A    between atoms: C_6  and  C_7 
REMARK    8  A    between atoms: C_7  and  O_9 
REMARK    9  A    between atoms: C_10  and  O_12 
ROOT
HETATM    1  C   UNL     1     -23.586  -3.245 -12.609  1.00  0.00     0.161 C 
ENDROOT
BRANCH   1   2
HETATM    2  C   UNL     1     -22.601  -4.329 -13.073  1.00  0.00     0.159 C 
BRANCH   2   3
HETATM    3  C   UNL     1     -23.248  -5.256 -14.059  1.00  0.00     0.142 C 
HETATM    4  O   UNL     1     -23.944  -6.202 -13.708  1.00  0.00    -0.650 OA
BRANCH   3   5
HETATM    5  O   UNL     1     -23.046  -4.937 -15.348  1.00  0.00    -0.776 OA
HETATM    6  H   UNL     1     -23.444  -5.555 -15.994  1.00  0.00     0.167 HD
ENDBRANCH   3   5
ENDBRANCH   2   3
ENDBRANCH   1   2
BRANCH   1   7
HETATM    7  C   UNL     1     -24.685  -2.825 -13.589  1.00  0.00     0.159 C 
BRANCH   7   8
HETATM    8  C   UNL     1     -24.224  -1.773 -14.562  1.00  0.00     0.142 C 
HETATM    9  O   UNL     1     -23.211  -1.893 -15.235  1.00  0.00    -0.650 OA
BRANCH   8  10
HETATM   10  O   UNL     1     -25.010  -0.681 -14.612  1.00  0.00    -0.776 OA
HETATM   11  H   UNL     1     -24.773   0.055 -14.019  1.00  0.00     0.167 HD
ENDBRANCH   8  10
ENDBRANCH   7   8
ENDBRANCH   1   7
BRANCH   1  12
HETATM   12  C   UNL     1     -24.258  -3.722 -11.314  1.00  0.00     0.176 C 
HETATM   13  O   UNL     1     -25.165  -3.145 -10.739  1.00  0.00    -0.648 OA
BRANCH  12  14
HETATM   14  O   UNL     1     -23.676  -4.851 -10.836  1.00  0.00    -0.774 OA
HETATM   15  H   UNL     1     -22.711  -4.666 -10.730  1.00  0.00     0.167 HD
ENDBRANCH  12  14
ENDBRANCH   1  12
BRANCH   1  16
HETATM   16  O   UNL     1     -22.873  -2.034 -12.232  1.00  0.00    -0.378 OA
HETATM   17  H   UNL     1     -23.445  -1.557 -11.587  1.00  0.00     0.211 HD
ENDBRANCH   1  16
TORSDOF 9
BEGIN_RES ARG D 557
REMARK  4 active torsions:
REMARK  status: ('A' for Active; 'I' for Inactive)
REMARK    1  A    between atoms: CA   and  CB  
REMARK    2  A    between atoms: CB   and  CG  
REMARK    3  A    between atoms: CG   and  CD  
REMARK    4  A    between atoms: CD   and  NE  
REMARK       I    between atoms: NE   and  CZ  
REMARK       I    between atoms: CZ   and  NH1 
REMARK       I    between atoms: CZ   and  NH2 
ROOT
ATOM      1  CA  ARG D 557     -26.217   2.705 -17.014  1.00 35.49     0.159 C 
ENDROOT
BRANCH   1   2
ATOM      2  CB  ARG D 557     -26.789   1.319 -17.183  1.00 35.49     0.034 C 
BRANCH   2   3
ATOM      3  CG  ARG D 557     -28.227   1.227 -17.462  1.00 35.49     0.027 C 
BRANCH   3   4
ATOM      4  CD  ARG D 557     -28.927   0.320 -16.523  1.00 35.49     0.116 C 
BRANCH   4   5
ATOM      5  NE  ARG D 557     -29.239  -0.949 -17.127  1.00 35.49    -0.212 N 
ATOM      6  CZ  ARG D 557     -28.552  -2.059 -16.978  1.00 35.49     0.666 C 
ATOM      7  NH1 ARG D 557     -27.457  -2.123 -16.244  1.00 35.49    -0.235 N 
ATOM      8  NH2 ARG D 557     -28.993  -3.124 -17.583  1.00 35.49    -0.235 N 
ATOM      9  HH  ARG D 557     -27.149  -1.435 -15.835  1.00 35.49     0.174 HD
ATOM     10  HH  ARG D 557     -27.051  -2.875 -16.181  1.00 35.49     0.174 HD
ATOM     11  HH  ARG D 557     -29.707  -3.055 -18.045  1.00 35.49     0.174 HD
ATOM     12  HH  ARG D 557     -28.579  -3.860 -17.508  1.00 35.49     0.174 HD
ATOM     13  HE  ARG D 557     -29.888  -0.982 -17.675  1.00 35.49     0.178 HD
ENDBRANCH   4   5
ENDBRANCH   3   4
ENDBRANCH   2   3
ENDBRANCH   1   2
END_RES ARG D 557
BEGIN_RES GLU D 570
REMARK  3 active torsions:
REMARK  status: ('A' for Active; 'I' for Inactive)
REMARK    5  A    between atoms: CA   and  CB  
REMARK    6  A    between atoms: CB   and  CG  
REMARK    7  A    between atoms: CG   and  CD  
ROOT
ATOM     14  CA  GLU D 570     -18.033  -6.348 -13.375  1.00 32.92     0.160 C 
ENDROOT
BRANCH  14  15
ATOM     15  CB  GLU D 570     -19.500  -6.345 -13.794  1.00 32.92     0.043 C 
BRANCH  15  16
ATOM     16  CG  GLU D 570     -19.796  -6.285 -15.249  1.00 32.92     0.100 C 
BRANCH  16  17
ATOM     17  CD  GLU D 570     -20.686  -7.413 -15.716  1.00 32.92     0.185 C 
ATOM     18  OE1 GLU D 570     -20.547  -8.543 -15.210  1.00 32.92    -0.647 OA
ATOM     19  OE2 GLU D 570     -21.520  -7.168 -16.610  1.00 32.92    -0.647 OA
ENDBRANCH  16  17
ENDBRANCH  15  16
ENDBRANCH  14  15
END_RES GLU D 570
ENDMDL
MODEL 2
REMARK VINA RESULT:      -6.5      1.097      2.642
REMARK  9 active torsions:
REMARK  status: ('A' for Active; 'I' for Inactive)
REMARK    1  A    between atoms: C_1  and  C_2 
REMARK    2  A    between atoms: C_1  and  C_5 
REMARK    3  A    between atoms: C_2  and  O_4 
REMARK    4  A    between atoms: C_5  and  C_6 
REMARK    5  A    between atoms: C_5  and  C_10 
REMARK    6  A    between atoms: C_5  and  O_13 
REMARK    7  A    between atoms: C_6  and  C_7 
REMARK    8  A    between atoms: C_7  and  O_9 
REMARK    9  A    between atoms: C_10  and  O_12 
ROOT
HETATM    1  C   UNL     1     -23.719  -3.822 -12.773  1.00  0.00     0.161 C 
ENDROOT
BRANCH   1   2
HETATM    2  C   UNL     1     -22.952  -2.509 -12.997  1.00  0.00     0.159 C 
BRANCH   2   3
HETATM    3  C   UNL     1     -23.297  -1.907 -14.328  1.00  0.00     0.142 C 
HETATM    4  O   UNL     1     -22.787  -2.294 -15.372  1.00  0.00    -0.650 OA
BRANCH   3   5
HETATM    5  O   UNL     1     -24.241  -0.952 -14.285  1.00  0.00    -0.776 OA
HETATM    6  H   UNL     1     -24.303  -0.397 -15.089  1.00  0.00     0.167 HD
ENDBRANCH   3   5
ENDBRANCH   2   3
ENDBRANCH   1   2
BRANCH   1   7
HETATM    7  C   UNL     1     -22.993  -5.128 -13.102  1.00  0.00     0.159 C 
BRANCH   7   8
HETATM    8  C   UNL     1     -23.462  -5.743 -14.394  1.00  0.00     0.142 C 
HETATM    9  O   UNL     1     -24.261  -6.666 -14.436  1.00  0.00    -0.650 OA
BRANCH   8  10
HETATM   10  O   UNL     1     -22.909  -5.204 -15.498  1.00  0.00    -0.776 OA
HETATM   11  H   UNL     1     -23.320  -5.437 -16.350  1.00  0.00     0.167 HD
ENDBRANCH   8  10
ENDBRANCH   7   8
ENDBRANCH   1   7
BRANCH   1  12
HETATM   12  C   UNL     1     -24.162  -3.880 -11.305  1.00  0.00     0.176 C 
HETATM   13  O   UNL     1     -25.003  -3.160 -10.795  1.00  0.00    -0.648 OA
BRANCH  12  14
HETATM   14  O   UNL     1     -23.453  -4.802 -10.605  1.00  0.00    -0.774 OA
HETATM   15  H   UNL     1     -23.092  -4.352  -9.802  1.00  0.00     0.167 HD
ENDBRANCH  12  14
ENDBRANCH   1  12
BRANCH   1  16
HETATM   16  O   UNL     1     -24.959  -3.825 -13.535  1.00  0.00    -0.378 OA
HETATM   17  H   UNL     1     -25.561  -4.468 -13.093  1.00  0.00     0.211 HD
ENDBRANCH   1  16
TORSDOF 9
BEGIN_RES ARG D 557
REMARK  4 active torsions:
REMARK  status: ('A' for Active; 'I' for Inactive)
REMARK    1  A    between atoms: CA   and  CB  
REMARK    2  A    between atoms: CB   and  CG  
REMARK    3  A    between atoms: CG   and  CD  
REMARK    4  A    between atoms: CD   and  NE  
REMARK       I    between atoms: NE   and  CZ  
REMARK       I    between atoms: CZ   and  NH1 
REMARK       I    between atoms: CZ   and  NH2 
ROOT
ATOM      1  CA  ARG D 557     -26.217   2.705 -17.014  1.00 35.49     0.159 C 
ENDROOT
BRANCH   1   2
ATOM      2  CB  ARG D 557     -26.789   1.319 -17.183  1.00 35.49     0.034 C 
BRANCH   2   3
ATOM      3  CG  ARG D 557     -28.252   1.209 -17.224  1.00 35.49     0.027 C 
BRANCH   3   4
ATOM      4  CD  ARG D 557     -28.731  -0.117 -16.769  1.00 35.49     0.116 C 
BRANCH   4   5
ATOM      5  NE  ARG D 557     -27.694  -0.874 -16.119  1.00 35.49    -0.212 N 
ATOM      6  CZ  ARG D 557     -27.523  -2.174 -16.207  1.00 35.49     0.666 C 
ATOM      7  NH1 ARG D 557     -28.324  -2.949 -16.915  1.00 35.49    -0.235 N 
ATOM      8  NH2 ARG D 557     -26.515  -2.692 -15.567  1.00 35.49    -0.235 N 
ATOM      9  HH  ARG D 557     -28.992  -2.630 -17.346  1.00 35.49     0.174 HD
ATOM     10  HH  ARG D 557     -28.162  -3.790 -16.938  1.00 35.49     0.174 HD
ATOM     11  HH  ARG D 557     -26.010  -2.166 -15.123  1.00 35.49     0.174 HD
ATOM     12  HH  ARG D 557     -26.370  -3.526 -15.602  1.00 35.49     0.174 HD
ATOM     13  HE  ARG D 557     -27.176  -0.464 -15.584  1.00 35.49     0.178 HD
ENDBRANCH   4   5
ENDBRANCH   3   4
ENDBRANCH   2   3
ENDBRANCH   1   2
END_RES ARG D 557
BEGIN_RES GLU D 570
REMARK  3 active torsions:
REMARK  status: ('A' for Active; 'I' for Inactive)
REMARK    5  A    between atoms: CA   and  CB  
REMARK    6  A    between atoms: CB   and  CG  
REMARK    7  A    between atoms: CG   and  CD  
ROOT
ATOM     14  CA  GLU D 570     -18.033  -6.348 -13.375  1.00 32.92     0.160 C 
ENDROOT
BRANCH  14  15
ATOM     15  CB  GLU D 570     -19.500  -6.345 -13.794  1.00 32.92     0.043 C 
BRANCH  15  16
ATOM     16  CG  GLU D 570     -20.102  -7.645 -14.189  1.00 32.92     0.100 C 
BRANCH  16  17
ATOM     17  CD  GLU D 570     -20.504  -7.690 -15.645  1.00 32.92     0.185 C 
ATOM     18  OE1 GLU D 570     -20.732  -8.793 -16.176  1.00 32.92    -0.647 OA
ATOM     19  OE2 GLU D 570     -20.576  -6.610 -16.265  1.00 32.92    -0.647 OA
ENDBRANCH  16  17
ENDBRANCH  15  16
ENDBRANCH  14  15
END_RES GLU D 570
ENDMDL
MODEL 3
REMARK VINA RESULT:      -6.5      4.061      5.748
REMARK  9 active torsions:
REMARK  status: ('A' for Active; 'I' for Inactive)
REMARK    1  A    between atoms: C_1  and  C_2 
REMARK    2  A    between atoms: C_1  and  C_5 
REMARK    3  A    between atoms: C_2  and  O_4 
REMARK    4  A    between atoms: C_5  and  C_6 
REMARK    5  A    between atoms: C_5  and  C_10 
REMARK    6  A    between atoms: C_5  and  O_13 
REMARK    7  A    between atoms: C_6  and  C_7 
REMARK    8  A    between atoms: C_7  and  O_9 
REMARK    9  A    between atoms: C_10  and  O_12 
ROOT
HETATM    1  C   UNL     1     -27.776  -6.305 -16.886  1.00  0.00     0.161 C 
ENDROOT
BRANCH   1   2
HETATM    2  C   UNL     1     -28.683  -6.328 -18.125  1.00  0.00     0.159 C 
BRANCH   2   3
HETATM    3  C   UNL     1     -29.767  -7.356 -17.978  1.00  0.00     0.142 C 
HETATM    4  O   UNL     1     -30.781  -7.147 -17.323  1.00  0.00    -0.650 OA
BRANCH   3   5
HETATM    5  O   UNL     1     -29.558  -8.494 -18.660  1.00  0.00    -0.776 OA
HETATM    6  H   UNL     1     -30.365  -9.012 -18.857  1.00  0.00     0.167 HD
ENDBRANCH   3   5
ENDBRANCH   2   3
ENDBRANCH   1   2
BRANCH   1   7
HETATM    7  C   UNL     1     -26.268  -6.180 -17.117  1.00  0.00     0.159 C 
BRANCH   7   8
HETATM    8  C   UNL     1     -25.466  -6.429 -15.867  1.00  0.00     0.142 C 
HETATM    9  O   UNL     1     -25.380  -7.530 -15.344  1.00  0.00    -0.650 OA
BRANCH   8  10
HETATM   10  O   UNL     1     -24.871  -5.331 -15.362  1.00  0.00    -0.776 OA
HETATM   11  H   UNL     1     -24.453  -4.727 -16.002  1.00  0.00     0.167 HD
ENDBRANCH   8  10
ENDBRANCH   7   8
ENDBRANCH   1   7
BRANCH   1  12
HETATM   12  C   UNL     1     -28.217  -5.145 -15.983  1.00  0.00     0.176 C 
HETATM   13  O   UNL     1     -27.749  -4.020 -16.004  1.00  0.00    -0.648 OA
BRANCH  12  14
HETATM   14  O   UNL     1     -29.166  -5.537 -15.095  1.00  0.00    -0.774 OA
HETATM   15  H   UNL     1     -29.203  -6.525 -15.116  1.00  0.00     0.167 HD
ENDBRANCH  12  14
ENDBRANCH   1  12
BRANCH   1  16
HETATM   16  O   UNL     1     -27.981  -7.500 -16.081  1.00  0.00    -0.378 OA
HETATM   17  H   UNL     1     -27.090  -7.792 -15.776  1.00  0.00     0.211 HD
ENDBRANCH   1  16
TORSDOF 9
BEGIN_RES ARG D 557
REMARK  4 active torsions:
REMARK  status: ('A' for Active; 'I' for Inactive)
REMARK    1  A    between atoms: CA   and  CB  
REMARK    2  A    between atoms: CB   and  CG  
REMARK    3  A    between atoms: CG   and  CD  
REMARK    4  A    between atoms: CD   and  NE  
REMARK       I    between atoms: NE   and  CZ  
REMARK       I    between atoms: CZ   and  NH1 
REMARK       I    between atoms: CZ   and  NH2 
ROOT
ATOM      1  CA  ARG D 557     -26.217   2.705 -17.014  1.00 35.49     0.159 C 
ENDROOT
BRANCH   1   2
ATOM      2  CB  ARG D 557     -26.789   1.319 -17.183  1.00 35.49     0.034 C 
BRANCH   2   3
ATOM      3  CG  ARG D 557     -25.862   0.195 -17.004  1.00 35.49     0.027 C 
BRANCH   3   4
ATOM      4  CD  ARG D 557     -26.219  -0.651 -15.843  1.00 35.49     0.116 C 
BRANCH   4   5
ATOM      5  NE  ARG D 557     -25.091  -0.898 -14.984  1.00 35.49    -0.212 N 
ATOM      6  CZ  ARG D 557     -24.922  -1.957 -14.223  1.00 35.49     0.666 C 
ATOM      7  NH1 ARG D 557     -25.809  -2.932 -14.157  1.00 35.49    -0.235 N 
ATOM      8  NH2 ARG D 557     -23.826  -2.025 -13.524  1.00 35.49    -0.235 N 
ATOM      9  HH  ARG D 557     -26.536  -2.909 -14.610  1.00 35.49     0.174 HD
ATOM     10  HH  ARG D 557     -25.644  -3.599 -13.645  1.00 35.49     0.174 HD
ATOM     11  HH  ARG D 557     -23.267  -1.384 -13.593  1.00 35.49     0.174 HD
ATOM     12  HH  ARG D 557     -23.679  -2.694 -13.025  1.00 35.49     0.174 HD
ATOM     13  HE  ARG D 557     -24.504  -0.287 -14.909  1.00 35.49     0.178 HD
ENDBRANCH   4   5
ENDBRANCH   3   4
ENDBRANCH   2   3
ENDBRANCH   1   2
END_RES ARG D 557
BEGIN_RES GLU D 570
REMARK  3 active torsions:
REMARK  status: ('A' for Active; 'I' for Inactive)
REMARK    5  A    between atoms: CA   and  CB  
REMARK    6  A    between atoms: CB   and  CG  
REMARK    7  A    between atoms: CG   and  CD  
ROOT
ATOM     14  CA  GLU D 570     -18.033  -6.348 -13.375  1.00 32.92     0.160 C 
ENDROOT
BRANCH  14  15
ATOM     15  CB  GLU D 570     -19.500  -6.345 -13.794  1.00 32.92     0.043 C 
BRANCH  15  16
ATOM     16  CG  GLU D 570     -20.438  -5.515 -12.995  1.00 32.92     0.100 C 
BRANCH  16  17
ATOM     17  CD  GLU D 570     -21.729  -5.219 -13.723  1.00 32.92     0.185 C 
ATOM     18  OE1 GLU D 570     -22.716  -4.830 -13.070  1.00 32.92    -0.647 OA
ATOM     19  OE2 GLU D 570     -21.757  -5.393 -14.957  1.00 32.92    -0.647 OA
ENDBRANCH  16  17
ENDBRANCH  15  16
ENDBRANCH  14  15
END_RES GLU D 570
ENDMDL
MODEL 4
REMARK VINA RESULT:      -6.4      4.699      6.645
REMARK  9 active torsions:
REMARK  status: ('A' for Active; 'I' for Inactive)
REMARK    1  A    between atoms: C_1  and  C_2 
REMARK    2  A    between atoms: C_1  and  C_5 
REMARK    3  A    between atoms: C_2  and  O_4 
REMARK    4  A    between atoms: C_5  and  C_6 
REMARK    5  A    between atoms: C_5  and  C_10 
REMARK    6  A    between atoms: C_5  and  O_13 
REMARK    7  A    between atoms: C_6  and  C_7 
REMARK    8  A    between atoms: C_7  and  O_9 
REMARK    9  A    between atoms: C_10  and  O_12 
ROOT
HETATM    1  C   UNL     1     -30.487  -5.484 -17.072  1.00  0.00     0.161 C 
ENDROOT
BRANCH   1   2
HETATM    2  C   UNL     1     -31.219  -6.744 -17.557  1.00  0.00     0.159 C 
BRANCH   2   3
HETATM    3  C   UNL     1     -30.242  -7.799 -17.988  1.00  0.00     0.142 C 
HETATM    4  O   UNL     1     -30.268  -8.295 -19.109  1.00  0.00    -0.650 OA
BRANCH   3   5
HETATM    5  O   UNL     1     -29.314  -8.115 -17.070  1.00  0.00    -0.776 OA
HETATM    6  H   UNL     1     -28.683  -7.398 -16.857  1.00  0.00     0.167 HD
ENDBRANCH   3   5
ENDBRANCH   2   3
ENDBRANCH   1   2
BRANCH   1   7
HETATM    7  C   UNL     1     -29.315  -4.979 -17.917  1.00  0.00     0.159 C 
BRANCH   7   8
HETATM    8  C   UNL     1     -28.053  -4.807 -17.113  1.00  0.00     0.142 C 
HETATM    9  O   UNL     1     -27.774  -3.768 -16.533  1.00  0.00    -0.650 OA
BRANCH   8  10
HETATM   10  O   UNL     1     -27.247  -5.886 -17.108  1.00  0.00    -0.776 OA
HETATM   11  H   UNL     1     -26.766  -6.076 -17.934  1.00  0.00     0.167 HD
ENDBRANCH   8  10
ENDBRANCH   7   8
ENDBRANCH   1   7
BRANCH   1  12
HETATM   12  C   UNL     1     -31.511  -4.346 -16.949  1.00  0.00     0.176 C 
HETATM   13  O   UNL     1     -31.501  -3.317 -17.602  1.00  0.00    -0.648 OA
BRANCH  12  14
HETATM   14  O   UNL     1     -32.414  -4.591 -15.965  1.00  0.00    -0.774 OA
HETATM   15  H   UNL     1     -33.011  -5.312 -16.284  1.00  0.00     0.167 HD
ENDBRANCH  12  14
ENDBRANCH   1  12
BRANCH   1  16
HETATM   16  O   UNL     1     -29.982  -5.675 -15.721  1.00  0.00    -0.378 OA
HETATM   17  H   UNL     1     -29.857  -6.645 -15.600  1.00  0.00     0.211 HD
ENDBRANCH   1  16
TORSDOF 9
BEGIN_RES ARG D 557
REMARK  4 active torsions:
REMARK  status: ('A' for Active; 'I' for Inactive)
REMARK    1  A    between atoms: CA   and  CB  
REMARK    2  A    between atoms: CB   and  CG  
REMARK    3  A    between atoms: CG   and  CD  
REMARK    4  A    between atoms: CD   and  NE  
REMARK       I    between atoms: NE   and  CZ  
REMARK       I    between atoms: CZ   and  NH1 
REMARK       I    between atoms: CZ   and  NH2 
ROOT
ATOM      1  CA  ARG D 557     -26.217   2.705 -17.014  1.00 35.49     0.159 C 
ENDROOT
BRANCH   1   2
ATOM      2  CB  ARG D 557     -26.789   1.319 -17.183  1.00 35.49     0.034 C 
BRANCH   2   3
ATOM      3  CG  ARG D 557     -25.865   0.195 -16.988  1.00 35.49     0.027 C 
BRANCH   3   4
ATOM      4  CD  ARG D 557     -26.281  -0.692 -15.877  1.00 35.49     0.116 C 
BRANCH   4   5
ATOM      5  NE  ARG D 557     -25.218  -0.912 -14.933  1.00 35.49    -0.212 N 
ATOM      6  CZ  ARG D 557     -24.924  -2.059 -14.361  1.00 35.49     0.666 C 
ATOM      7  NH1 ARG D 557     -25.609  -3.163 -14.594  1.00 35.49    -0.235 N 
ATOM      8  NH2 ARG D 557     -23.911  -2.080 -13.544  1.00 35.49    -0.235 N 
ATOM      9  HH  ARG D 557     -26.278  -3.173 -15.129  1.00 35.49     0.174 HD
ATOM     10  HH  ARG D 557     -25.370  -3.882 -14.194  1.00 35.49     0.174 HD
ATOM     11  HH  ARG D 557     -23.483  -1.353 -13.419  1.00 35.49     0.174 HD
ATOM     12  HH  ARG D 557     -23.689  -2.802 -13.160  1.00 35.49     0.174 HD
ATOM     13  HE  ARG D 557     -24.771  -0.238 -14.670  1.00 35.49     0.178 HD
ENDBRANCH   4   5
ENDBRANCH   3   4
ENDBRANCH   2   3
ENDBRANCH   1   2
END_RES ARG D 557
BEGIN_RES GLU D 570
REMARK  3 active torsions:
REMARK  status: ('A' for Active; 'I' for Inactive)
REMARK    5  A    between atoms: CA   and  CB  
REMARK    6  A    between atoms: CB   and  CG  
REMARK    7  A    between atoms: CG   and  CD  
ROOT
ATOM     14  CA  GLU D 570     -18.033  -6.348 -13.375  1.00 32.92     0.160 C 
ENDROOT
BRANCH  14  15
ATOM     15  CB  GLU D 570     -19.500  -6.345 -13.794  1.00 32.92     0.043 C 
BRANCH  15  16
ATOM     16  CG  GLU D 570     -20.448  -5.560 -12.962  1.00 32.92     0.100 C 
BRANCH  16  17
ATOM     17  CD  GLU D 570     -21.680  -5.127 -13.722  1.00 32.92     0.185 C 
ATOM     18  OE1 GLU D 570     -21.617  -5.011 -14.961  1.00 32.92    -0.647 OA
ATOM     19  OE2 GLU D 570     -22.715  -4.885 -13.069  1.00 32.92    -0.647 OA
ENDBRANCH  16  17
ENDBRANCH  15  16
ENDBRANCH  14  15
END_RES GLU D 570
ENDMDL
MODEL 5
REMARK VINA RESULT:      -6.3      1.225      2.680
REMARK  9 active torsions:
REMARK  status: ('A' for Active; 'I' for Inactive)
REMARK    1  A    between atoms: C_1  and  C_2 
REMARK    2  A    between atoms: C_1  and  C_5 
REMARK    3  A    between atoms: C_2  and  O_4 
REMARK    4  A    between atoms: C_5  and  C_6 
REMARK    5  A    between atoms: C_5  and  C_10 
REMARK    6  A    between atoms: C_5  and  O_13 
REMARK    7  A    between atoms: C_6  and  C_7 
REMARK    8  A    between atoms: C_7  and  O_9 
REMARK    9  A    between atoms: C_10  and  O_12 
ROOT
HETATM    1  C   UNL     1     -23.969  -4.116 -14.179  1.00  0.00     0.161 C 
ENDROOT
BRANCH   1   2
HETATM    2  C   UNL     1     -23.502  -5.578 -14.106  1.00  0.00     0.159 C 
BRANCH   2   3
HETATM    3  C   UNL     1     -24.167  -6.407 -15.165  1.00  0.00     0.142 C 
HETATM    4  O   UNL     1     -25.175  -7.068 -14.942  1.00  0.00    -0.650 OA
BRANCH   3   5
HETATM    5  O   UNL     1     -23.601  -6.326 -16.381  1.00  0.00    -0.776 OA
HETATM    6  H   UNL     1     -23.716  -5.465 -16.833  1.00  0.00     0.167 HD
ENDBRANCH   3   5
ENDBRANCH   2   3
ENDBRANCH   1   2
BRANCH   1   7
HETATM    7  C   UNL     1     -24.302  -3.415 -12.859  1.00  0.00     0.159 C 
BRANCH   7   8
HETATM    8  C   UNL     1     -23.371  -3.808 -11.743  1.00  0.00     0.142 C 
HETATM    9  O   UNL     1     -22.237  -3.364 -11.639  1.00  0.00    -0.650 OA
BRANCH   8  10
HETATM   10  O   UNL     1     -23.885  -4.708 -10.882  1.00  0.00    -0.776 OA
HETATM   11  H   UNL     1     -23.805  -4.500  -9.934  1.00  0.00     0.167 HD
ENDBRANCH   8  10
ENDBRANCH   7   8
ENDBRANCH   1   7
BRANCH   1  12
HETATM   12  C   UNL     1     -22.887  -3.296 -14.895  1.00  0.00     0.176 C 
HETATM   13  O   UNL     1     -22.971  -2.113 -15.175  1.00  0.00    -0.648 OA
BRANCH  12  14
HETATM   14  O   UNL     1     -21.826  -4.067 -15.245  1.00  0.00    -0.774 OA
HETATM   15  H   UNL     1     -21.736  -4.776 -14.561  1.00  0.00     0.167 HD
ENDBRANCH  12  14
ENDBRANCH   1  12
BRANCH   1  16
HETATM   16  O   UNL     1     -25.146  -3.998 -15.027  1.00  0.00    -0.378 OA
HETATM   17  H   UNL     1     -24.927  -4.443 -15.879  1.00  0.00     0.211 HD
ENDBRANCH   1  16
TORSDOF 9
BEGIN_RES ARG D 557
REMARK  4 active torsions:
REMARK  status: ('A' for Active; 'I' for Inactive)
REMARK    1  A    between atoms: CA   and  CB  
REMARK    2  A    between atoms: CB   and  CG  
REMARK    3  A    between atoms: CG   and  CD  
REMARK    4  A    between atoms: CD   and  NE  
REMARK       I    between atoms: NE   and  CZ  
REMARK       I    between atoms: CZ   and  NH1 
REMARK       I    between atoms: CZ   and  NH2 
ROOT
ATOM      1  CA  ARG D 557     -26.217   2.705 -17.014  1.00 35.49     0.159 C 
ENDROOT
BRANCH   1   2
ATOM      2  CB  ARG D 557     -26.789   1.319 -17.183  1.00 35.49     0.034 C 
BRANCH   2   3
ATOM      3  CG  ARG D 557     -28.238   1.224 -17.400  1.00 35.49     0.027 C 
BRANCH   3   4
ATOM      4  CD  ARG D 557     -28.887   0.273 -16.469  1.00 35.49     0.116 C 
BRANCH   4   5
ATOM      5  NE  ARG D 557     -29.252  -0.958 -17.120  1.00 35.49    -0.212 N 
ATOM      6  CZ  ARG D 557     -28.614  -2.102 -17.014  1.00 35.49     0.666 C 
ATOM      7  NH1 ARG D 557     -27.523  -2.240 -16.284  1.00 35.49    -0.235 N 
ATOM      8  NH2 ARG D 557     -29.100  -3.123 -17.658  1.00 35.49    -0.235 N 
ATOM      9  HH  ARG D 557     -27.186  -1.582 -15.850  1.00 35.49     0.174 HD
ATOM     10  HH  ARG D 557     -27.150  -3.011 -16.250  1.00 35.49     0.174 HD
ATOM     11  HH  ARG D 557     -29.811  -3.006 -18.116  1.00 35.49     0.174 HD
ATOM     12  HH  ARG D 557     -28.718  -3.878 -17.611  1.00 35.49     0.174 HD
ATOM     13  HE  ARG D 557     -29.902  -0.942 -17.668  1.00 35.49     0.178 HD
ENDBRANCH   4   5
ENDBRANCH   3   4
ENDBRANCH   2   3
ENDBRANCH   1   2
END_RES ARG D 557
BEGIN_RES GLU D 570
REMARK  3 active torsions:
REMARK  status: ('A' for Active; 'I' for Inactive)
REMARK    5  A    between atoms: CA   and  CB  
REMARK    6  A    between atoms: CB   and  CG  
REMARK    7  A    between atoms: CG   and  CD  
ROOT
ATOM     14  CA  GLU D 570     -18.033  -6.348 -13.375  1.00 32.92     0.160 C 
ENDROOT
BRANCH  14  15
ATOM     15  CB  GLU D 570     -19.500  -6.345 -13.794  1.00 32.92     0.043 C 
BRANCH  15  16
ATOM     16  CG  GLU D 570     -20.080  -7.629 -14.265  1.00 32.92     0.100 C 
BRANCH  16  17
ATOM     17  CD  GLU D 570     -20.700  -7.527 -15.639  1.00 32.92     0.185 C 
ATOM     18  OE1 GLU D 570     -21.316  -8.507 -16.100  1.00 32.92    -0.647 OA
ATOM     19  OE2 GLU D 570     -20.554  -6.460 -16.269  1.00 32.92    -0.647 OA
ENDBRANCH  16  17
ENDBRANCH  15  16
ENDBRANCH  14  15
END_RES GLU D 570
ENDMDL
MODEL 6
REMARK VINA RESULT:      -6.3      1.764      2.727
REMARK  9 active torsions:
REMARK  status: ('A' for Active; 'I' for Inactive)
REMARK    1  A    between atoms: C_1  and  C_2 
REMARK    2  A    between atoms: C_1  and  C_5 
REMARK    3  A    between atoms: C_2  and  O_4 
REMARK    4  A    between atoms: C_5  and  C_6 
REMARK    5  A    between atoms: C_5  and  C_10 
REMARK    6  A    between atoms: C_5  and  O_13 
REMARK    7  A    between atoms: C_6  and  C_7 
REMARK    8  A    between atoms: C_7  and  O_9 
REMARK    9  A    between atoms: C_10  and  O_12 
ROOT
HETATM    1  C   UNL     1     -23.147  -3.600 -10.883  1.00  0.00     0.161 C 
ENDROOT
BRANCH   1   2
HETATM    2  C   UNL     1     -21.930  -3.689  -9.949  1.00  0.00     0.159 C 
BRANCH   2   3
HETATM    3  C   UNL     1     -20.662  -3.859 -10.734  1.00  0.00     0.142 C 
HETATM    4  O   UNL     1     -19.955  -4.854 -10.626  1.00  0.00    -0.650 OA
BRANCH   3   5
HETATM    5  O   UNL     1     -20.395  -2.863 -11.595  1.00  0.00    -0.776 OA
HETATM    6  H   UNL     1     -19.882  -3.126 -12.385  1.00  0.00     0.167 HD
ENDBRANCH   3   5
ENDBRANCH   2   3
ENDBRANCH   1   2
BRANCH   1   7
HETATM    7  C   UNL     1     -23.356  -4.743 -11.879  1.00  0.00     0.159 C 
BRANCH   7   8
HETATM    8  C   UNL     1     -23.333  -4.276 -13.311  1.00  0.00     0.142 C 
HETATM    9  O   UNL     1     -24.350  -4.083 -13.960  1.00  0.00    -0.650 OA
BRANCH   8  10
HETATM   10  O   UNL     1     -22.098  -4.112 -13.821  1.00  0.00    -0.776 OA
HETATM   11  H   UNL     1     -21.462  -3.617 -13.273  1.00  0.00     0.167 HD
ENDBRANCH   8  10
ENDBRANCH   7   8
ENDBRANCH   1   7
BRANCH   1  12
HETATM   12  C   UNL     1     -24.411  -3.481 -10.021  1.00  0.00     0.176 C 
HETATM   13  O   UNL     1     -25.527  -3.227 -10.441  1.00  0.00    -0.648 OA
BRANCH  12  14
HETATM   14  O   UNL     1     -24.133  -3.633  -8.701  1.00  0.00    -0.774 OA
HETATM   15  H   UNL     1     -23.919  -2.738  -8.339  1.00  0.00     0.167 HD
ENDBRANCH  12  14
ENDBRANCH   1  12
BRANCH   1  16
HETATM   16  O   UNL     1     -23.108  -2.368 -11.656  1.00  0.00    -0.378 OA
HETATM   17  H   UNL     1     -22.315  -2.425 -12.240  1.00  0.00     0.211 HD
ENDBRANCH   1  16
TORSDOF 9
BEGIN_RES ARG D 557
REMARK  4 active torsions:
REMARK  status: ('A' for Active; 'I' for Inactive)
REMARK    1  A    between atoms: CA   and  CB  
REMARK    2  A    between atoms: CB   and  CG  
REMARK    3  A    between atoms: CG   and  CD  
REMARK    4  A    between atoms: CD   and  NE  
REMARK       I    between atoms: NE   and  CZ  
REMARK       I    between atoms: CZ   and  NH1 
REMARK       I    between atoms: CZ   and  NH2 
ROOT
ATOM      1  CA  ARG D 557     -26.217   2.705 -17.014  1.00 35.49     0.159 C 
ENDROOT
BRANCH   1   2
ATOM      2  CB  ARG D 557     -26.789   1.319 -17.183  1.00 35.49     0.034 C 
BRANCH   2   3
ATOM      3  CG  ARG D 557     -28.231   1.167 -16.956  1.00 35.49     0.027 C 
BRANCH   3   4
ATOM      4  CD  ARG D 557     -28.624  -0.245 -16.746  1.00 35.49     0.116 C 
BRANCH   4   5
ATOM      5  NE  ARG D 557     -27.617  -0.987 -16.034  1.00 35.49    -0.212 N 
ATOM      6  CZ  ARG D 557     -27.431  -2.287 -16.099  1.00 35.49     0.666 C 
ATOM      7  NH1 ARG D 557     -28.187  -3.075 -16.842  1.00 35.49    -0.235 N 
ATOM      8  NH2 ARG D 557     -26.455  -2.789 -15.401  1.00 35.49    -0.235 N 
ATOM      9  HH  ARG D 557     -28.834  -2.765 -17.311  1.00 35.49     0.174 HD
ATOM     10  HH  ARG D 557     -28.017  -3.915 -16.847  1.00 35.49     0.174 HD
ATOM     11  HH  ARG D 557     -25.979  -2.255 -14.937  1.00 35.49     0.174 HD
ATOM     12  HH  ARG D 557     -26.302  -3.623 -15.421  1.00 35.49     0.174 HD
ATOM     13  HE  ARG D 557     -27.132  -0.568 -15.476  1.00 35.49     0.178 HD
ENDBRANCH   4   5
ENDBRANCH   3   4
ENDBRANCH   2   3
ENDBRANCH   1   2
END_RES ARG D 557
BEGIN_RES GLU D 570
REMARK  3 active torsions:
REMARK  status: ('A' for Active; 'I' for Inactive)
REMARK    5  A    between atoms: CA   and  CB  
REMARK    6  A    between atoms: CB   and  CG  
REMARK    7  A    between atoms: CG   and  CD  
ROOT
ATOM     14  CA  GLU D 570     -18.033  -6.348 -13.375  1.00 32.92     0.160 C 
ENDROOT
BRANCH  14  15
ATOM     15  CB  GLU D 570     -19.500  -6.345 -13.794  1.00 32.92     0.043 C 
BRANCH  15  16
ATOM     16  CG  GLU D 570     -20.103  -7.646 -14.184  1.00 32.92     0.100 C 
BRANCH  16  17
ATOM     17  CD  GLU D 570     -20.963  -7.549 -15.422  1.00 32.92     0.185 C 
ATOM     18  OE1 GLU D 570     -21.779  -6.612 -15.521  1.00 32.92    -0.647 OA
ATOM     19  OE2 GLU D 570     -20.832  -8.429 -16.296  1.00 32.92    -0.647 OA
ENDBRANCH  16  17
ENDBRANCH  15  16
ENDBRANCH  14  15
END_RES GLU D 570
ENDMDL
MODEL 7
REMARK VINA RESULT:      -6.3      1.510      2.871
REMARK  9 active torsions:
REMARK  status: ('A' for Active; 'I' for Inactive)
REMARK    1  A    between atoms: C_1  and  C_2 
REMARK    2  A    between atoms: C_1  and  C_5 
REMARK    3  A    between atoms: C_2  and  O_4 
REMARK    4  A    between atoms: C_5  and  C_6 
REMARK    5  A    between atoms: C_5  and  C_10 
REMARK    6  A    between atoms: C_5  and  O_13 
REMARK    7  A    between atoms: C_6  and  C_7 
REMARK    8  A    between atoms: C_7  and  O_9 
REMARK    9  A    between atoms: C_10  and  O_12 
ROOT
HETATM    1  C   UNL     1     -23.041  -4.205 -11.623  1.00  0.00     0.161 C 
ENDROOT
BRANCH   1   2
HETATM    2  C   UNL     1     -22.968  -4.899 -12.992  1.00  0.00     0.159 C 
BRANCH   2   3
HETATM    3  C   UNL     1     -23.347  -3.954 -14.094  1.00  0.00     0.142 C 
HETATM    4  O   UNL     1     -24.491  -3.879 -14.526  1.00  0.00    -0.650 OA
BRANCH   3   5
HETATM    5  O   UNL     1     -22.348  -3.167 -14.528  1.00  0.00    -0.776 OA
HETATM    6  H   UNL     1     -22.564  -2.213 -14.574  1.00  0.00     0.167 HD
ENDBRANCH   3   5
ENDBRANCH   2   3
ENDBRANCH   1   2
BRANCH   1   7
HETATM    7  C   UNL     1     -23.962  -4.822 -10.567  1.00  0.00     0.159 C 
BRANCH   7   8
HETATM    8  C   UNL     1     -24.651  -3.784  -9.722  1.00  0.00     0.142 C 
HETATM    9  O   UNL     1     -25.682  -3.227 -10.067  1.00  0.00    -0.650 OA
BRANCH   8  10
HETATM   10  O   UNL     1     -24.023  -3.507  -8.563  1.00  0.00    -0.776 OA
HETATM   11  H   UNL     1     -23.181  -3.020  -8.629  1.00  0.00     0.167 HD
ENDBRANCH   8  10
ENDBRANCH   7   8
ENDBRANCH   1   7
BRANCH   1  12
HETATM   12  C   UNL     1     -21.623  -4.137 -11.038  1.00  0.00     0.176 C 
HETATM   13  O   UNL     1     -21.311  -4.476  -9.909  1.00  0.00    -0.648 OA
BRANCH  12  14
HETATM   14  O   UNL     1     -20.746  -3.588 -11.916  1.00  0.00    -0.774 OA
HETATM   15  H   UNL     1     -20.340  -4.327 -12.431  1.00  0.00     0.167 HD
ENDBRANCH  12  14
ENDBRANCH   1  12
BRANCH   1  16
HETATM   16  O   UNL     1     -23.445  -2.816 -11.776  1.00  0.00    -0.378 OA
HETATM   17  H   UNL     1     -24.405  -2.824 -12.003  1.00  0.00     0.211 HD
ENDBRANCH   1  16
TORSDOF 9
BEGIN_RES ARG D 557
REMARK  4 active torsions:
REMARK  status: ('A' for Active; 'I' for Inactive)
REMARK    1  A    between atoms: CA   and  CB  
REMARK    2  A    between atoms: CB   and  CG  
REMARK    3  A    between atoms: CG   and  CD  
REMARK    4  A    between atoms: CD   and  NE  
REMARK       I    between atoms: NE   and  CZ  
REMARK       I    between atoms: CZ   and  NH1 
REMARK       I    between atoms: CZ   and  NH2 
ROOT
ATOM      1  CA  ARG D 557     -26.217   2.705 -17.014  1.00 35.49     0.159 C 
ENDROOT
BRANCH   1   2
ATOM      2  CB  ARG D 557     -26.789   1.319 -17.183  1.00 35.49     0.034 C 
BRANCH   2   3
ATOM      3  CG  ARG D 557     -28.216   1.152 -16.882  1.00 35.49     0.027 C 
BRANCH   3   4
ATOM      4  CD  ARG D 557     -28.696  -0.220 -17.167  1.00 35.49     0.116 C 
BRANCH   4   5
ATOM      5  NE  ARG D 557     -27.892  -1.222 -16.518  1.00 35.49    -0.212 N 
ATOM      6  CZ  ARG D 557     -28.029  -2.522 -16.653  1.00 35.49     0.666 C 
ATOM      7  NH1 ARG D 557     -28.962  -3.061 -17.415  1.00 35.49    -0.235 N 
ATOM      8  NH2 ARG D 557     -27.196  -3.283 -16.004  1.00 35.49    -0.235 N 
ATOM      9  HH  ARG D 557     -29.519  -2.579 -17.852  1.00 35.49     0.174 HD
ATOM     10  HH  ARG D 557     -29.002  -3.916 -17.467  1.00 35.49     0.174 HD
ATOM     11  HH  ARG D 557     -26.599  -2.907 -15.525  1.00 35.49     0.174 HD
ATOM     12  HH  ARG D 557     -27.251  -4.127 -16.069  1.00 35.49     0.174 HD
ATOM     13  HE  ARG D 557     -27.313  -0.963 -15.951  1.00 35.49     0.178 HD
ENDBRANCH   4   5
ENDBRANCH   3   4
ENDBRANCH   2   3
ENDBRANCH   1   2
END_RES ARG D 557
BEGIN_RES GLU D 570
REMARK  3 active torsions:
REMARK  status: ('A' for Active; 'I' for Inactive)
REMARK    5  A    between atoms: CA   and  CB  
REMARK    6  A    between atoms: CB   and  CG  
REMARK    7  A    between atoms: CG   and  CD  
ROOT
ATOM     14  CA  GLU D 570     -18.033  -6.348 -13.375  1.00 32.92     0.160 C 
ENDROOT
BRANCH  14  15
ATOM     15  CB  GLU D 570     -19.500  -6.345 -13.794  1.00 32.92     0.043 C 
BRANCH  15  16
ATOM     16  CG  GLU D 570     -19.796  -6.391 -15.249  1.00 32.92     0.100 C 
BRANCH  16  17
ATOM     17  CD  GLU D 570     -20.820  -7.442 -15.609  1.00 32.92     0.185 C 
ATOM     18  OE1 GLU D 570     -20.430  -8.577 -15.946  1.00 32.92    -0.647 OA
ATOM     19  OE2 GLU D 570     -22.025  -7.123 -15.570  1.00 32.92    -0.647 OA
ENDBRANCH  16  17
ENDBRANCH  15  16
ENDBRANCH  14  15
END_RES GLU D 570
ENDMDL
MODEL 8
REMARK VINA RESULT:      -6.3      1.586      2.887
REMARK  9 active torsions:
REMARK  status: ('A' for Active; 'I' for Inactive)
REMARK    1  A    between atoms: C_1  and  C_2 
REMARK    2  A    between atoms: C_1  and  C_5 
REMARK    3  A    between atoms: C_2  and  O_4 
REMARK    4  A    between atoms: C_5  and  C_6 
REMARK    5  A    between atoms: C_5  and  C_10 
REMARK    6  A    between atoms: C_5  and  O_13 
REMARK    7  A    between atoms: C_6  and  C_7 
REMARK    8  A    between atoms: C_7  and  O_9 
REMARK    9  A    between atoms: C_10  and  O_12 
ROOT
HETATM    1  C   UNL     1     -23.263  -3.569 -11.880  1.00  0.00     0.161 C 
ENDROOT
BRANCH   1   2
HETATM    2  C   UNL     1     -24.080  -2.755 -12.895  1.00  0.00     0.159 C 
BRANCH   2   3
HETATM    3  C   UNL     1     -23.913  -3.304 -14.282  1.00  0.00     0.142 C 
HETATM    4  O   UNL     1     -24.684  -4.131 -14.754  1.00  0.00    -0.650 OA
BRANCH   3   5
HETATM    5  O   UNL     1     -22.887  -2.781 -14.974  1.00  0.00    -0.776 OA
HETATM    6  H   UNL     1     -22.303  -3.438 -15.405  1.00  0.00     0.167 HD
ENDBRANCH   3   5
ENDBRANCH   2   3
ENDBRANCH   1   2
BRANCH   1   7
HETATM    7  C   UNL     1     -22.079  -2.870 -11.205  1.00  0.00     0.159 C 
BRANCH   7   8
HETATM    8  C   UNL     1     -20.936  -3.809 -10.923  1.00  0.00     0.142 C 
HETATM    9  O   UNL     1     -20.893  -4.519  -9.929  1.00  0.00    -0.650 OA
BRANCH   8  10
HETATM   10  O   UNL     1     -19.956  -3.783 -11.846  1.00  0.00    -0.776 OA
HETATM   11  H   UNL     1     -20.163  -3.342 -12.690  1.00  0.00     0.167 HD
ENDBRANCH   8  10
ENDBRANCH   7   8
ENDBRANCH   1   7
BRANCH   1  12
HETATM   12  C   UNL     1     -24.212  -4.066 -10.781  1.00  0.00     0.176 C 
HETATM   13  O   UNL     1     -24.143  -5.151 -10.230  1.00  0.00    -0.648 OA
BRANCH  12  14
HETATM   14  O   UNL     1     -25.198  -3.168 -10.528  1.00  0.00    -0.774 OA
HETATM   15  H   UNL     1     -25.720  -3.509  -9.760  1.00  0.00     0.167 HD
ENDBRANCH  12  14
ENDBRANCH   1  12
BRANCH   1  16
HETATM   16  O   UNL     1     -22.742  -4.779 -12.496  1.00  0.00    -0.378 OA
HETATM   17  H   UNL     1     -21.955  -5.050 -11.969  1.00  0.00     0.211 HD
ENDBRANCH   1  16
TORSDOF 9
BEGIN_RES ARG D 557
REMARK  4 active torsions:
REMARK  status: ('A' for Active; 'I' for Inactive)
REMARK    1  A    between atoms: CA   and  CB  
REMARK    2  A    between atoms: CB   and  CG  
REMARK    3  A    between atoms: CG   and  CD  
REMARK    4  A    between atoms: CD   and  NE  
REMARK       I    between atoms: NE   and  CZ  
REMARK       I    between atoms: CZ   and  NH1 
REMARK       I    between atoms: CZ   and  NH2 
ROOT
ATOM      1  CA  ARG D 557     -26.217   2.705 -17.014  1.00 35.49     0.159 C 
ENDROOT
BRANCH   1   2
ATOM      2  CB  ARG D 557     -26.789   1.319 -17.183  1.00 35.49     0.034 C 
BRANCH   2   3
ATOM      3  CG  ARG D 557     -28.209   1.146 -16.854  1.00 35.49     0.027 C 
BRANCH   3   4
ATOM      4  CD  ARG D 557     -28.711  -0.201 -17.211  1.00 35.49     0.116 C 
BRANCH   4   5
ATOM      5  NE  ARG D 557     -27.950  -1.248 -16.581  1.00 35.49    -0.212 N 
ATOM      6  CZ  ARG D 557     -28.151  -2.538 -16.727  1.00 35.49     0.666 C 
ATOM      7  NH1 ARG D 557     -29.117  -3.024 -17.484  1.00 35.49    -0.235 N 
ATOM      8  NH2 ARG D 557     -27.350  -3.346 -16.095  1.00 35.49    -0.235 N 
ATOM      9  HH  ARG D 557     -29.655  -2.511 -17.911  1.00 35.49     0.174 HD
ATOM     10  HH  ARG D 557     -29.199  -3.875 -17.544  1.00 35.49     0.174 HD
ATOM     11  HH  ARG D 557     -26.730  -3.004 -15.619  1.00 35.49     0.174 HD
ATOM     12  HH  ARG D 557     -27.446  -4.185 -16.168  1.00 35.49     0.174 HD
ATOM     13  HE  ARG D 557     -27.353  -1.024 -16.018  1.00 35.49     0.178 HD
ENDBRANCH   4   5
ENDBRANCH   3   4
ENDBRANCH   2   3
ENDBRANCH   1   2
END_RES ARG D 557
BEGIN_RES GLU D 570
REMARK  3 active torsions:
REMARK  status: ('A' for Active; 'I' for Inactive)
REMARK    5  A    between atoms: CA   and  CB  
REMARK    6  A    between atoms: CB   and  CG  
REMARK    7  A    between atoms: CG   and  CD  
ROOT
ATOM     14  CA  GLU D 570     -18.033  -6.348 -13.375  1.00 32.92     0.160 C 
ENDROOT
BRANCH  14  15
ATOM     15  CB  GLU D 570     -19.500  -6.345 -13.794  1.00 32.92     0.043 C 
BRANCH  15  16
ATOM     16  CG  GLU D 570     -19.801  -6.113 -15.230  1.00 32.92     0.100 C 
BRANCH  16  17
ATOM     17  CD  GLU D 570     -21.261  -5.817 -15.486  1.00 32.92     0.185 C 
ATOM     18  OE1 GLU D 570     -22.125  -6.401 -14.805  1.00 32.92    -0.647 OA
ATOM     19  OE2 GLU D 570     -21.543  -5.005 -16.389  1.00 32.92    -0.647 OA
ENDBRANCH  16  17
ENDBRANCH  15  16
ENDBRANCH  14  15
END_RES GLU D 570
ENDMDL
MODEL 9
REMARK VINA RESULT:      -6.3      4.272      6.074
REMARK  9 active torsions:
REMARK  status: ('A' for Active; 'I' for Inactive)
REMARK    1  A    between atoms: C_1  and  C_2 
REMARK    2  A    between atoms: C_1  and  C_5 
REMARK    3  A    between atoms: C_2  and  O_4 
REMARK    4  A    between atoms: C_5  and  C_6 
REMARK    5  A    between atoms: C_5  and  C_10 
REMARK    6  A    between atoms: C_5  and  O_13 
REMARK    7  A    between atoms: C_6  and  C_7 
REMARK    8  A    between atoms: C_7  and  O_9 
REMARK    9  A    between atoms: C_10  and  O_12 
ROOT
HETATM    1  C   UNL     1     -29.129  -5.649 -17.328  1.00  0.00     0.161 C 
ENDROOT
BRANCH   1   2
HETATM    2  C   UNL     1     -27.718  -6.219 -17.540  1.00  0.00     0.159 C 
BRANCH   2   3
HETATM    3  C   UNL     1     -26.968  -6.294 -16.242  1.00  0.00     0.142 C 
HETATM    4  O   UNL     1     -27.087  -7.241 -15.473  1.00  0.00    -0.650 OA
BRANCH   3   5
HETATM    5  O   UNL     1     -26.125  -5.273 -16.019  1.00  0.00    -0.776 OA
HETATM    6  H   UNL     1     -25.179  -5.478 -16.165  1.00  0.00     0.167 HD
ENDBRANCH   3   5
ENDBRANCH   2   3
ENDBRANCH   1   2
BRANCH   1   7
HETATM    7  C   UNL     1     -29.628  -4.607 -18.332  1.00  0.00     0.159 C 
BRANCH   7   8
HETATM    8  C   UNL     1     -30.243  -3.407 -17.664  1.00  0.00     0.142 C 
HETATM    9  O   UNL     1     -31.416  -3.367 -17.323  1.00  0.00    -0.650 OA
BRANCH   8  10
HETATM   10  O   UNL     1     -29.398  -2.372 -17.494  1.00  0.00    -0.776 OA
HETATM   11  H   UNL     1     -28.824  -2.149 -18.249  1.00  0.00     0.167 HD
ENDBRANCH   8  10
ENDBRANCH   7   8
ENDBRANCH   1   7
BRANCH   1  12
HETATM   12  C   UNL     1     -30.126  -6.816 -17.317  1.00  0.00     0.176 C 
HETATM   13  O   UNL     1     -29.875  -7.960 -17.656  1.00  0.00    -0.648 OA
BRANCH  12  14
HETATM   14  O   UNL     1     -31.365  -6.411 -16.937  1.00  0.00    -0.774 OA
HETATM   15  H   UNL     1     -31.315  -5.441 -16.748  1.00  0.00     0.167 HD
ENDBRANCH  12  14
ENDBRANCH   1  12
BRANCH   1  16
HETATM   16  O   UNL     1     -29.244  -5.051 -16.006  1.00  0.00    -0.378 OA
HETATM   17  H   UNL     1     -29.321  -4.078 -16.142  1.00  0.00     0.211 HD
ENDBRANCH   1  16
TORSDOF 9
BEGIN_RES ARG D 557
REMARK  4 active torsions:
REMARK  status: ('A' for Active; 'I' for Inactive)
REMARK    1  A    between atoms: CA   and  CB  
REMARK    2  A    between atoms: CB   and  CG  
REMARK    3  A    between atoms: CG   and  CD  
REMARK    4  A    between atoms: CD   and  NE  
REMARK       I    between atoms: NE   and  CZ  
REMARK       I    between atoms: CZ   and  NH1 
REMARK       I    between atoms: CZ   and  NH2 
ROOT
ATOM      1  CA  ARG D 557     -26.217   2.705 -17.014  1.00 35.49     0.159 C 
ENDROOT
BRANCH   1   2
ATOM      2  CB  ARG D 557     -26.789   1.319 -17.183  1.00 35.49     0.034 C 
BRANCH   2   3
ATOM      3  CG  ARG D 557     -25.861   0.195 -17.005  1.00 35.49     0.027 C 
BRANCH   3   4
ATOM      4  CD  ARG D 557     -26.243  -0.677 -15.871  1.00 35.49     0.116 C 
BRANCH   4   5
ATOM      5  NE  ARG D 557     -25.141  -0.916 -14.976  1.00 35.49    -0.212 N 
ATOM      6  CZ  ARG D 557     -24.944  -2.009 -14.274  1.00 35.49     0.666 C 
ATOM      7  NH1 ARG D 557     -25.776  -3.034 -14.310  1.00 35.49    -0.235 N 
ATOM      8  NH2 ARG D 557     -23.878  -2.061 -13.530  1.00 35.49    -0.235 N 
ATOM      9  HH  ARG D 557     -26.483  -3.022 -14.794  1.00 35.49     0.174 HD
ATOM     10  HH  ARG D 557     -25.595  -3.722 -13.832  1.00 35.49     0.174 HD
ATOM     11  HH  ARG D 557     -23.355  -1.387 -13.533  1.00 35.49     0.174 HD
ATOM     12  HH  ARG D 557     -23.716  -2.752 -13.066  1.00 35.49     0.174 HD
ATOM     13  HE  ARG D 557     -24.595  -0.279 -14.837  1.00 35.49     0.178 HD
ENDBRANCH   4   5
ENDBRANCH   3   4
ENDBRANCH   2   3
ENDBRANCH   1   2
END_RES ARG D 557
BEGIN_RES GLU D 570
REMARK  3 active torsions:
REMARK  status: ('A' for Active; 'I' for Inactive)
REMARK    5  A    between atoms: CA   and  CB  
REMARK    6  A    between atoms: CB   and  CG  
REMARK    7  A    between atoms: CG   and  CD  
ROOT
ATOM     14  CA  GLU D 570     -18.033  -6.348 -13.375  1.00 32.92     0.160 C 
ENDROOT
BRANCH  14  15
ATOM     15  CB  GLU D 570     -19.500  -6.345 -13.794  1.00 32.92     0.043 C 
BRANCH  15  16
ATOM     16  CG  GLU D 570     -20.446  -5.552 -12.967  1.00 32.92     0.100 C 
BRANCH  16  17
ATOM     17  CD  GLU D 570     -21.680  -5.126 -13.729  1.00 32.92     0.185 C 
ATOM     18  OE1 GLU D 570     -21.615  -5.006 -14.967  1.00 32.92    -0.647 OA
ATOM     19  OE2 GLU D 570     -22.718  -4.894 -13.078  1.00 32.92    -0.647 OA
ENDBRANCH  16  17
ENDBRANCH  15  16
ENDBRANCH  14  15
END_RES GLU D 570
ENDMDL
