MODEL 1
REMARK VINA RESULT:      -7.0      0.000      0.000
REMARK  18 active torsions:
REMARK  status: ('A' for Active; 'I' for Inactive)
REMARK    1  A    between atoms: C_2  and  C_3 
REMARK    2  A    between atoms: C_3  and  C_4 
REMARK    3  A    between atoms: C_4  and  C_5 
REMARK    4  A    between atoms: C_5  and  C_6 
REMARK    5  A    between atoms: C_6  and  C_7 
REMARK    6  A    between atoms: C_7  and  C_8 
REMARK    7  A    between atoms: C_8  and  C_9 
REMARK    8  A    between atoms: C_9  and  C_10 
REMARK    9  A    between atoms: C_10  and  C_11 
REMARK   10  A    between atoms: C_11  and  C_12 
REMARK   11  A    between atoms: C_12  and  C_13 
REMARK   12  A    between atoms: C_13  and  C_14 
REMARK   13  A    between atoms: C_14  and  C_15 
REMARK   14  A    between atoms: C_15  and  C_16 
REMARK   15  A    between atoms: C_16  and  O_17 
REMARK   16  A    between atoms: O_17  and  C_18 
REMARK   17  A    between atoms: C_18  and  C_20 
REMARK   18  A    between atoms: C_20  and  O_22 
ROOT
HETATM    1  C   UNL     1     -20.415  -4.571  -9.920  1.00  0.00     0.000 C 
ENDROOT
BRANCH   1   2
HETATM    2  C   UNL     1     -20.138  -4.041  -8.523  1.00  0.00     0.000 C 
BRANCH   2   3
HETATM    3  C   UNL     1     -21.430  -3.941  -7.728  1.00  0.00     0.000 C 
BRANCH   3   4
HETATM    4  C   UNL     1     -21.648  -5.208  -6.914  1.00  0.00     0.000 C 
BRANCH   4   5
HETATM    5  C   UNL     1     -20.367  -5.603  -6.196  1.00  0.00     0.000 C 
BRANCH   5   6
HETATM    6  C   UNL     1     -20.651  -6.679  -5.162  1.00  0.00     0.000 C 
BRANCH   6   7
HETATM    7  C   UNL     1     -21.941  -6.364  -4.416  1.00  0.00     0.000 C 
BRANCH   7   8
HETATM    8  C   UNL     1     -21.683  -6.303  -2.918  1.00  0.00     0.000 C 
BRANCH   8   9
HETATM    9  C   UNL     1     -20.792  -7.461  -2.486  1.00  0.00     0.000 C 
BRANCH   9  10
HETATM   10  C   UNL     1     -21.366  -8.139  -1.249  1.00  0.00    -0.000 C 
BRANCH  10  11
HETATM   11  C   UNL     1     -22.439  -7.274  -0.600  1.00  0.00    -0.005 C 
HETATM   12  C   UNL     1     -23.150  -8.033   0.504  1.00  0.00     0.005 C 
ENDBRANCH  10  11
ENDBRANCH   9  10
ENDBRANCH   8   9
ENDBRANCH   7   8
ENDBRANCH   6   7
ENDBRANCH   5   6
ENDBRANCH   4   5
ENDBRANCH   3   4
ENDBRANCH   2   3
ENDBRANCH   1   2
BRANCH   1  13
HETATM   13  C   UNL     1     -20.386  -3.437 -10.941  1.00  0.00     0.000 C 
BRANCH  13  14
HETATM   14  C   UNL     1     -21.776  -3.184 -11.515  1.00  0.00     0.002 C 
BRANCH  14  15
HETATM   15  C   UNL     1     -22.615  -4.457 -11.518  1.00  0.00     0.027 C 
BRANCH  15  16
HETATM   16  C   UNL     1     -23.407  -4.584 -12.807  1.00  0.00     0.178 C 
BRANCH  16  17
HETATM   17  O   UNL     1     -24.464  -3.615 -12.819  1.00  0.00    -0.319 OA
BRANCH  17  18
HETATM   18  C   UNL     1     -24.711  -3.099 -14.061  1.00  0.00     0.287 C 
HETATM   19  O   UNL     1     -25.326  -3.664 -14.949  1.00  0.00    -0.262 OA
BRANCH  18  20
HETATM   20  C   UNL     1     -24.093  -1.703 -14.214  1.00  0.00     0.213 C 
HETATM   21  C   UNL     1     -22.959  -1.711 -15.223  1.00  0.00     0.050 C 
BRANCH  20  22
HETATM   22  O   UNL     1     -25.059  -0.747 -14.645  1.00  0.00    -0.386 OA
HETATM   23  H   UNL     1     -25.799  -0.786 -14.008  1.00  0.00     0.210 HD
ENDBRANCH  20  22
ENDBRANCH  18  20
ENDBRANCH  17  18
ENDBRANCH  16  17
ENDBRANCH  15  16
ENDBRANCH  14  15
ENDBRANCH  13  14
ENDBRANCH   1  13
TORSDOF 18
BEGIN_RES ARG D 557
REMARK  4 active torsions:
REMARK  status: ('A' for Active; 'I' for Inactive)
REMARK    1  A    between atoms: CA   and  CB  
REMARK    2  A    between atoms: CB   and  CG  
REMARK    3  A    between atoms: CG   and  CD  
REMARK    4  A    between atoms: CD   and  NE  
REMARK       I    between atoms: NE   and  CZ  
REMARK       I    between atoms: CZ   and  NH1 
REMARK       I    between atoms: CZ   and  NH2 
ROOT
ATOM      1  CA  ARG D 557     -26.217   2.705 -17.014  1.00 35.49     0.159 C 
ENDROOT
BRANCH   1   2
ATOM      2  CB  ARG D 557     -26.789   1.319 -17.183  1.00 35.49     0.034 C 
BRANCH   2   3
ATOM      3  CG  ARG D 557     -28.223   1.228 -17.483  1.00 35.49     0.027 C 
BRANCH   3   4
ATOM      4  CD  ARG D 557     -28.942   0.342 -16.539  1.00 35.49     0.116 C 
BRANCH   4   5
ATOM      5  NE  ARG D 557     -29.278  -0.925 -17.134  1.00 35.49    -0.212 N 
ATOM      6  CZ  ARG D 557     -28.598  -2.041 -16.999  1.00 35.49     0.666 C 
ATOM      7  NH1 ARG D 557     -27.488  -2.113 -16.288  1.00 35.49    -0.235 N 
ATOM      8  NH2 ARG D 557     -29.062  -3.102 -17.592  1.00 35.49    -0.235 N 
ATOM      9  HH  ARG D 557     -27.165  -1.428 -15.888  1.00 35.49     0.174 HD
ATOM     10  HH  ARG D 557     -27.088  -2.869 -16.234  1.00 35.49     0.174 HD
ATOM     11  HH  ARG D 557     -29.785  -3.028 -18.038  1.00 35.49     0.174 HD
ATOM     12  HH  ARG D 557     -28.653  -3.842 -17.525  1.00 35.49     0.174 HD
ATOM     13  HE  ARG D 557     -29.940  -0.952 -17.667  1.00 35.49     0.178 HD
ENDBRANCH   4   5
ENDBRANCH   3   4
ENDBRANCH   2   3
ENDBRANCH   1   2
END_RES ARG D 557
BEGIN_RES GLU D 570
REMARK  3 active torsions:
REMARK  status: ('A' for Active; 'I' for Inactive)
REMARK    5  A    between atoms: CA   and  CB  
REMARK    6  A    between atoms: CB   and  CG  
REMARK    7  A    between atoms: CG   and  CD  
ROOT
ATOM     14  CA  GLU D 570     -18.033  -6.348 -13.375  1.00 32.92     0.160 C 
ENDROOT
BRANCH  14  15
ATOM     15  CB  GLU D 570     -19.500  -6.345 -13.794  1.00 32.92     0.043 C 
BRANCH  15  16
ATOM     16  CG  GLU D 570     -19.806  -6.030 -15.213  1.00 32.92     0.100 C 
BRANCH  16  17
ATOM     17  CD  GLU D 570     -20.651  -7.089 -15.883  1.00 32.92     0.185 C 
ATOM     18  OE1 GLU D 570     -21.249  -6.807 -16.939  1.00 32.92    -0.647 OA
ATOM     19  OE2 GLU D 570     -20.730  -8.206 -15.336  1.00 32.92    -0.647 OA
ENDBRANCH  16  17
ENDBRANCH  15  16
ENDBRANCH  14  15
END_RES GLU D 570
ENDMDL
MODEL 2
REMARK VINA RESULT:      -7.0      1.824      2.769
REMARK  18 active torsions:
REMARK  status: ('A' for Active; 'I' for Inactive)
REMARK    1  A    between atoms: C_2  and  C_3 
REMARK    2  A    between atoms: C_3  and  C_4 
REMARK    3  A    between atoms: C_4  and  C_5 
REMARK    4  A    between atoms: C_5  and  C_6 
REMARK    5  A    between atoms: C_6  and  C_7 
REMARK    6  A    between atoms: C_7  and  C_8 
REMARK    7  A    between atoms: C_8  and  C_9 
REMARK    8  A    between atoms: C_9  and  C_10 
REMARK    9  A    between atoms: C_10  and  C_11 
REMARK   10  A    between atoms: C_11  and  C_12 
REMARK   11  A    between atoms: C_12  and  C_13 
REMARK   12  A    between atoms: C_13  and  C_14 
REMARK   13  A    between atoms: C_14  and  C_15 
REMARK   14  A    between atoms: C_15  and  C_16 
REMARK   15  A    between atoms: C_16  and  O_17 
REMARK   16  A    between atoms: O_17  and  C_18 
REMARK   17  A    between atoms: C_18  and  C_20 
REMARK   18  A    between atoms: C_20  and  O_22 
ROOT
HETATM    1  C   UNL     1     -23.184  -3.628 -10.566  1.00  0.00     0.000 C 
ENDROOT
BRANCH   1   2
HETATM    2  C   UNL     1     -22.408  -4.169  -9.378  1.00  0.00     0.000 C 
BRANCH   2   3
HETATM    3  C   UNL     1     -20.947  -4.374  -9.747  1.00  0.00     0.000 C 
BRANCH   3   4
HETATM    4  C   UNL     1     -20.051  -4.026  -8.568  1.00  0.00     0.000 C 
BRANCH   4   5
HETATM    5  C   UNL     1     -20.844  -4.066  -7.271  1.00  0.00     0.000 C 
BRANCH   5   6
HETATM    6  C   UNL     1     -19.992  -4.636  -6.149  1.00  0.00     0.000 C 
BRANCH   6   7
HETATM    7  C   UNL     1     -20.145  -6.149  -6.090  1.00  0.00     0.000 C 
BRANCH   7   8
HETATM    8  C   UNL     1     -21.616  -6.530  -6.016  1.00  0.00     0.000 C 
BRANCH   8   9
HETATM    9  C   UNL     1     -22.090  -6.541  -4.569  1.00  0.00     0.000 C 
BRANCH   9  10
HETATM   10  C   UNL     1     -21.366  -7.625  -3.781  1.00  0.00    -0.000 C 
BRANCH  10  11
HETATM   11  C   UNL     1     -21.112  -7.179  -2.347  1.00  0.00    -0.005 C 
HETATM   12  C   UNL     1     -22.192  -6.220  -1.880  1.00  0.00     0.005 C 
ENDBRANCH  10  11
ENDBRANCH   9  10
ENDBRANCH   8   9
ENDBRANCH   7   8
ENDBRANCH   6   7
ENDBRANCH   5   6
ENDBRANCH   4   5
ENDBRANCH   3   4
ENDBRANCH   2   3
ENDBRANCH   1   2
BRANCH   1  13
HETATM   13  C   UNL     1     -22.237  -3.265 -11.707  1.00  0.00     0.000 C 
BRANCH  13  14
HETATM   14  C   UNL     1     -22.783  -3.749 -13.045  1.00  0.00     0.002 C 
BRANCH  14  15
HETATM   15  C   UNL     1     -23.429  -5.124 -12.915  1.00  0.00     0.027 C 
BRANCH  15  16
HETATM   16  C   UNL     1     -23.429  -5.853 -14.248  1.00  0.00     0.178 C 
BRANCH  16  17
HETATM   17  O   UNL     1     -24.652  -5.581 -14.945  1.00  0.00    -0.319 OA
BRANCH  17  18
HETATM   18  C   UNL     1     -25.090  -6.633 -15.700  1.00  0.00     0.287 C 
HETATM   19  O   UNL     1     -24.491  -7.682 -15.863  1.00  0.00    -0.262 OA
BRANCH  18  20
HETATM   20  C   UNL     1     -26.447  -6.323 -16.348  1.00  0.00     0.213 C 
HETATM   21  C   UNL     1     -27.583  -6.993 -15.595  1.00  0.00     0.050 C 
BRANCH  20  22
HETATM   22  O   UNL     1     -26.704  -4.921 -16.375  1.00  0.00    -0.386 OA
HETATM   23  H   UNL     1     -27.468  -4.762 -15.786  1.00  0.00     0.210 HD
ENDBRANCH  20  22
ENDBRANCH  18  20
ENDBRANCH  17  18
ENDBRANCH  16  17
ENDBRANCH  15  16
ENDBRANCH  14  15
ENDBRANCH  13  14
ENDBRANCH   1  13
TORSDOF 18
BEGIN_RES ARG D 557
REMARK  4 active torsions:
REMARK  status: ('A' for Active; 'I' for Inactive)
REMARK    1  A    between atoms: CA   and  CB  
REMARK    2  A    between atoms: CB   and  CG  
REMARK    3  A    between atoms: CG   and  CD  
REMARK    4  A    between atoms: CD   and  NE  
REMARK       I    between atoms: NE   and  CZ  
REMARK       I    between atoms: CZ   and  NH1 
REMARK       I    between atoms: CZ   and  NH2 
ROOT
ATOM      1  CA  ARG D 557     -26.217   2.705 -17.014  1.00 35.49     0.159 C 
ENDROOT
BRANCH   1   2
ATOM      2  CB  ARG D 557     -26.789   1.319 -17.183  1.00 35.49     0.034 C 
BRANCH   2   3
ATOM      3  CG  ARG D 557     -28.229   1.227 -17.454  1.00 35.49     0.027 C 
BRANCH   3   4
ATOM      4  CD  ARG D 557     -28.923   0.318 -16.514  1.00 35.49     0.116 C 
BRANCH   4   5
ATOM      5  NE  ARG D 557     -29.253  -0.943 -17.123  1.00 35.49    -0.212 N 
ATOM      6  CZ  ARG D 557     -28.578  -2.063 -16.985  1.00 35.49     0.666 C 
ATOM      7  NH1 ARG D 557     -27.479  -2.143 -16.257  1.00 35.49    -0.235 N 
ATOM      8  NH2 ARG D 557     -29.035  -3.118 -17.593  1.00 35.49    -0.235 N 
ATOM      9  HH  ARG D 557     -27.162  -1.461 -15.846  1.00 35.49     0.174 HD
ATOM     10  HH  ARG D 557     -27.083  -2.900 -16.201  1.00 35.49     0.174 HD
ATOM     11  HH  ARG D 557     -29.751  -3.038 -18.050  1.00 35.49     0.174 HD
ATOM     12  HH  ARG D 557     -28.629  -3.859 -17.524  1.00 35.49     0.174 HD
ATOM     13  HE  ARG D 557     -29.906  -0.966 -17.667  1.00 35.49     0.178 HD
ENDBRANCH   4   5
ENDBRANCH   3   4
ENDBRANCH   2   3
ENDBRANCH   1   2
END_RES ARG D 557
BEGIN_RES GLU D 570
REMARK  3 active torsions:
REMARK  status: ('A' for Active; 'I' for Inactive)
REMARK    5  A    between atoms: CA   and  CB  
REMARK    6  A    between atoms: CB   and  CG  
REMARK    7  A    between atoms: CG   and  CD  
ROOT
ATOM     14  CA  GLU D 570     -18.033  -6.348 -13.375  1.00 32.92     0.160 C 
ENDROOT
BRANCH  14  15
ATOM     15  CB  GLU D 570     -19.500  -6.345 -13.794  1.00 32.92     0.043 C 
BRANCH  15  16
ATOM     16  CG  GLU D 570     -20.111  -7.650 -14.157  1.00 32.92     0.100 C 
BRANCH  16  17
ATOM     17  CD  GLU D 570     -20.542  -7.717 -15.603  1.00 32.92     0.185 C 
ATOM     18  OE1 GLU D 570     -20.834  -6.661 -16.197  1.00 32.92    -0.647 OA
ATOM     19  OE2 GLU D 570     -20.605  -8.839 -16.143  1.00 32.92    -0.647 OA
ENDBRANCH  16  17
ENDBRANCH  15  16
ENDBRANCH  14  15
END_RES GLU D 570
ENDMDL
MODEL 3
REMARK VINA RESULT:      -6.9      1.258      2.227
REMARK  18 active torsions:
REMARK  status: ('A' for Active; 'I' for Inactive)
REMARK    1  A    between atoms: C_2  and  C_3 
REMARK    2  A    between atoms: C_3  and  C_4 
REMARK    3  A    between atoms: C_4  and  C_5 
REMARK    4  A    between atoms: C_5  and  C_6 
REMARK    5  A    between atoms: C_6  and  C_7 
REMARK    6  A    between atoms: C_7  and  C_8 
REMARK    7  A    between atoms: C_8  and  C_9 
REMARK    8  A    between atoms: C_9  and  C_10 
REMARK    9  A    between atoms: C_10  and  C_11 
REMARK   10  A    between atoms: C_11  and  C_12 
REMARK   11  A    between atoms: C_12  and  C_13 
REMARK   12  A    between atoms: C_13  and  C_14 
REMARK   13  A    between atoms: C_14  and  C_15 
REMARK   14  A    between atoms: C_15  and  C_16 
REMARK   15  A    between atoms: C_16  and  O_17 
REMARK   16  A    between atoms: O_17  and  C_18 
REMARK   17  A    between atoms: C_18  and  C_20 
REMARK   18  A    between atoms: C_20  and  O_22 
ROOT
HETATM    1  C   UNL     1     -21.215  -5.210  -8.078  1.00  0.00     0.000 C 
ENDROOT
BRANCH   1   2
HETATM    2  C   UNL     1     -21.663  -4.787  -6.689  1.00  0.00     0.000 C 
BRANCH   2   3
HETATM    3  C   UNL     1     -20.566  -5.061  -5.672  1.00  0.00     0.000 C 
BRANCH   3   4
HETATM    4  C   UNL     1     -20.656  -6.494  -5.171  1.00  0.00     0.000 C 
BRANCH   4   5
HETATM    5  C   UNL     1     -21.851  -6.657  -4.244  1.00  0.00     0.000 C 
BRANCH   5   6
HETATM    6  C   UNL     1     -21.525  -6.112  -2.863  1.00  0.00     0.000 C 
BRANCH   6   7
HETATM    7  C   UNL     1     -21.368  -7.254  -1.870  1.00  0.00     0.000 C 
BRANCH   7   8
HETATM    8  C   UNL     1     -22.390  -7.127  -0.751  1.00  0.00     0.000 C 
BRANCH   8   9
HETATM    9  C   UNL     1     -22.590  -8.469  -0.060  1.00  0.00     0.000 C 
BRANCH   9  10
HETATM   10  C   UNL     1     -21.978  -9.590  -0.889  1.00  0.00    -0.000 C 
BRANCH  10  11
HETATM   11  C   UNL     1     -23.016 -10.657  -1.213  1.00  0.00    -0.005 C 
HETATM   12  C   UNL     1     -24.062 -10.743  -0.118  1.00  0.00     0.005 C 
ENDBRANCH  10  11
ENDBRANCH   9  10
ENDBRANCH   8   9
ENDBRANCH   7   8
ENDBRANCH   6   7
ENDBRANCH   5   6
ENDBRANCH   4   5
ENDBRANCH   3   4
ENDBRANCH   2   3
ENDBRANCH   1   2
BRANCH   1  13
HETATM   13  C   UNL     1     -21.125  -4.002  -9.006  1.00  0.00     0.000 C 
BRANCH  13  14
HETATM   14  C   UNL     1     -20.389  -4.356 -10.293  1.00  0.00     0.002 C 
BRANCH  14  15
HETATM   15  C   UNL     1     -21.267  -4.124 -11.517  1.00  0.00     0.027 C 
BRANCH  15  16
HETATM   16  C   UNL     1     -22.316  -3.061 -11.240  1.00  0.00     0.178 C 
BRANCH  16  17
HETATM   17  O   UNL     1     -22.988  -2.719 -12.460  1.00  0.00    -0.319 OA
BRANCH  17  18
HETATM   18  C   UNL     1     -24.331  -2.972 -12.428  1.00  0.00     0.287 C 
HETATM   19  O   UNL     1     -24.981  -3.200 -11.423  1.00  0.00    -0.262 OA
BRANCH  18  20
HETATM   20  C   UNL     1     -24.932  -2.955 -13.840  1.00  0.00     0.213 C 
HETATM   21  C   UNL     1     -24.542  -1.694 -14.589  1.00  0.00     0.050 C 
BRANCH  20  22
HETATM   22  O   UNL     1     -24.495  -4.075 -14.607  1.00  0.00    -0.386 OA
HETATM   23  H   UNL     1     -24.671  -3.861 -15.544  1.00  0.00     0.210 HD
ENDBRANCH  20  22
ENDBRANCH  18  20
ENDBRANCH  17  18
ENDBRANCH  16  17
ENDBRANCH  15  16
ENDBRANCH  14  15
ENDBRANCH  13  14
ENDBRANCH   1  13
TORSDOF 18
BEGIN_RES ARG D 557
REMARK  4 active torsions:
REMARK  status: ('A' for Active; 'I' for Inactive)
REMARK    1  A    between atoms: CA   and  CB  
REMARK    2  A    between atoms: CB   and  CG  
REMARK    3  A    between atoms: CG   and  CD  
REMARK    4  A    between atoms: CD   and  NE  
REMARK       I    between atoms: NE   and  CZ  
REMARK       I    between atoms: CZ   and  NH1 
REMARK       I    between atoms: CZ   and  NH2 
ROOT
ATOM      1  CA  ARG D 557     -26.217   2.705 -17.014  1.00 35.49     0.159 C 
ENDROOT
BRANCH   1   2
ATOM      2  CB  ARG D 557     -26.789   1.319 -17.183  1.00 35.49     0.034 C 
BRANCH   2   3
ATOM      3  CG  ARG D 557     -28.250   1.215 -17.285  1.00 35.49     0.027 C 
BRANCH   3   4
ATOM      4  CD  ARG D 557     -28.806   0.180 -16.384  1.00 35.49     0.116 C 
BRANCH   4   5
ATOM      5  NE  ARG D 557     -29.292  -0.965 -17.108  1.00 35.49    -0.212 N 
ATOM      6  CZ  ARG D 557     -28.765  -2.169 -17.084  1.00 35.49     0.666 C 
ATOM      7  NH1 ARG D 557     -27.687  -2.457 -16.378  1.00 35.49    -0.235 N 
ATOM      8  NH2 ARG D 557     -29.351  -3.094 -17.787  1.00 35.49    -0.235 N 
ATOM      9  HH  ARG D 557     -27.287  -1.864 -15.907  1.00 35.49     0.174 HD
ATOM     10  HH  ARG D 557     -27.390  -3.261 -16.399  1.00 35.49     0.174 HD
ATOM     11  HH  ARG D 557     -30.049  -2.881 -18.227  1.00 35.49     0.174 HD
ATOM     12  HH  ARG D 557     -29.042  -3.884 -17.793  1.00 35.49     0.174 HD
ATOM     13  HE  ARG D 557     -29.941  -0.852 -17.646  1.00 35.49     0.178 HD
ENDBRANCH   4   5
ENDBRANCH   3   4
ENDBRANCH   2   3
ENDBRANCH   1   2
END_RES ARG D 557
BEGIN_RES GLU D 570
REMARK  3 active torsions:
REMARK  status: ('A' for Active; 'I' for Inactive)
REMARK    5  A    between atoms: CA   and  CB  
REMARK    6  A    between atoms: CB   and  CG  
REMARK    7  A    between atoms: CG   and  CD  
ROOT
ATOM     14  CA  GLU D 570     -18.033  -6.348 -13.375  1.00 32.92     0.160 C 
ENDROOT
BRANCH  14  15
ATOM     15  CB  GLU D 570     -19.500  -6.345 -13.794  1.00 32.92     0.043 C 
BRANCH  15  16
ATOM     16  CG  GLU D 570     -19.798  -6.194 -15.242  1.00 32.92     0.100 C 
BRANCH  16  17
ATOM     17  CD  GLU D 570     -21.130  -5.531 -15.503  1.00 32.92     0.185 C 
ATOM     18  OE1 GLU D 570     -21.966  -5.467 -14.581  1.00 32.92    -0.647 OA
ATOM     19  OE2 GLU D 570     -21.346  -5.084 -16.647  1.00 32.92    -0.647 OA
ENDBRANCH  16  17
ENDBRANCH  15  16
ENDBRANCH  14  15
END_RES GLU D 570
ENDMDL
MODEL 4
REMARK VINA RESULT:      -6.8      2.066      4.172
REMARK  18 active torsions:
REMARK  status: ('A' for Active; 'I' for Inactive)
REMARK    1  A    between atoms: C_2  and  C_3 
REMARK    2  A    between atoms: C_3  and  C_4 
REMARK    3  A    between atoms: C_4  and  C_5 
REMARK    4  A    between atoms: C_5  and  C_6 
REMARK    5  A    between atoms: C_6  and  C_7 
REMARK    6  A    between atoms: C_7  and  C_8 
REMARK    7  A    between atoms: C_8  and  C_9 
REMARK    8  A    between atoms: C_9  and  C_10 
REMARK    9  A    between atoms: C_10  and  C_11 
REMARK   10  A    between atoms: C_11  and  C_12 
REMARK   11  A    between atoms: C_12  and  C_13 
REMARK   12  A    between atoms: C_13  and  C_14 
REMARK   13  A    between atoms: C_14  and  C_15 
REMARK   14  A    between atoms: C_15  and  C_16 
REMARK   15  A    between atoms: C_16  and  O_17 
REMARK   16  A    between atoms: O_17  and  C_18 
REMARK   17  A    between atoms: C_18  and  C_20 
REMARK   18  A    between atoms: C_20  and  O_22 
ROOT
HETATM    1  C   UNL     1     -21.349  -5.904  -5.057  1.00  0.00     0.000 C 
ENDROOT
BRANCH   1   2
HETATM    2  C   UNL     1     -21.354  -7.362  -4.627  1.00  0.00     0.000 C 
BRANCH   2   3
HETATM    3  C   UNL     1     -21.153  -7.472  -3.124  1.00  0.00     0.000 C 
BRANCH   3   4
HETATM    4  C   UNL     1     -21.962  -6.404  -2.404  1.00  0.00     0.000 C 
BRANCH   4   5
HETATM    5  C   UNL     1     -22.329  -6.872  -1.004  1.00  0.00     0.000 C 
BRANCH   5   6
HETATM    6  C   UNL     1     -21.315  -7.889  -0.505  1.00  0.00     0.000 C 
BRANCH   6   7
HETATM    7  C   UNL     1     -21.949  -8.793   0.542  1.00  0.00     0.000 C 
BRANCH   7   8
HETATM    8  C   UNL     1     -21.171 -10.096   0.656  1.00  0.00     0.000 C 
BRANCH   8   9
HETATM    9  C   UNL     1     -22.072 -11.281   0.336  1.00  0.00     0.000 C 
BRANCH   9  10
HETATM   10  C   UNL     1     -23.437 -10.799  -0.137  1.00  0.00    -0.000 C 
BRANCH  10  11
HETATM   11  C   UNL     1     -23.801 -11.422  -1.478  1.00  0.00    -0.005 C 
HETATM   12  C   UNL     1     -22.876 -10.925  -2.573  1.00  0.00     0.005 C 
ENDBRANCH  10  11
ENDBRANCH   9  10
ENDBRANCH   8   9
ENDBRANCH   7   8
ENDBRANCH   6   7
ENDBRANCH   5   6
ENDBRANCH   4   5
ENDBRANCH   3   4
ENDBRANCH   2   3
ENDBRANCH   1   2
BRANCH   1  13
HETATM   13  C   UNL     1     -20.336  -5.676  -6.175  1.00  0.00     0.000 C 
BRANCH  13  14
HETATM   14  C   UNL     1     -20.721  -4.470  -7.023  1.00  0.00     0.002 C 
BRANCH  14  15
HETATM   15  C   UNL     1     -22.212  -4.470  -7.342  1.00  0.00     0.027 C 
BRANCH  15  16
HETATM   16  C   UNL     1     -22.504  -3.638  -8.578  1.00  0.00     0.178 C 
BRANCH  16  17
HETATM   17  O   UNL     1     -23.410  -4.348  -9.433  1.00  0.00    -0.319 OA
BRANCH  17  18
HETATM   18  C   UNL     1     -23.911  -3.581 -10.448  1.00  0.00     0.287 C 
HETATM   19  O   UNL     1     -25.075  -3.242 -10.566  1.00  0.00    -0.262 OA
BRANCH  18  20
HETATM   20  C   UNL     1     -22.813  -3.207 -11.453  1.00  0.00     0.213 C 
HETATM   21  C   UNL     1     -22.393  -4.408 -12.282  1.00  0.00     0.050 C 
BRANCH  20  22
HETATM   22  O   UNL     1     -23.249  -2.186 -12.348  1.00  0.00    -0.386 OA
HETATM   23  H   UNL     1     -23.948  -2.580 -12.907  1.00  0.00     0.210 HD
ENDBRANCH  20  22
ENDBRANCH  18  20
ENDBRANCH  17  18
ENDBRANCH  16  17
ENDBRANCH  15  16
ENDBRANCH  14  15
ENDBRANCH  13  14
ENDBRANCH   1  13
TORSDOF 18
BEGIN_RES ARG D 557
REMARK  4 active torsions:
REMARK  status: ('A' for Active; 'I' for Inactive)
REMARK    1  A    between atoms: CA   and  CB  
REMARK    2  A    between atoms: CB   and  CG  
REMARK    3  A    between atoms: CG   and  CD  
REMARK    4  A    between atoms: CD   and  NE  
REMARK       I    between atoms: NE   and  CZ  
REMARK       I    between atoms: CZ   and  NH1 
REMARK       I    between atoms: CZ   and  NH2 
ROOT
ATOM      1  CA  ARG D 557     -26.217   2.705 -17.014  1.00 35.49     0.159 C 
ENDROOT
BRANCH   1   2
ATOM      2  CB  ARG D 557     -26.789   1.319 -17.183  1.00 35.49     0.034 C 
BRANCH   2   3
ATOM      3  CG  ARG D 557     -25.983   0.204 -16.671  1.00 35.49     0.027 C 
BRANCH   3   4
ATOM      4  CD  ARG D 557     -26.817  -0.918 -16.183  1.00 35.49     0.116 C 
BRANCH   4   5
ATOM      5  NE  ARG D 557     -26.245  -1.556 -15.027  1.00 35.49    -0.212 N 
ATOM      6  CZ  ARG D 557     -26.258  -2.846 -14.776  1.00 35.49     0.666 C 
ATOM      7  NH1 ARG D 557     -26.831  -3.719 -15.583  1.00 35.49    -0.235 N 
ATOM      8  NH2 ARG D 557     -25.671  -3.252 -13.688  1.00 35.49    -0.235 N 
ATOM      9  HH  ARG D 557     -27.221  -3.475 -16.306  1.00 35.49     0.174 HD
ATOM     10  HH  ARG D 557     -26.805  -4.549 -15.370  1.00 35.49     0.174 HD
ATOM     11  HH  ARG D 557     -25.303  -2.666 -13.189  1.00 35.49     0.174 HD
ATOM     12  HH  ARG D 557     -25.655  -4.077 -13.494  1.00 35.49     0.174 HD
ATOM     13  HE  ARG D 557     -25.918  -1.060 -14.418  1.00 35.49     0.178 HD
ENDBRANCH   4   5
ENDBRANCH   3   4
ENDBRANCH   2   3
ENDBRANCH   1   2
END_RES ARG D 557
BEGIN_RES GLU D 570
REMARK  3 active torsions:
REMARK  status: ('A' for Active; 'I' for Inactive)
REMARK    5  A    between atoms: CA   and  CB  
REMARK    6  A    between atoms: CB   and  CG  
REMARK    7  A    between atoms: CG   and  CD  
ROOT
ATOM     14  CA  GLU D 570     -18.033  -6.348 -13.375  1.00 32.92     0.160 C 
ENDROOT
BRANCH  14  15
ATOM     15  CB  GLU D 570     -19.500  -6.345 -13.794  1.00 32.92     0.043 C 
BRANCH  15  16
ATOM     16  CG  GLU D 570     -19.798  -6.206 -15.243  1.00 32.92     0.100 C 
BRANCH  16  17
ATOM     17  CD  GLU D 570     -21.257  -5.932 -15.521  1.00 32.92     0.185 C 
ATOM     18  OE1 GLU D 570     -22.091  -6.838 -15.328  1.00 32.92    -0.647 OA
ATOM     19  OE2 GLU D 570     -21.569  -4.804 -15.952  1.00 32.92    -0.647 OA
ENDBRANCH  16  17
ENDBRANCH  15  16
ENDBRANCH  14  15
END_RES GLU D 570
ENDMDL
MODEL 5
REMARK VINA RESULT:      -6.8      1.459      2.626
REMARK  18 active torsions:
REMARK  status: ('A' for Active; 'I' for Inactive)
REMARK    1  A    between atoms: C_2  and  C_3 
REMARK    2  A    between atoms: C_3  and  C_4 
REMARK    3  A    between atoms: C_4  and  C_5 
REMARK    4  A    between atoms: C_5  and  C_6 
REMARK    5  A    between atoms: C_6  and  C_7 
REMARK    6  A    between atoms: C_7  and  C_8 
REMARK    7  A    between atoms: C_8  and  C_9 
REMARK    8  A    between atoms: C_9  and  C_10 
REMARK    9  A    between atoms: C_10  and  C_11 
REMARK   10  A    between atoms: C_11  and  C_12 
REMARK   11  A    between atoms: C_12  and  C_13 
REMARK   12  A    between atoms: C_13  and  C_14 
REMARK   13  A    between atoms: C_14  and  C_15 
REMARK   14  A    between atoms: C_15  and  C_16 
REMARK   15  A    between atoms: C_16  and  O_17 
REMARK   16  A    between atoms: O_17  and  C_18 
REMARK   17  A    between atoms: C_18  and  C_20 
REMARK   18  A    between atoms: C_20  and  O_22 
ROOT
HETATM    1  C   UNL     1     -20.818  -4.782  -7.609  1.00  0.00     0.000 C 
ENDROOT
BRANCH   1   2
HETATM    2  C   UNL     1     -20.801  -5.138  -6.132  1.00  0.00     0.000 C 
BRANCH   2   3
HETATM    3  C   UNL     1     -20.371  -6.584  -5.939  1.00  0.00     0.000 C 
BRANCH   3   4
HETATM    4  C   UNL     1     -21.384  -7.326  -5.081  1.00  0.00     0.000 C 
BRANCH   4   5
HETATM    5  C   UNL     1     -21.833  -6.452  -3.919  1.00  0.00     0.000 C 
BRANCH   5   6
HETATM    6  C   UNL     1     -21.263  -6.978  -2.612  1.00  0.00     0.000 C 
BRANCH   6   7
HETATM    7  C   UNL     1     -22.192  -6.632  -1.457  1.00  0.00     0.000 C 
BRANCH   7   8
HETATM    8  C   UNL     1     -21.931  -7.554  -0.275  1.00  0.00     0.000 C 
BRANCH   8   9
HETATM    9  C   UNL     1     -23.239  -8.146   0.234  1.00  0.00     0.000 C 
BRANCH   9  10
HETATM   10  C   UNL     1     -23.250  -9.657   0.038  1.00  0.00    -0.000 C 
BRANCH  10  11
HETATM   11  C   UNL     1     -21.887 -10.156  -0.424  1.00  0.00    -0.005 C 
HETATM   12  C   UNL     1     -21.267 -11.073   0.613  1.00  0.00     0.005 C 
ENDBRANCH  10  11
ENDBRANCH   9  10
ENDBRANCH   8   9
ENDBRANCH   7   8
ENDBRANCH   6   7
ENDBRANCH   5   6
ENDBRANCH   4   5
ENDBRANCH   3   4
ENDBRANCH   2   3
ENDBRANCH   1   2
BRANCH   1  13
HETATM   13  C   UNL     1     -21.996  -3.868  -7.929  1.00  0.00     0.000 C 
BRANCH  13  14
HETATM   14  C   UNL     1     -22.377  -3.963  -9.402  1.00  0.00     0.002 C 
BRANCH  14  15
HETATM   15  C   UNL     1     -21.140  -3.994 -10.294  1.00  0.00     0.027 C 
BRANCH  15  16
HETATM   16  C   UNL     1     -21.355  -3.169 -11.550  1.00  0.00     0.178 C 
BRANCH  16  17
HETATM   17  O   UNL     1     -22.748  -2.860 -11.691  1.00  0.00    -0.319 OA
BRANCH  17  18
HETATM   18  C   UNL     1     -23.211  -3.017 -12.968  1.00  0.00     0.287 C 
HETATM   19  O   UNL     1     -24.083  -2.344 -13.489  1.00  0.00    -0.262 OA
BRANCH  18  20
HETATM   20  C   UNL     1     -22.503  -4.181 -13.675  1.00  0.00     0.213 C 
HETATM   21  C   UNL     1     -23.392  -5.410 -13.739  1.00  0.00     0.050 C 
BRANCH  20  22
HETATM   22  O   UNL     1     -22.133  -3.835 -15.008  1.00  0.00    -0.386 OA
HETATM   23  H   UNL     1     -22.348  -2.889 -15.124  1.00  0.00     0.210 HD
ENDBRANCH  20  22
ENDBRANCH  18  20
ENDBRANCH  17  18
ENDBRANCH  16  17
ENDBRANCH  15  16
ENDBRANCH  14  15
ENDBRANCH  13  14
ENDBRANCH   1  13
TORSDOF 18
BEGIN_RES ARG D 557
REMARK  4 active torsions:
REMARK  status: ('A' for Active; 'I' for Inactive)
REMARK    1  A    between atoms: CA   and  CB  
REMARK    2  A    between atoms: CB   and  CG  
REMARK    3  A    between atoms: CG   and  CD  
REMARK    4  A    between atoms: CD   and  NE  
REMARK       I    between atoms: NE   and  CZ  
REMARK       I    between atoms: CZ   and  NH1 
REMARK       I    between atoms: CZ   and  NH2 
ROOT
ATOM      1  CA  ARG D 557     -26.217   2.705 -17.014  1.00 35.49     0.159 C 
ENDROOT
BRANCH   1   2
ATOM      2  CB  ARG D 557     -26.789   1.319 -17.183  1.00 35.49     0.034 C 
BRANCH   2   3
ATOM      3  CG  ARG D 557     -28.226   1.162 -16.928  1.00 35.49     0.027 C 
BRANCH   3   4
ATOM      4  CD  ARG D 557     -28.602  -0.246 -16.666  1.00 35.49     0.116 C 
BRANCH   4   5
ATOM      5  NE  ARG D 557     -27.566  -0.963 -15.969  1.00 35.49    -0.212 N 
ATOM      6  CZ  ARG D 557     -27.350  -2.258 -16.037  1.00 35.49     0.666 C 
ATOM      7  NH1 ARG D 557     -28.097  -3.065 -16.767  1.00 35.49    -0.235 N 
ATOM      8  NH2 ARG D 557     -26.350  -2.735 -15.353  1.00 35.49    -0.235 N 
ATOM      9  HH  ARG D 557     -28.758  -2.772 -17.226  1.00 35.49     0.174 HD
ATOM     10  HH  ARG D 557     -27.907  -3.900 -16.774  1.00 35.49     0.174 HD
ATOM     11  HH  ARG D 557     -25.881  -2.189 -14.896  1.00 35.49     0.174 HD
ATOM     12  HH  ARG D 557     -26.177  -3.565 -15.375  1.00 35.49     0.174 HD
ATOM     13  HE  ARG D 557     -27.083  -0.531 -15.419  1.00 35.49     0.178 HD
ENDBRANCH   4   5
ENDBRANCH   3   4
ENDBRANCH   2   3
ENDBRANCH   1   2
END_RES ARG D 557
BEGIN_RES GLU D 570
REMARK  3 active torsions:
REMARK  status: ('A' for Active; 'I' for Inactive)
REMARK    5  A    between atoms: CA   and  CB  
REMARK    6  A    between atoms: CB   and  CG  
REMARK    7  A    between atoms: CG   and  CD  
ROOT
ATOM     14  CA  GLU D 570     -18.033  -6.348 -13.375  1.00 32.92     0.160 C 
ENDROOT
BRANCH  14  15
ATOM     15  CB  GLU D 570     -19.500  -6.345 -13.794  1.00 32.92     0.043 C 
BRANCH  15  16
ATOM     16  CG  GLU D 570     -20.003  -7.530 -14.535  1.00 32.92     0.100 C 
BRANCH  16  17
ATOM     17  CD  GLU D 570     -20.808  -7.162 -15.759  1.00 32.92     0.185 C 
ATOM     18  OE1 GLU D 570     -20.598  -6.067 -16.315  1.00 32.92    -0.647 OA
ATOM     19  OE2 GLU D 570     -21.670  -7.970 -16.157  1.00 32.92    -0.647 OA
ENDBRANCH  16  17
ENDBRANCH  15  16
ENDBRANCH  14  15
END_RES GLU D 570
ENDMDL
MODEL 6
REMARK VINA RESULT:      -6.6      2.859      5.364
REMARK  18 active torsions:
REMARK  status: ('A' for Active; 'I' for Inactive)
REMARK    1  A    between atoms: C_2  and  C_3 
REMARK    2  A    between atoms: C_3  and  C_4 
REMARK    3  A    between atoms: C_4  and  C_5 
REMARK    4  A    between atoms: C_5  and  C_6 
REMARK    5  A    between atoms: C_6  and  C_7 
REMARK    6  A    between atoms: C_7  and  C_8 
REMARK    7  A    between atoms: C_8  and  C_9 
REMARK    8  A    between atoms: C_9  and  C_10 
REMARK    9  A    between atoms: C_10  and  C_11 
REMARK   10  A    between atoms: C_11  and  C_12 
REMARK   11  A    between atoms: C_12  and  C_13 
REMARK   12  A    between atoms: C_13  and  C_14 
REMARK   13  A    between atoms: C_14  and  C_15 
REMARK   14  A    between atoms: C_15  and  C_16 
REMARK   15  A    between atoms: C_16  and  O_17 
REMARK   16  A    between atoms: O_17  and  C_18 
REMARK   17  A    between atoms: C_18  and  C_20 
REMARK   18  A    between atoms: C_20  and  O_22 
ROOT
HETATM    1  C   UNL     1     -21.211  -6.069  -4.149  1.00  0.00     0.000 C 
ENDROOT
BRANCH   1   2
HETATM    2  C   UNL     1     -21.528  -6.976  -2.972  1.00  0.00     0.000 C 
BRANCH   2   3
HETATM    3  C   UNL     1     -22.185  -6.182  -1.853  1.00  0.00     0.000 C 
BRANCH   3   4
HETATM    4  C   UNL     1     -22.436  -7.077  -0.649  1.00  0.00     0.000 C 
BRANCH   4   5
HETATM    5  C   UNL     1     -21.377  -8.166  -0.570  1.00  0.00     0.000 C 
BRANCH   5   6
HETATM    6  C   UNL     1     -21.963  -9.428   0.044  1.00  0.00     0.000 C 
BRANCH   6   7
HETATM    7  C   UNL     1     -23.454  -9.248   0.292  1.00  0.00     0.000 C 
BRANCH   7   8
HETATM    8  C   UNL     1     -24.202 -10.533  -0.031  1.00  0.00     0.000 C 
BRANCH   8   9
HETATM    9  C   UNL     1     -23.320 -11.469  -0.846  1.00  0.00     0.000 C 
BRANCH   9  10
HETATM   10  C   UNL     1     -23.629 -12.921  -0.506  1.00  0.00    -0.000 C 
BRANCH  10  11
HETATM   11  C   UNL     1     -23.375 -13.201   0.970  1.00  0.00    -0.005 C 
HETATM   12  C   UNL     1     -21.891 -13.149   1.282  1.00  0.00     0.005 C 
ENDBRANCH  10  11
ENDBRANCH   9  10
ENDBRANCH   8   9
ENDBRANCH   7   8
ENDBRANCH   6   7
ENDBRANCH   5   6
ENDBRANCH   4   5
ENDBRANCH   3   4
ENDBRANCH   2   3
ENDBRANCH   1   2
BRANCH   1  13
HETATM   13  C   UNL     1     -21.434  -6.802  -5.469  1.00  0.00     0.000 C 
BRANCH  13  14
HETATM   14  C   UNL     1     -20.600  -6.184  -6.584  1.00  0.00     0.002 C 
BRANCH  14  15
HETATM   15  C   UNL     1     -20.233  -4.738  -6.266  1.00  0.00     0.027 C 
BRANCH  15  16
HETATM   16  C   UNL     1     -21.085  -3.771  -7.068  1.00  0.00     0.178 C 
BRANCH  16  17
HETATM   17  O   UNL     1     -21.834  -4.494  -8.055  1.00  0.00    -0.319 OA
BRANCH  17  18
HETATM   18  C   UNL     1     -21.531  -4.130  -9.338  1.00  0.00     0.287 C 
HETATM   19  O   UNL     1     -20.408  -3.937  -9.770  1.00  0.00    -0.262 OA
BRANCH  18  20
HETATM   20  C   UNL     1     -22.803  -3.971 -10.183  1.00  0.00     0.213 C 
HETATM   21  C   UNL     1     -23.994  -3.595  -9.319  1.00  0.00     0.050 C 
BRANCH  20  22
HETATM   22  O   UNL     1     -22.646  -2.961 -11.178  1.00  0.00    -0.386 OA
HETATM   23  H   UNL     1     -23.537  -2.603 -11.360  1.00  0.00     0.210 HD
ENDBRANCH  20  22
ENDBRANCH  18  20
ENDBRANCH  17  18
ENDBRANCH  16  17
ENDBRANCH  15  16
ENDBRANCH  14  15
ENDBRANCH  13  14
ENDBRANCH   1  13
TORSDOF 18
BEGIN_RES ARG D 557
REMARK  4 active torsions:
REMARK  status: ('A' for Active; 'I' for Inactive)
REMARK    1  A    between atoms: CA   and  CB  
REMARK    2  A    between atoms: CB   and  CG  
REMARK    3  A    between atoms: CG   and  CD  
REMARK    4  A    between atoms: CD   and  NE  
REMARK       I    between atoms: NE   and  CZ  
REMARK       I    between atoms: CZ   and  NH1 
REMARK       I    between atoms: CZ   and  NH2 
ROOT
ATOM      1  CA  ARG D 557     -26.217   2.705 -17.014  1.00 35.49     0.159 C 
ENDROOT
BRANCH   1   2
ATOM      2  CB  ARG D 557     -26.789   1.319 -17.183  1.00 35.49     0.034 C 
BRANCH   2   3
ATOM      3  CG  ARG D 557     -25.865   0.195 -16.989  1.00 35.49     0.027 C 
BRANCH   3   4
ATOM      4  CD  ARG D 557     -26.278  -0.689 -15.875  1.00 35.49     0.116 C 
BRANCH   4   5
ATOM      5  NE  ARG D 557     -25.201  -0.937 -14.953  1.00 35.49    -0.212 N 
ATOM      6  CZ  ARG D 557     -24.941  -2.085 -14.367  1.00 35.49     0.666 C 
ATOM      7  NH1 ARG D 557     -25.676  -3.164 -14.562  1.00 35.49    -0.235 N 
ATOM      8  NH2 ARG D 557     -23.910  -2.134 -13.575  1.00 35.49    -0.235 N 
ATOM      9  HH  ARG D 557     -26.358  -3.155 -15.081  1.00 35.49     0.174 HD
ATOM     10  HH  ARG D 557     -25.457  -3.885 -14.156  1.00 35.49     0.174 HD
ATOM     11  HH  ARG D 557     -23.449  -1.424 -13.474  1.00 35.49     0.174 HD
ATOM     12  HH  ARG D 557     -23.708  -2.858 -13.182  1.00 35.49     0.174 HD
ATOM     13  HE  ARG D 557     -24.721  -0.278 -14.713  1.00 35.49     0.178 HD
ENDBRANCH   4   5
ENDBRANCH   3   4
ENDBRANCH   2   3
ENDBRANCH   1   2
END_RES ARG D 557
BEGIN_RES GLU D 570
REMARK  3 active torsions:
REMARK  status: ('A' for Active; 'I' for Inactive)
REMARK    5  A    between atoms: CA   and  CB  
REMARK    6  A    between atoms: CB   and  CG  
REMARK    7  A    between atoms: CG   and  CD  
ROOT
ATOM     14  CA  GLU D 570     -18.033  -6.348 -13.375  1.00 32.92     0.160 C 
ENDROOT
BRANCH  14  15
ATOM     15  CB  GLU D 570     -19.500  -6.345 -13.794  1.00 32.92     0.043 C 
BRANCH  15  16
ATOM     16  CG  GLU D 570     -20.426  -5.462 -13.039  1.00 32.92     0.100 C 
BRANCH  16  17
ATOM     17  CD  GLU D 570     -21.671  -5.109 -13.818  1.00 32.92     0.185 C 
ATOM     18  OE1 GLU D 570     -21.567  -4.816 -15.025  1.00 32.92    -0.647 OA
ATOM     19  OE2 GLU D 570     -22.761  -5.111 -13.212  1.00 32.92    -0.647 OA
ENDBRANCH  16  17
ENDBRANCH  15  16
ENDBRANCH  14  15
END_RES GLU D 570
ENDMDL
MODEL 7
REMARK VINA RESULT:      -6.5      2.768      4.863
REMARK  18 active torsions:
REMARK  status: ('A' for Active; 'I' for Inactive)
REMARK    1  A    between atoms: C_2  and  C_3 
REMARK    2  A    between atoms: C_3  and  C_4 
REMARK    3  A    between atoms: C_4  and  C_5 
REMARK    4  A    between atoms: C_5  and  C_6 
REMARK    5  A    between atoms: C_6  and  C_7 
REMARK    6  A    between atoms: C_7  and  C_8 
REMARK    7  A    between atoms: C_8  and  C_9 
REMARK    8  A    between atoms: C_9  and  C_10 
REMARK    9  A    between atoms: C_10  and  C_11 
REMARK   10  A    between atoms: C_11  and  C_12 
REMARK   11  A    between atoms: C_12  and  C_13 
REMARK   12  A    between atoms: C_13  and  C_14 
REMARK   13  A    between atoms: C_14  and  C_15 
REMARK   14  A    between atoms: C_15  and  C_16 
REMARK   15  A    between atoms: C_16  and  O_17 
REMARK   16  A    between atoms: O_17  and  C_18 
REMARK   17  A    between atoms: C_18  and  C_20 
REMARK   18  A    between atoms: C_20  and  O_22 
ROOT
HETATM    1  C   UNL     1     -22.924  -5.087 -12.842  1.00  0.00     0.000 C 
ENDROOT
BRANCH   1   2
HETATM    2  C   UNL     1     -22.109  -3.839 -12.547  1.00  0.00     0.000 C 
BRANCH   2   3
HETATM    3  C   UNL     1     -22.862  -2.928 -11.590  1.00  0.00     0.000 C 
BRANCH   3   4
HETATM    4  C   UNL     1     -24.278  -3.441 -11.378  1.00  0.00     0.000 C 
BRANCH   4   5
HETATM    5  C   UNL     1     -24.349  -4.293 -10.119  1.00  0.00     0.000 C 
BRANCH   5   6
HETATM    6  C   UNL     1     -23.835  -3.509  -8.922  1.00  0.00     0.000 C 
BRANCH   6   7
HETATM    7  C   UNL     1     -22.841  -4.347  -8.132  1.00  0.00     0.000 C 
BRANCH   7   8
HETATM    8  C   UNL     1     -21.442  -3.762  -8.254  1.00  0.00     0.000 C 
BRANCH   8   9
HETATM    9  C   UNL     1     -20.412  -4.876  -8.390  1.00  0.00     0.000 C 
BRANCH   9  10
HETATM   10  C   UNL     1     -19.348  -4.750  -7.307  1.00  0.00    -0.000 C 
BRANCH  10  11
HETATM   11  C   UNL     1     -19.977  -4.773  -5.920  1.00  0.00    -0.005 C 
HETATM   12  C   UNL     1     -20.455  -6.169  -5.566  1.00  0.00     0.005 C 
ENDBRANCH  10  11
ENDBRANCH   9  10
ENDBRANCH   8   9
ENDBRANCH   7   8
ENDBRANCH   6   7
ENDBRANCH   5   6
ENDBRANCH   4   5
ENDBRANCH   3   4
ENDBRANCH   2   3
ENDBRANCH   1   2
BRANCH   1  13
HETATM   13  C   UNL     1     -23.112  -5.264 -14.346  1.00  0.00     0.000 C 
BRANCH  13  14
HETATM   14  C   UNL     1     -24.295  -6.178 -14.645  1.00  0.00     0.002 C 
BRANCH  14  15
HETATM   15  C   UNL     1     -24.138  -6.866 -15.996  1.00  0.00     0.027 C 
BRANCH  15  16
HETATM   16  C   UNL     1     -25.468  -6.948 -16.723  1.00  0.00     0.178 C 
BRANCH  16  17
HETATM   17  O   UNL     1     -26.461  -6.215 -15.993  1.00  0.00    -0.319 OA
BRANCH  17  18
HETATM   18  C   UNL     1     -27.600  -6.934 -15.756  1.00  0.00     0.287 C 
HETATM   19  O   UNL     1     -27.707  -7.835 -14.942  1.00  0.00    -0.262 OA
BRANCH  18  20
HETATM   20  C   UNL     1     -28.745  -6.477 -16.669  1.00  0.00     0.213 C 
HETATM   21  C   UNL     1     -29.515  -7.663 -17.222  1.00  0.00     0.050 C 
BRANCH  20  22
HETATM   22  O   UNL     1     -29.666  -5.640 -15.974  1.00  0.00    -0.386 OA
HETATM   23  H   UNL     1     -30.181  -5.161 -16.654  1.00  0.00     0.210 HD
ENDBRANCH  20  22
ENDBRANCH  18  20
ENDBRANCH  17  18
ENDBRANCH  16  17
ENDBRANCH  15  16
ENDBRANCH  14  15
ENDBRANCH  13  14
ENDBRANCH   1  13
TORSDOF 18
BEGIN_RES ARG D 557
REMARK  4 active torsions:
REMARK  status: ('A' for Active; 'I' for Inactive)
REMARK    1  A    between atoms: CA   and  CB  
REMARK    2  A    between atoms: CB   and  CG  
REMARK    3  A    between atoms: CG   and  CD  
REMARK    4  A    between atoms: CD   and  NE  
REMARK       I    between atoms: NE   and  CZ  
REMARK       I    between atoms: CZ   and  NH1 
REMARK       I    between atoms: CZ   and  NH2 
ROOT
ATOM      1  CA  ARG D 557     -26.217   2.705 -17.014  1.00 35.49     0.159 C 
ENDROOT
BRANCH   1   2
ATOM      2  CB  ARG D 557     -26.789   1.319 -17.183  1.00 35.49     0.034 C 
BRANCH   2   3
ATOM      3  CG  ARG D 557     -28.198   1.137 -16.815  1.00 35.49     0.027 C 
BRANCH   3   4
ATOM      4  CD  ARG D 557     -28.710  -0.203 -17.187  1.00 35.49     0.116 C 
BRANCH   4   5
ATOM      5  NE  ARG D 557     -27.966  -1.261 -16.557  1.00 35.49    -0.212 N 
ATOM      6  CZ  ARG D 557     -28.171  -2.549 -16.723  1.00 35.49     0.666 C 
ATOM      7  NH1 ARG D 557     -29.126  -3.020 -17.503  1.00 35.49    -0.235 N 
ATOM      8  NH2 ARG D 557     -27.385  -3.369 -16.087  1.00 35.49    -0.235 N 
ATOM      9  HH  ARG D 557     -29.654  -2.498 -17.932  1.00 35.49     0.174 HD
ATOM     10  HH  ARG D 557     -29.211  -3.869 -17.575  1.00 35.49     0.174 HD
ATOM     11  HH  ARG D 557     -26.772  -3.036 -15.596  1.00 35.49     0.174 HD
ATOM     12  HH  ARG D 557     -27.484  -4.206 -16.173  1.00 35.49     0.174 HD
ATOM     13  HE  ARG D 557     -27.377  -1.048 -15.981  1.00 35.49     0.178 HD
ENDBRANCH   4   5
ENDBRANCH   3   4
ENDBRANCH   2   3
ENDBRANCH   1   2
END_RES ARG D 557
BEGIN_RES GLU D 570
REMARK  3 active torsions:
REMARK  status: ('A' for Active; 'I' for Inactive)
REMARK    5  A    between atoms: CA   and  CB  
REMARK    6  A    between atoms: CB   and  CG  
REMARK    7  A    between atoms: CG   and  CD  
ROOT
ATOM     14  CA  GLU D 570     -18.033  -6.348 -13.375  1.00 32.92     0.160 C 
ENDROOT
BRANCH  14  15
ATOM     15  CB  GLU D 570     -19.500  -6.345 -13.794  1.00 32.92     0.043 C 
BRANCH  15  16
ATOM     16  CG  GLU D 570     -20.088  -7.635 -14.238  1.00 32.92     0.100 C 
BRANCH  16  17
ATOM     17  CD  GLU D 570     -20.528  -7.617 -15.683  1.00 32.92     0.185 C 
ATOM     18  OE1 GLU D 570     -20.565  -6.530 -16.290  1.00 32.92    -0.647 OA
ATOM     19  OE2 GLU D 570     -20.854  -8.699 -16.209  1.00 32.92    -0.647 OA
ENDBRANCH  16  17
ENDBRANCH  15  16
ENDBRANCH  14  15
END_RES GLU D 570
ENDMDL
MODEL 8
REMARK VINA RESULT:      -6.5      1.418      2.120
REMARK  18 active torsions:
REMARK  status: ('A' for Active; 'I' for Inactive)
REMARK    1  A    between atoms: C_2  and  C_3 
REMARK    2  A    between atoms: C_3  and  C_4 
REMARK    3  A    between atoms: C_4  and  C_5 
REMARK    4  A    between atoms: C_5  and  C_6 
REMARK    5  A    between atoms: C_6  and  C_7 
REMARK    6  A    between atoms: C_7  and  C_8 
REMARK    7  A    between atoms: C_8  and  C_9 
REMARK    8  A    between atoms: C_9  and  C_10 
REMARK    9  A    between atoms: C_10  and  C_11 
REMARK   10  A    between atoms: C_11  and  C_12 
REMARK   11  A    between atoms: C_12  and  C_13 
REMARK   12  A    between atoms: C_13  and  C_14 
REMARK   13  A    between atoms: C_14  and  C_15 
REMARK   14  A    between atoms: C_15  and  C_16 
REMARK   15  A    between atoms: C_16  and  O_17 
REMARK   16  A    between atoms: O_17  and  C_18 
REMARK   17  A    between atoms: C_18  and  C_20 
REMARK   18  A    between atoms: C_20  and  O_22 
ROOT
HETATM    1  C   UNL     1     -21.925  -3.968  -7.486  1.00  0.00     0.000 C 
ENDROOT
BRANCH   1   2
HETATM    2  C   UNL     1     -20.524  -4.223  -6.959  1.00  0.00     0.000 C 
BRANCH   2   3
HETATM    3  C   UNL     1     -20.578  -5.066  -5.695  1.00  0.00     0.000 C 
BRANCH   3   4
HETATM    4  C   UNL     1     -20.524  -6.546  -6.044  1.00  0.00     0.000 C 
BRANCH   4   5
HETATM    5  C   UNL     1     -21.448  -7.338  -5.131  1.00  0.00     0.000 C 
BRANCH   5   6
HETATM    6  C   UNL     1     -20.904  -8.742  -4.922  1.00  0.00     0.000 C 
BRANCH   6   7
HETATM    7  C   UNL     1     -19.674  -8.702  -4.026  1.00  0.00     0.000 C 
BRANCH   7   8
HETATM    8  C   UNL     1     -19.918  -9.507  -2.759  1.00  0.00     0.000 C 
BRANCH   8   9
HETATM    9  C   UNL     1     -20.732  -8.693  -1.761  1.00  0.00     0.000 C 
BRANCH   9  10
HETATM   10  C   UNL     1     -22.008  -9.436  -1.385  1.00  0.00    -0.000 C 
BRANCH  10  11
HETATM   11  C   UNL     1     -22.278  -9.333   0.110  1.00  0.00    -0.005 C 
HETATM   12  C   UNL     1     -23.070  -8.079   0.431  1.00  0.00     0.005 C 
ENDBRANCH  10  11
ENDBRANCH   9  10
ENDBRANCH   8   9
ENDBRANCH   7   8
ENDBRANCH   6   7
ENDBRANCH   5   6
ENDBRANCH   4   5
ENDBRANCH   3   4
ENDBRANCH   2   3
ENDBRANCH   1   2
BRANCH   1  13
HETATM   13  C   UNL     1     -21.949  -4.043  -9.010  1.00  0.00     0.000 C 
BRANCH  13  14
HETATM   14  C   UNL     1     -20.535  -4.089  -9.577  1.00  0.00     0.002 C 
BRANCH  14  15
HETATM   15  C   UNL     1     -20.546  -4.041 -11.101  1.00  0.00     0.027 C 
BRANCH  15  16
HETATM   16  C   UNL     1     -21.962  -4.143 -11.638  1.00  0.00     0.178 C 
BRANCH  16  17
HETATM   17  O   UNL     1     -22.208  -3.070 -12.556  1.00  0.00    -0.319 OA
BRANCH  17  18
HETATM   18  C   UNL     1     -23.536  -2.867 -12.809  1.00  0.00     0.287 C 
HETATM   19  O   UNL     1     -24.409  -2.774 -11.964  1.00  0.00    -0.262 OA
BRANCH  18  20
HETATM   20  C   UNL     1     -23.807  -2.789 -14.318  1.00  0.00     0.213 C 
HETATM   21  C   UNL     1     -24.662  -1.582 -14.663  1.00  0.00     0.050 C 
BRANCH  20  22
HETATM   22  O   UNL     1     -22.594  -2.695 -15.063  1.00  0.00    -0.386 OA
HETATM   23  H   UNL     1     -22.242  -3.603 -15.143  1.00  0.00     0.210 HD
ENDBRANCH  20  22
ENDBRANCH  18  20
ENDBRANCH  17  18
ENDBRANCH  16  17
ENDBRANCH  15  16
ENDBRANCH  14  15
ENDBRANCH  13  14
ENDBRANCH   1  13
TORSDOF 18
BEGIN_RES ARG D 557
REMARK  4 active torsions:
REMARK  status: ('A' for Active; 'I' for Inactive)
REMARK    1  A    between atoms: CA   and  CB  
REMARK    2  A    between atoms: CB   and  CG  
REMARK    3  A    between atoms: CG   and  CD  
REMARK    4  A    between atoms: CD   and  NE  
REMARK       I    between atoms: NE   and  CZ  
REMARK       I    between atoms: CZ   and  NH1 
REMARK       I    between atoms: CZ   and  NH2 
ROOT
ATOM      1  CA  ARG D 557     -26.217   2.705 -17.014  1.00 35.49     0.159 C 
ENDROOT
BRANCH   1   2
ATOM      2  CB  ARG D 557     -26.789   1.319 -17.183  1.00 35.49     0.034 C 
BRANCH   2   3
ATOM      3  CG  ARG D 557     -28.230   1.227 -17.450  1.00 35.49     0.027 C 
BRANCH   3   4
ATOM      4  CD  ARG D 557     -28.910   0.268 -16.550  1.00 35.49     0.116 C 
BRANCH   4   5
ATOM      5  NE  ARG D 557     -28.097  -0.886 -16.272  1.00 35.49    -0.212 N 
ATOM      6  CZ  ARG D 557     -28.320  -2.106 -16.708  1.00 35.49     0.666 C 
ATOM      7  NH1 ARG D 557     -29.361  -2.410 -17.462  1.00 35.49    -0.235 N 
ATOM      8  NH2 ARG D 557     -27.465  -3.029 -16.375  1.00 35.49    -0.235 N 
ATOM      9  HH  ARG D 557     -29.935  -1.818 -17.695  1.00 35.49     0.174 HD
ATOM     10  HH  ARG D 557     -29.454  -3.222 -17.719  1.00 35.49     0.174 HD
ATOM     11  HH  ARG D 557     -26.799  -2.802 -15.894  1.00 35.49     0.174 HD
ATOM     12  HH  ARG D 557     -27.574  -3.826 -16.641  1.00 35.49     0.174 HD
ATOM     13  HE  ARG D 557     -27.445  -0.796 -15.734  1.00 35.49     0.178 HD
ENDBRANCH   4   5
ENDBRANCH   3   4
ENDBRANCH   2   3
ENDBRANCH   1   2
END_RES ARG D 557
BEGIN_RES GLU D 570
REMARK  3 active torsions:
REMARK  status: ('A' for Active; 'I' for Inactive)
REMARK    5  A    between atoms: CA   and  CB  
REMARK    6  A    between atoms: CB   and  CG  
REMARK    7  A    between atoms: CG   and  CD  
ROOT
ATOM     14  CA  GLU D 570     -18.033  -6.348 -13.375  1.00 32.92     0.160 C 
ENDROOT
BRANCH  14  15
ATOM     15  CB  GLU D 570     -19.500  -6.345 -13.794  1.00 32.92     0.043 C 
BRANCH  15  16
ATOM     16  CG  GLU D 570     -19.798  -6.200 -15.242  1.00 32.92     0.100 C 
BRANCH  16  17
ATOM     17  CD  GLU D 570     -21.169  -5.623 -15.507  1.00 32.92     0.185 C 
ATOM     18  OE1 GLU D 570     -21.363  -4.978 -16.556  1.00 32.92    -0.647 OA
ATOM     19  OE2 GLU D 570     -22.055  -5.803 -14.648  1.00 32.92    -0.647 OA
ENDBRANCH  16  17
ENDBRANCH  15  16
ENDBRANCH  14  15
END_RES GLU D 570
ENDMDL
MODEL 9
REMARK VINA RESULT:      -6.4      1.967      3.468
REMARK  18 active torsions:
REMARK  status: ('A' for Active; 'I' for Inactive)
REMARK    1  A    between atoms: C_2  and  C_3 
REMARK    2  A    between atoms: C_3  and  C_4 
REMARK    3  A    between atoms: C_4  and  C_5 
REMARK    4  A    between atoms: C_5  and  C_6 
REMARK    5  A    between atoms: C_6  and  C_7 
REMARK    6  A    between atoms: C_7  and  C_8 
REMARK    7  A    between atoms: C_8  and  C_9 
REMARK    8  A    between atoms: C_9  and  C_10 
REMARK    9  A    between atoms: C_10  and  C_11 
REMARK   10  A    between atoms: C_11  and  C_12 
REMARK   11  A    between atoms: C_12  and  C_13 
REMARK   12  A    between atoms: C_13  and  C_14 
REMARK   13  A    between atoms: C_14  and  C_15 
REMARK   14  A    between atoms: C_15  and  C_16 
REMARK   15  A    between atoms: C_16  and  O_17 
REMARK   16  A    between atoms: O_17  and  C_18 
REMARK   17  A    between atoms: C_18  and  C_20 
REMARK   18  A    between atoms: C_20  and  O_22 
ROOT
HETATM    1  C   UNL     1     -20.238  -5.896  -6.805  1.00  0.00     0.000 C 
ENDROOT
BRANCH   1   2
HETATM    2  C   UNL     1     -21.620  -5.479  -6.333  1.00  0.00     0.000 C 
BRANCH   2   3
HETATM    3  C   UNL     1     -22.091  -6.383  -5.205  1.00  0.00     0.000 C 
BRANCH   3   4
HETATM    4  C   UNL     1     -20.924  -7.188  -4.652  1.00  0.00     0.000 C 
BRANCH   4   5
HETATM    5  C   UNL     1     -21.288  -8.663  -4.578  1.00  0.00     0.000 C 
BRANCH   5   6
HETATM    6  C   UNL     1     -20.047  -9.499  -4.309  1.00  0.00     0.000 C 
BRANCH   6   7
HETATM    7  C   UNL     1     -19.544  -9.254  -2.894  1.00  0.00     0.000 C 
BRANCH   7   8
HETATM    8  C   UNL     1     -20.058 -10.335  -1.955  1.00  0.00     0.000 C 
BRANCH   8   9
HETATM    9  C   UNL     1     -20.762  -9.709  -0.759  1.00  0.00     0.000 C 
BRANCH   9  10
HETATM   10  C   UNL     1     -20.783  -8.192  -0.890  1.00  0.00    -0.000 C 
BRANCH  10  11
HETATM   11  C   UNL     1     -22.213  -7.666  -0.910  1.00  0.00    -0.005 C 
HETATM   12  C   UNL     1     -22.266  -6.266  -1.493  1.00  0.00     0.005 C 
ENDBRANCH  10  11
ENDBRANCH   9  10
ENDBRANCH   8   9
ENDBRANCH   7   8
ENDBRANCH   6   7
ENDBRANCH   5   6
ENDBRANCH   4   5
ENDBRANCH   3   4
ENDBRANCH   2   3
ENDBRANCH   1   2
BRANCH   1  13
HETATM   13  C   UNL     1     -19.440  -4.683  -7.275  1.00  0.00     0.000 C 
BRANCH  13  14
HETATM   14  C   UNL     1     -20.161  -3.961  -8.408  1.00  0.00     0.002 C 
BRANCH  14  15
HETATM   15  C   UNL     1     -20.033  -4.723  -9.722  1.00  0.00     0.027 C 
BRANCH  15  16
HETATM   16  C   UNL     1     -20.522  -3.883 -10.888  1.00  0.00     0.178 C 
BRANCH  16  17
HETATM   17  O   UNL     1     -21.760  -4.414 -11.379  1.00  0.00    -0.319 OA
BRANCH  17  18
HETATM   18  C   UNL     1     -22.728  -3.464 -11.549  1.00  0.00     0.287 C 
HETATM   19  O   UNL     1     -22.591  -2.420 -12.162  1.00  0.00    -0.262 OA
BRANCH  18  20
HETATM   20  C   UNL     1     -24.030  -3.867 -10.842  1.00  0.00     0.213 C 
HETATM   21  C   UNL     1     -23.941  -3.627  -9.345  1.00  0.00     0.050 C 
BRANCH  20  22
HETATM   22  O   UNL     1     -25.145  -3.130 -11.340  1.00  0.00    -0.386 OA
HETATM   23  H   UNL     1     -25.110  -2.248 -10.921  1.00  0.00     0.210 HD
ENDBRANCH  20  22
ENDBRANCH  18  20
ENDBRANCH  17  18
ENDBRANCH  16  17
ENDBRANCH  15  16
ENDBRANCH  14  15
ENDBRANCH  13  14
ENDBRANCH   1  13
TORSDOF 18
BEGIN_RES ARG D 557
REMARK  4 active torsions:
REMARK  status: ('A' for Active; 'I' for Inactive)
REMARK    1  A    between atoms: CA   and  CB  
REMARK    2  A    between atoms: CB   and  CG  
REMARK    3  A    between atoms: CG   and  CD  
REMARK    4  A    between atoms: CD   and  NE  
REMARK       I    between atoms: NE   and  CZ  
REMARK       I    between atoms: CZ   and  NH1 
REMARK       I    between atoms: CZ   and  NH2 
ROOT
ATOM      1  CA  ARG D 557     -26.217   2.705 -17.014  1.00 35.49     0.159 C 
ENDROOT
BRANCH   1   2
ATOM      2  CB  ARG D 557     -26.789   1.319 -17.183  1.00 35.49     0.034 C 
BRANCH   2   3
ATOM      3  CG  ARG D 557     -25.991   0.206 -16.654  1.00 35.49     0.027 C 
BRANCH   3   4
ATOM      4  CD  ARG D 557     -26.812  -0.769 -15.900  1.00 35.49     0.116 C 
BRANCH   4   5
ATOM      5  NE  ARG D 557     -26.069  -1.952 -15.556  1.00 35.49    -0.212 N 
ATOM      6  CZ  ARG D 557     -25.020  -1.997 -14.765  1.00 35.49     0.666 C 
ATOM      7  NH1 ARG D 557     -24.513  -0.919 -14.197  1.00 35.49    -0.235 N 
ATOM      8  NH2 ARG D 557     -24.483  -3.163 -14.546  1.00 35.49    -0.235 N 
ATOM      9  HH  ARG D 557     -24.852  -0.142 -14.325  1.00 35.49     0.174 HD
ATOM     10  HH  ARG D 557     -23.830  -1.010 -13.688  1.00 35.49     0.174 HD
ATOM     11  HH  ARG D 557     -24.836  -3.843 -14.921  1.00 35.49     0.174 HD
ATOM     12  HH  ARG D 557     -23.808  -3.232 -14.039  1.00 35.49     0.174 HD
ATOM     13  HE  ARG D 557     -26.283  -2.682 -15.935  1.00 35.49     0.178 HD
ENDBRANCH   4   5
ENDBRANCH   3   4
ENDBRANCH   2   3
ENDBRANCH   1   2
END_RES ARG D 557
BEGIN_RES GLU D 570
REMARK  3 active torsions:
REMARK  status: ('A' for Active; 'I' for Inactive)
REMARK    5  A    between atoms: CA   and  CB  
REMARK    6  A    between atoms: CB   and  CG  
REMARK    7  A    between atoms: CG   and  CD  
ROOT
ATOM     14  CA  GLU D 570     -18.033  -6.348 -13.375  1.00 32.92     0.160 C 
ENDROOT
BRANCH  14  15
ATOM     15  CB  GLU D 570     -19.500  -6.345 -13.794  1.00 32.92     0.043 C 
BRANCH  15  16
ATOM     16  CG  GLU D 570     -19.797  -6.218 -15.244  1.00 32.92     0.100 C 
BRANCH  16  17
ATOM     17  CD  GLU D 570     -21.054  -5.426 -15.521  1.00 32.92     0.185 C 
ATOM     18  OE1 GLU D 570     -21.371  -5.188 -16.702  1.00 32.92    -0.647 OA
ATOM     19  OE2 GLU D 570     -21.718  -5.024 -14.546  1.00 32.92    -0.647 OA
ENDBRANCH  16  17
ENDBRANCH  15  16
ENDBRANCH  14  15
END_RES GLU D 570
ENDMDL
