MODEL 1
REMARK VINA RESULT:      -1.0      0.000      0.000
REMARK  5 active torsions:
REMARK  status: ('A' for Active; 'I' for Inactive)
REMARK    1  A    between atoms: N_2  and  C_5 
REMARK    2  A    between atoms: C_13  and  O_27 
REMARK    3  A    between atoms: C_14  and  N_15 
REMARK    4  A    between atoms: N_17  and  C_19 
REMARK    5  A    between atoms: C_24  and  O_25 
ROOT
HETATM    1 CL   UNL     2     -29.830   7.437 -12.751  1.00  0.00     0.000 Cl
ENDROOT
TORSDOF 5
BEGIN_RES ARG D 557
REMARK  4 active torsions:
REMARK  status: ('A' for Active; 'I' for Inactive)
REMARK    1  A    between atoms: CA   and  CB  
REMARK    2  A    between atoms: CB   and  CG  
REMARK    3  A    between atoms: CG   and  CD  
REMARK    4  A    between atoms: CD   and  NE  
REMARK       I    between atoms: NE   and  CZ  
REMARK       I    between atoms: CZ   and  NH1 
REMARK       I    between atoms: CZ   and  NH2 
ROOT
ATOM      1  CA  ARG D 557     -26.217   2.705 -17.014  1.00 35.49     0.159 C 
ENDROOT
BRANCH   1   2
ATOM      2  CB  ARG D 557     -26.789   1.319 -17.183  1.00 35.49     0.034 C 
BRANCH   2   3
ATOM      3  CG  ARG D 557     -25.835   0.203 -17.158  1.00 35.49     0.027 C 
BRANCH   3   4
ATOM      4  CD  ARG D 557     -24.748   0.412 -16.174  1.00 35.49     0.116 C 
BRANCH   4   5
ATOM      5  NE  ARG D 557     -24.894  -0.432 -15.018  1.00 35.49    -0.212 N 
ATOM      6  CZ  ARG D 557     -24.082  -1.405 -14.670  1.00 35.49     0.666 C 
ATOM      7  NH1 ARG D 557     -23.017  -1.729 -15.380  1.00 35.49    -0.235 N 
ATOM      8  NH2 ARG D 557     -24.357  -2.054 -13.576  1.00 35.49    -0.235 N 
ATOM      9  HH  ARG D 557     -22.816  -1.314 -16.102  1.00 35.49     0.174 HD
ATOM     10  HH  ARG D 557     -22.523  -2.371 -15.103  1.00 35.49     0.174 HD
ATOM     11  HH  ARG D 557     -25.047  -1.818 -13.133  1.00 35.49     0.174 HD
ATOM     12  HH  ARG D 557     -23.854  -2.686 -13.317  1.00 35.49     0.174 HD
ATOM     13  HE  ARG D 557     -25.593  -0.341 -14.542  1.00 35.49     0.178 HD
ENDBRANCH   4   5
ENDBRANCH   3   4
ENDBRANCH   2   3
ENDBRANCH   1   2
END_RES ARG D 557
BEGIN_RES GLU D 570
REMARK  3 active torsions:
REMARK  status: ('A' for Active; 'I' for Inactive)
REMARK    5  A    between atoms: CA   and  CB  
REMARK    6  A    between atoms: CB   and  CG  
REMARK    7  A    between atoms: CG   and  CD  
ROOT
ATOM     14  CA  GLU D 570     -18.033  -6.348 -13.375  1.00 32.92     0.160 C 
ENDROOT
BRANCH  14  15
ATOM     15  CB  GLU D 570     -19.500  -6.345 -13.794  1.00 32.92     0.043 C 
BRANCH  15  16
ATOM     16  CG  GLU D 570     -20.442  -5.533 -12.982  1.00 32.92     0.100 C 
BRANCH  16  17
ATOM     17  CD  GLU D 570     -21.740  -5.242 -13.699  1.00 32.92     0.185 C 
ATOM     18  OE1 GLU D 570     -22.225  -6.112 -14.449  1.00 32.92    -0.647 OA
ATOM     19  OE2 GLU D 570     -22.268  -4.127 -13.523  1.00 32.92    -0.647 OA
ENDBRANCH  16  17
ENDBRANCH  15  16
ENDBRANCH  14  15
END_RES GLU D 570
ENDMDL
MODEL 2
REMARK VINA RESULT:      -1.0      5.763      5.763
REMARK  5 active torsions:
REMARK  status: ('A' for Active; 'I' for Inactive)
REMARK    1  A    between atoms: N_2  and  C_5 
REMARK    2  A    between atoms: C_13  and  O_27 
REMARK    3  A    between atoms: C_14  and  N_15 
REMARK    4  A    between atoms: N_17  and  C_19 
REMARK    5  A    between atoms: C_24  and  O_25 
ROOT
HETATM    1 CL   UNL     2     -22.287  -6.265  -1.766  1.00  0.00     0.000 Cl
ENDROOT
TORSDOF 5
BEGIN_RES ARG D 557
REMARK  4 active torsions:
REMARK  status: ('A' for Active; 'I' for Inactive)
REMARK    1  A    between atoms: CA   and  CB  
REMARK    2  A    between atoms: CB   and  CG  
REMARK    3  A    between atoms: CG   and  CD  
REMARK    4  A    between atoms: CD   and  NE  
REMARK       I    between atoms: NE   and  CZ  
REMARK       I    between atoms: CZ   and  NH1 
REMARK       I    between atoms: CZ   and  NH2 
ROOT
ATOM      1  CA  ARG D 557     -26.217   2.705 -17.014  1.00 35.49     0.159 C 
ENDROOT
BRANCH   1   2
ATOM      2  CB  ARG D 557     -26.789   1.319 -17.183  1.00 35.49     0.034 C 
BRANCH   2   3
ATOM      3  CG  ARG D 557     -25.837   0.202 -17.144  1.00 35.49     0.027 C 
BRANCH   3   4
ATOM      4  CD  ARG D 557     -24.760   0.414 -16.150  1.00 35.49     0.116 C 
BRANCH   4   5
ATOM      5  NE  ARG D 557     -24.900  -0.449 -15.006  1.00 35.49    -0.212 N 
ATOM      6  CZ  ARG D 557     -24.078  -1.416 -14.668  1.00 35.49     0.666 C 
ATOM      7  NH1 ARG D 557     -23.006  -1.716 -15.378  1.00 35.49    -0.235 N 
ATOM      8  NH2 ARG D 557     -24.350  -2.084 -13.584  1.00 35.49    -0.235 N 
ATOM      9  HH  ARG D 557     -22.807  -1.289 -16.093  1.00 35.49     0.174 HD
ATOM     10  HH  ARG D 557     -22.505  -2.356 -15.107  1.00 35.49     0.174 HD
ATOM     11  HH  ARG D 557     -25.045  -1.863 -13.142  1.00 35.49     0.174 HD
ATOM     12  HH  ARG D 557     -23.840  -2.713 -13.332  1.00 35.49     0.174 HD
ATOM     13  HE  ARG D 557     -25.603  -0.373 -14.533  1.00 35.49     0.178 HD
ENDBRANCH   4   5
ENDBRANCH   3   4
ENDBRANCH   2   3
ENDBRANCH   1   2
END_RES ARG D 557
BEGIN_RES GLU D 570
REMARK  3 active torsions:
REMARK  status: ('A' for Active; 'I' for Inactive)
REMARK    5  A    between atoms: CA   and  CB  
REMARK    6  A    between atoms: CB   and  CG  
REMARK    7  A    between atoms: CG   and  CD  
ROOT
ATOM     14  CA  GLU D 570     -18.033  -6.348 -13.375  1.00 32.92     0.160 C 
ENDROOT
BRANCH  14  15
ATOM     15  CB  GLU D 570     -19.500  -6.345 -13.794  1.00 32.92     0.043 C 
BRANCH  15  16
ATOM     16  CG  GLU D 570     -20.447  -5.555 -12.966  1.00 32.92     0.100 C 
BRANCH  16  17
ATOM     17  CD  GLU D 570     -21.734  -5.232 -13.688  1.00 32.92     0.185 C 
ATOM     18  OE1 GLU D 570     -22.253  -6.099 -14.416  1.00 32.92    -0.647 OA
ATOM     19  OE2 GLU D 570     -22.220  -4.093 -13.537  1.00 32.92    -0.647 OA
ENDBRANCH  16  17
ENDBRANCH  15  16
ENDBRANCH  14  15
END_RES GLU D 570
ENDMDL
MODEL 3
REMARK VINA RESULT:      -0.8      3.869      3.869
REMARK  5 active torsions:
REMARK  status: ('A' for Active; 'I' for Inactive)
REMARK    1  A    between atoms: N_2  and  C_5 
REMARK    2  A    between atoms: C_13  and  O_27 
REMARK    3  A    between atoms: C_14  and  N_15 
REMARK    4  A    between atoms: N_17  and  C_19 
REMARK    5  A    between atoms: C_24  and  O_25 
ROOT
HETATM    1 CL   UNL     2     -23.919   5.767  -1.484  1.00  0.00     0.000 Cl
ENDROOT
TORSDOF 5
BEGIN_RES ARG D 557
REMARK  4 active torsions:
REMARK  status: ('A' for Active; 'I' for Inactive)
REMARK    1  A    between atoms: CA   and  CB  
REMARK    2  A    between atoms: CB   and  CG  
REMARK    3  A    between atoms: CG   and  CD  
REMARK    4  A    between atoms: CD   and  NE  
REMARK       I    between atoms: NE   and  CZ  
REMARK       I    between atoms: CZ   and  NH1 
REMARK       I    between atoms: CZ   and  NH2 
ROOT
ATOM      1  CA  ARG D 557     -26.217   2.705 -17.014  1.00 35.49     0.159 C 
ENDROOT
BRANCH   1   2
ATOM      2  CB  ARG D 557     -26.789   1.319 -17.183  1.00 35.49     0.034 C 
BRANCH   2   3
ATOM      3  CG  ARG D 557     -25.835   0.204 -17.166  1.00 35.49     0.027 C 
BRANCH   3   4
ATOM      4  CD  ARG D 557     -24.761   0.395 -16.165  1.00 35.49     0.116 C 
BRANCH   4   5
ATOM      5  NE  ARG D 557     -24.927  -0.462 -15.021  1.00 35.49    -0.212 N 
ATOM      6  CZ  ARG D 557     -24.117  -1.435 -14.666  1.00 35.49     0.666 C 
ATOM      7  NH1 ARG D 557     -23.036  -1.745 -15.357  1.00 35.49    -0.235 N 
ATOM      8  NH2 ARG D 557     -24.412  -2.097 -13.585  1.00 35.49    -0.235 N 
ATOM      9  HH  ARG D 557     -22.821  -1.321 -16.070  1.00 35.49     0.174 HD
ATOM     10  HH  ARG D 557     -22.543  -2.387 -15.076  1.00 35.49     0.174 HD
ATOM     11  HH  ARG D 557     -25.113  -1.870 -13.155  1.00 35.49     0.174 HD
ATOM     12  HH  ARG D 557     -23.911  -2.729 -13.322  1.00 35.49     0.174 HD
ATOM     13  HE  ARG D 557     -25.636  -0.380 -14.560  1.00 35.49     0.178 HD
ENDBRANCH   4   5
ENDBRANCH   3   4
ENDBRANCH   2   3
ENDBRANCH   1   2
END_RES ARG D 557
BEGIN_RES GLU D 570
REMARK  3 active torsions:
REMARK  status: ('A' for Active; 'I' for Inactive)
REMARK    5  A    between atoms: CA   and  CB  
REMARK    6  A    between atoms: CB   and  CG  
REMARK    7  A    between atoms: CG   and  CD  
ROOT
ATOM     14  CA  GLU D 570     -18.033  -6.348 -13.375  1.00 32.92     0.160 C 
ENDROOT
BRANCH  14  15
ATOM     15  CB  GLU D 570     -19.500  -6.345 -13.794  1.00 32.92     0.043 C 
BRANCH  15  16
ATOM     16  CG  GLU D 570     -20.439  -5.516 -12.995  1.00 32.92     0.100 C 
BRANCH  16  17
ATOM     17  CD  GLU D 570     -21.736  -5.234 -13.715  1.00 32.92     0.185 C 
ATOM     18  OE1 GLU D 570     -22.187  -6.086 -14.505  1.00 32.92    -0.647 OA
ATOM     19  OE2 GLU D 570     -22.300  -4.143 -13.500  1.00 32.92    -0.647 OA
ENDBRANCH  16  17
ENDBRANCH  15  16
ENDBRANCH  14  15
END_RES GLU D 570
ENDMDL
MODEL 4
REMARK VINA RESULT:      -0.8      5.579      5.656
REMARK  5 active torsions:
REMARK  status: ('A' for Active; 'I' for Inactive)
REMARK    1  A    between atoms: N_2  and  C_5 
REMARK    2  A    between atoms: C_13  and  O_27 
REMARK    3  A    between atoms: C_14  and  N_15 
REMARK    4  A    between atoms: N_17  and  C_19 
REMARK    5  A    between atoms: C_24  and  O_25 
ROOT
HETATM    1 CL   UNL     2     -11.441   5.393 -12.823  1.00  0.00     0.000 Cl
ENDROOT
TORSDOF 5
BEGIN_RES ARG D 557
REMARK  4 active torsions:
REMARK  status: ('A' for Active; 'I' for Inactive)
REMARK    1  A    between atoms: CA   and  CB  
REMARK    2  A    between atoms: CB   and  CG  
REMARK    3  A    between atoms: CG   and  CD  
REMARK    4  A    between atoms: CD   and  NE  
REMARK       I    between atoms: NE   and  CZ  
REMARK       I    between atoms: CZ   and  NH1 
REMARK       I    between atoms: CZ   and  NH2 
ROOT
ATOM      1  CA  ARG D 557     -26.217   2.705 -17.014  1.00 35.49     0.159 C 
ENDROOT
BRANCH   1   2
ATOM      2  CB  ARG D 557     -26.789   1.319 -17.183  1.00 35.49     0.034 C 
BRANCH   2   3
ATOM      3  CG  ARG D 557     -25.836   0.203 -17.157  1.00 35.49     0.027 C 
BRANCH   3   4
ATOM      4  CD  ARG D 557     -24.759   0.404 -16.161  1.00 35.49     0.116 C 
BRANCH   4   5
ATOM      5  NE  ARG D 557     -24.915  -0.450 -15.013  1.00 35.49    -0.212 N 
ATOM      6  CZ  ARG D 557     -24.104  -1.424 -14.665  1.00 35.49     0.666 C 
ATOM      7  NH1 ARG D 557     -23.031  -1.739 -15.366  1.00 35.49    -0.235 N 
ATOM      8  NH2 ARG D 557     -24.389  -2.083 -13.579  1.00 35.49    -0.235 N 
ATOM      9  HH  ARG D 557     -22.823  -1.317 -16.083  1.00 35.49     0.174 HD
ATOM     10  HH  ARG D 557     -22.538  -2.382 -15.089  1.00 35.49     0.174 HD
ATOM     11  HH  ARG D 557     -25.085  -1.853 -13.142  1.00 35.49     0.174 HD
ATOM     12  HH  ARG D 557     -23.888  -2.716 -13.320  1.00 35.49     0.174 HD
ATOM     13  HE  ARG D 557     -25.619  -0.364 -14.544  1.00 35.49     0.178 HD
ENDBRANCH   4   5
ENDBRANCH   3   4
ENDBRANCH   2   3
ENDBRANCH   1   2
END_RES ARG D 557
BEGIN_RES GLU D 570
REMARK  3 active torsions:
REMARK  status: ('A' for Active; 'I' for Inactive)
REMARK    5  A    between atoms: CA   and  CB  
REMARK    6  A    between atoms: CB   and  CG  
REMARK    7  A    between atoms: CG   and  CD  
ROOT
ATOM     14  CA  GLU D 570     -18.033  -6.348 -13.375  1.00 32.92     0.160 C 
ENDROOT
BRANCH  14  15
ATOM     15  CB  GLU D 570     -19.500  -6.345 -13.794  1.00 32.92     0.043 C 
BRANCH  15  16
ATOM     16  CG  GLU D 570     -20.442  -5.532 -12.982  1.00 32.92     0.100 C 
BRANCH  16  17
ATOM     17  CD  GLU D 570     -21.741  -5.245 -13.699  1.00 32.92     0.185 C 
ATOM     18  OE1 GLU D 570     -22.303  -4.148 -13.517  1.00 32.92    -0.647 OA
ATOM     19  OE2 GLU D 570     -22.211  -6.133 -14.437  1.00 32.92    -0.647 OA
ENDBRANCH  16  17
ENDBRANCH  15  16
ENDBRANCH  14  15
END_RES GLU D 570
ENDMDL
MODEL 5
REMARK VINA RESULT:      -0.8      3.960      4.083
REMARK  5 active torsions:
REMARK  status: ('A' for Active; 'I' for Inactive)
REMARK    1  A    between atoms: N_2  and  C_5 
REMARK    2  A    between atoms: C_13  and  O_27 
REMARK    3  A    between atoms: C_14  and  N_15 
REMARK    4  A    between atoms: N_17  and  C_19 
REMARK    5  A    between atoms: C_24  and  O_25 
ROOT
HETATM    1 CL   UNL     2     -36.990   0.495  -4.884  1.00  0.00     0.000 Cl
ENDROOT
TORSDOF 5
BEGIN_RES ARG D 557
REMARK  4 active torsions:
REMARK  status: ('A' for Active; 'I' for Inactive)
REMARK    1  A    between atoms: CA   and  CB  
REMARK    2  A    between atoms: CB   and  CG  
REMARK    3  A    between atoms: CG   and  CD  
REMARK    4  A    between atoms: CD   and  NE  
REMARK       I    between atoms: NE   and  CZ  
REMARK       I    between atoms: CZ   and  NH1 
REMARK       I    between atoms: CZ   and  NH2 
ROOT
ATOM      1  CA  ARG D 557     -26.217   2.705 -17.014  1.00 35.49     0.159 C 
ENDROOT
BRANCH   1   2
ATOM      2  CB  ARG D 557     -26.789   1.319 -17.183  1.00 35.49     0.034 C 
BRANCH   2   3
ATOM      3  CG  ARG D 557     -25.864   0.195 -16.995  1.00 35.49     0.027 C 
BRANCH   3   4
ATOM      4  CD  ARG D 557     -26.286  -0.705 -15.897  1.00 35.49     0.116 C 
BRANCH   4   5
ATOM      5  NE  ARG D 557     -25.235  -0.920 -14.938  1.00 35.49    -0.212 N 
ATOM      6  CZ  ARG D 557     -24.947  -2.064 -14.358  1.00 35.49     0.666 C 
ATOM      7  NH1 ARG D 557     -25.627  -3.170 -14.594  1.00 35.49    -0.235 N 
ATOM      8  NH2 ARG D 557     -23.944  -2.080 -13.528  1.00 35.49    -0.235 N 
ATOM      9  HH  ARG D 557     -26.289  -3.183 -15.138  1.00 35.49     0.174 HD
ATOM     10  HH  ARG D 557     -25.391  -3.887 -14.188  1.00 35.49     0.174 HD
ATOM     11  HH  ARG D 557     -23.519  -1.352 -13.400  1.00 35.49     0.174 HD
ATOM     12  HH  ARG D 557     -23.726  -2.800 -13.137  1.00 35.49     0.174 HD
ATOM     13  HE  ARG D 557     -24.792  -0.245 -14.672  1.00 35.49     0.178 HD
ENDBRANCH   4   5
ENDBRANCH   3   4
ENDBRANCH   2   3
ENDBRANCH   1   2
END_RES ARG D 557
BEGIN_RES GLU D 570
REMARK  3 active torsions:
REMARK  status: ('A' for Active; 'I' for Inactive)
REMARK    5  A    between atoms: CA   and  CB  
REMARK    6  A    between atoms: CB   and  CG  
REMARK    7  A    between atoms: CG   and  CD  
ROOT
ATOM     14  CA  GLU D 570     -18.033  -6.348 -13.375  1.00 32.92     0.160 C 
ENDROOT
BRANCH  14  15
ATOM     15  CB  GLU D 570     -19.500  -6.345 -13.794  1.00 32.92     0.043 C 
BRANCH  15  16
ATOM     16  CG  GLU D 570     -20.450  -5.570 -12.955  1.00 32.92     0.100 C 
BRANCH  16  17
ATOM     17  CD  GLU D 570     -21.679  -5.126 -13.713  1.00 32.92     0.185 C 
ATOM     18  OE1 GLU D 570     -22.725  -4.881 -13.081  1.00 32.92    -0.647 OA
ATOM     19  OE2 GLU D 570     -21.601  -5.038 -14.954  1.00 32.92    -0.647 OA
ENDBRANCH  16  17
ENDBRANCH  15  16
ENDBRANCH  14  15
END_RES GLU D 570
ENDMDL
MODEL 6
REMARK VINA RESULT:      -0.8      3.520      3.653
REMARK  5 active torsions:
REMARK  status: ('A' for Active; 'I' for Inactive)
REMARK    1  A    between atoms: N_2  and  C_5 
REMARK    2  A    between atoms: C_13  and  O_27 
REMARK    3  A    between atoms: C_14  and  N_15 
REMARK    4  A    between atoms: N_17  and  C_19 
REMARK    5  A    between atoms: C_24  and  O_25 
ROOT
HETATM    1 CL   UNL     2     -32.983  -3.255 -11.330  1.00  0.00     0.000 Cl
ENDROOT
TORSDOF 5
BEGIN_RES ARG D 557
REMARK  4 active torsions:
REMARK  status: ('A' for Active; 'I' for Inactive)
REMARK    1  A    between atoms: CA   and  CB  
REMARK    2  A    between atoms: CB   and  CG  
REMARK    3  A    between atoms: CG   and  CD  
REMARK    4  A    between atoms: CD   and  NE  
REMARK       I    between atoms: NE   and  CZ  
REMARK       I    between atoms: CZ   and  NH1 
REMARK       I    between atoms: CZ   and  NH2 
ROOT
ATOM      1  CA  ARG D 557     -26.217   2.705 -17.014  1.00 35.49     0.159 C 
ENDROOT
BRANCH   1   2
ATOM      2  CB  ARG D 557     -26.789   1.319 -17.183  1.00 35.49     0.034 C 
BRANCH   2   3
ATOM      3  CG  ARG D 557     -25.857   0.196 -17.026  1.00 35.49     0.027 C 
BRANCH   3   4
ATOM      4  CD  ARG D 557     -26.229  -0.693 -15.901  1.00 35.49     0.116 C 
BRANCH   4   5
ATOM      5  NE  ARG D 557     -25.164  -0.830 -14.943  1.00 35.49    -0.212 N 
ATOM      6  CZ  ARG D 557     -24.781  -1.952 -14.377  1.00 35.49     0.666 C 
ATOM      7  NH1 ARG D 557     -25.364  -3.110 -14.628  1.00 35.49    -0.235 N 
ATOM      8  NH2 ARG D 557     -23.781  -1.894 -13.545  1.00 35.49    -0.235 N 
ATOM      9  HH  ARG D 557     -26.022  -3.172 -15.173  1.00 35.49     0.174 HD
ATOM     10  HH  ARG D 557     -25.069  -3.809 -14.231  1.00 35.49     0.174 HD
ATOM     11  HH  ARG D 557     -23.419  -1.134 -13.408  1.00 35.49     0.174 HD
ATOM     12  HH  ARG D 557     -23.503  -2.598 -13.163  1.00 35.49     0.174 HD
ATOM     13  HE  ARG D 557     -24.781  -0.123 -14.668  1.00 35.49     0.178 HD
ENDBRANCH   4   5
ENDBRANCH   3   4
ENDBRANCH   2   3
ENDBRANCH   1   2
END_RES ARG D 557
BEGIN_RES GLU D 570
REMARK  3 active torsions:
REMARK  status: ('A' for Active; 'I' for Inactive)
REMARK    5  A    between atoms: CA   and  CB  
REMARK    6  A    between atoms: CB   and  CG  
REMARK    7  A    between atoms: CG   and  CD  
ROOT
ATOM     14  CA  GLU D 570     -18.033  -6.348 -13.375  1.00 32.92     0.160 C 
ENDROOT
BRANCH  14  15
ATOM     15  CB  GLU D 570     -19.500  -6.345 -13.794  1.00 32.92     0.043 C 
BRANCH  15  16
ATOM     16  CG  GLU D 570     -20.439  -5.516 -12.994  1.00 32.92     0.100 C 
BRANCH  16  17
ATOM     17  CD  GLU D 570     -21.636  -5.049 -13.789  1.00 32.92     0.185 C 
ATOM     18  OE1 GLU D 570     -22.665  -4.695 -13.181  1.00 32.92    -0.647 OA
ATOM     19  OE2 GLU D 570     -21.550  -5.053 -15.033  1.00 32.92    -0.647 OA
ENDBRANCH  16  17
ENDBRANCH  15  16
ENDBRANCH  14  15
END_RES GLU D 570
ENDMDL
MODEL 7
REMARK VINA RESULT:      -0.8      3.393      3.519
REMARK  5 active torsions:
REMARK  status: ('A' for Active; 'I' for Inactive)
REMARK    1  A    between atoms: N_2  and  C_5 
REMARK    2  A    between atoms: C_13  and  O_27 
REMARK    3  A    between atoms: C_14  and  N_15 
REMARK    4  A    between atoms: N_17  and  C_19 
REMARK    5  A    between atoms: C_24  and  O_25 
ROOT
HETATM    1 CL   UNL     2     -19.702   2.653 -11.663  1.00  0.00     0.000 Cl
ENDROOT
TORSDOF 5
BEGIN_RES ARG D 557
REMARK  4 active torsions:
REMARK  status: ('A' for Active; 'I' for Inactive)
REMARK    1  A    between atoms: CA   and  CB  
REMARK    2  A    between atoms: CB   and  CG  
REMARK    3  A    between atoms: CG   and  CD  
REMARK    4  A    between atoms: CD   and  NE  
REMARK       I    between atoms: NE   and  CZ  
REMARK       I    between atoms: CZ   and  NH1 
REMARK       I    between atoms: CZ   and  NH2 
ROOT
ATOM      1  CA  ARG D 557     -26.217   2.705 -17.014  1.00 35.49     0.159 C 
ENDROOT
BRANCH   1   2
ATOM      2  CB  ARG D 557     -26.789   1.319 -17.183  1.00 35.49     0.034 C 
BRANCH   2   3
ATOM      3  CG  ARG D 557     -25.837   0.202 -17.144  1.00 35.49     0.027 C 
BRANCH   3   4
ATOM      4  CD  ARG D 557     -24.764   0.410 -16.145  1.00 35.49     0.116 C 
BRANCH   4   5
ATOM      5  NE  ARG D 557     -24.910  -0.453 -15.003  1.00 35.49    -0.212 N 
ATOM      6  CZ  ARG D 557     -24.090  -1.422 -14.663  1.00 35.49     0.666 C 
ATOM      7  NH1 ARG D 557     -23.015  -1.722 -15.369  1.00 35.49    -0.235 N 
ATOM      8  NH2 ARG D 557     -24.367  -2.092 -13.582  1.00 35.49    -0.235 N 
ATOM      9  HH  ARG D 557     -22.812  -1.294 -16.083  1.00 35.49     0.174 HD
ATOM     10  HH  ARG D 557     -22.516  -2.363 -15.097  1.00 35.49     0.174 HD
ATOM     11  HH  ARG D 557     -25.064  -1.871 -13.142  1.00 35.49     0.174 HD
ATOM     12  HH  ARG D 557     -23.859  -2.722 -13.329  1.00 35.49     0.174 HD
ATOM     13  HE  ARG D 557     -25.614  -0.378 -14.533  1.00 35.49     0.178 HD
ENDBRANCH   4   5
ENDBRANCH   3   4
ENDBRANCH   2   3
ENDBRANCH   1   2
END_RES ARG D 557
BEGIN_RES GLU D 570
REMARK  3 active torsions:
REMARK  status: ('A' for Active; 'I' for Inactive)
REMARK    5  A    between atoms: CA   and  CB  
REMARK    6  A    between atoms: CB   and  CG  
REMARK    7  A    between atoms: CG   and  CD  
ROOT
ATOM     14  CA  GLU D 570     -18.033  -6.348 -13.375  1.00 32.92     0.160 C 
ENDROOT
BRANCH  14  15
ATOM     15  CB  GLU D 570     -19.500  -6.345 -13.794  1.00 32.92     0.043 C 
BRANCH  15  16
ATOM     16  CG  GLU D 570     -20.443  -5.537 -12.978  1.00 32.92     0.100 C 
BRANCH  16  17
ATOM     17  CD  GLU D 570     -21.733  -5.228 -13.702  1.00 32.92     0.185 C 
ATOM     18  OE1 GLU D 570     -22.293  -4.134 -13.500  1.00 32.92    -0.647 OA
ATOM     19  OE2 GLU D 570     -22.197  -6.097 -14.466  1.00 32.92    -0.647 OA
ENDBRANCH  16  17
ENDBRANCH  15  16
ENDBRANCH  14  15
END_RES GLU D 570
ENDMDL
MODEL 8
REMARK VINA RESULT:      -0.6      1.877      1.877
REMARK  5 active torsions:
REMARK  status: ('A' for Active; 'I' for Inactive)
REMARK    1  A    between atoms: N_2  and  C_5 
REMARK    2  A    between atoms: C_13  and  O_27 
REMARK    3  A    between atoms: C_14  and  N_15 
REMARK    4  A    between atoms: N_17  and  C_19 
REMARK    5  A    between atoms: C_24  and  O_25 
ROOT
HETATM    1 CL   UNL     2     -32.900  11.219  -8.875  1.00  0.00     0.000 Cl
ENDROOT
TORSDOF 5
BEGIN_RES ARG D 557
REMARK  4 active torsions:
REMARK  status: ('A' for Active; 'I' for Inactive)
REMARK    1  A    between atoms: CA   and  CB  
REMARK    2  A    between atoms: CB   and  CG  
REMARK    3  A    between atoms: CG   and  CD  
REMARK    4  A    between atoms: CD   and  NE  
REMARK       I    between atoms: NE   and  CZ  
REMARK       I    between atoms: CZ   and  NH1 
REMARK       I    between atoms: CZ   and  NH2 
ROOT
ATOM      1  CA  ARG D 557     -26.217   2.705 -17.014  1.00 35.49     0.159 C 
ENDROOT
BRANCH   1   2
ATOM      2  CB  ARG D 557     -26.789   1.319 -17.183  1.00 35.49     0.034 C 
BRANCH   2   3
ATOM      3  CG  ARG D 557     -25.835   0.204 -17.165  1.00 35.49     0.027 C 
BRANCH   3   4
ATOM      4  CD  ARG D 557     -24.760   0.397 -16.165  1.00 35.49     0.116 C 
BRANCH   4   5
ATOM      5  NE  ARG D 557     -24.923  -0.460 -15.020  1.00 35.49    -0.212 N 
ATOM      6  CZ  ARG D 557     -24.113  -1.433 -14.668  1.00 35.49     0.666 C 
ATOM      7  NH1 ARG D 557     -23.034  -1.744 -15.362  1.00 35.49    -0.235 N 
ATOM      8  NH2 ARG D 557     -24.405  -2.094 -13.586  1.00 35.49    -0.235 N 
ATOM      9  HH  ARG D 557     -22.822  -1.321 -16.076  1.00 35.49     0.174 HD
ATOM     10  HH  ARG D 557     -22.542  -2.387 -15.082  1.00 35.49     0.174 HD
ATOM     11  HH  ARG D 557     -25.104  -1.866 -13.153  1.00 35.49     0.174 HD
ATOM     12  HH  ARG D 557     -23.905  -2.727 -13.324  1.00 35.49     0.174 HD
ATOM     13  HE  ARG D 557     -25.631  -0.376 -14.557  1.00 35.49     0.178 HD
ENDBRANCH   4   5
ENDBRANCH   3   4
ENDBRANCH   2   3
ENDBRANCH   1   2
END_RES ARG D 557
BEGIN_RES GLU D 570
REMARK  3 active torsions:
REMARK  status: ('A' for Active; 'I' for Inactive)
REMARK    5  A    between atoms: CA   and  CB  
REMARK    6  A    between atoms: CB   and  CG  
REMARK    7  A    between atoms: CG   and  CD  
ROOT
ATOM     14  CA  GLU D 570     -18.033  -6.348 -13.375  1.00 32.92     0.160 C 
ENDROOT
BRANCH  14  15
ATOM     15  CB  GLU D 570     -19.500  -6.345 -13.794  1.00 32.92     0.043 C 
BRANCH  15  16
ATOM     16  CG  GLU D 570     -20.440  -5.521 -12.990  1.00 32.92     0.100 C 
BRANCH  16  17
ATOM     17  CD  GLU D 570     -21.738  -5.239 -13.709  1.00 32.92     0.185 C 
ATOM     18  OE1 GLU D 570     -22.185  -6.085 -14.507  1.00 32.92    -0.647 OA
ATOM     19  OE2 GLU D 570     -22.306  -4.152 -13.484  1.00 32.92    -0.647 OA
ENDBRANCH  16  17
ENDBRANCH  15  16
ENDBRANCH  14  15
END_RES GLU D 570
ENDMDL
MODEL 9
REMARK VINA RESULT:      -0.6      7.012      7.056
REMARK  5 active torsions:
REMARK  status: ('A' for Active; 'I' for Inactive)
REMARK    1  A    between atoms: N_2  and  C_5 
REMARK    2  A    between atoms: C_13  and  O_27 
REMARK    3  A    between atoms: C_14  and  N_15 
REMARK    4  A    between atoms: N_17  and  C_19 
REMARK    5  A    between atoms: C_24  and  O_25 
ROOT
HETATM    1 CL   UNL     2     -24.099 -11.160  -0.478  1.00  0.00     0.000 Cl
ENDROOT
TORSDOF 5
BEGIN_RES ARG D 557
REMARK  4 active torsions:
REMARK  status: ('A' for Active; 'I' for Inactive)
REMARK    1  A    between atoms: CA   and  CB  
REMARK    2  A    between atoms: CB   and  CG  
REMARK    3  A    between atoms: CG   and  CD  
REMARK    4  A    between atoms: CD   and  NE  
REMARK       I    between atoms: NE   and  CZ  
REMARK       I    between atoms: CZ   and  NH1 
REMARK       I    between atoms: CZ   and  NH2 
ROOT
ATOM      1  CA  ARG D 557     -26.217   2.705 -17.014  1.00 35.49     0.159 C 
ENDROOT
BRANCH   1   2
ATOM      2  CB  ARG D 557     -26.789   1.319 -17.183  1.00 35.49     0.034 C 
BRANCH   2   3
ATOM      3  CG  ARG D 557     -25.865   0.195 -16.988  1.00 35.49     0.027 C 
BRANCH   3   4
ATOM      4  CD  ARG D 557     -26.299  -0.709 -15.898  1.00 35.49     0.116 C 
BRANCH   4   5
ATOM      5  NE  ARG D 557     -25.255  -0.934 -14.933  1.00 35.49    -0.212 N 
ATOM      6  CZ  ARG D 557     -24.982  -2.080 -14.350  1.00 35.49     0.666 C 
ATOM      7  NH1 ARG D 557     -25.673  -3.180 -14.589  1.00 35.49    -0.235 N 
ATOM      8  NH2 ARG D 557     -23.985  -2.106 -13.515  1.00 35.49    -0.235 N 
ATOM      9  HH  ARG D 557     -26.332  -3.186 -15.137  1.00 35.49     0.174 HD
ATOM     10  HH  ARG D 557     -25.447  -3.899 -14.181  1.00 35.49     0.174 HD
ATOM     11  HH  ARG D 557     -23.552  -1.382 -13.385  1.00 35.49     0.174 HD
ATOM     12  HH  ARG D 557     -23.776  -2.828 -13.122  1.00 35.49     0.174 HD
ATOM     13  HE  ARG D 557     -24.807  -0.263 -14.666  1.00 35.49     0.178 HD
ENDBRANCH   4   5
ENDBRANCH   3   4
ENDBRANCH   2   3
ENDBRANCH   1   2
END_RES ARG D 557
BEGIN_RES GLU D 570
REMARK  3 active torsions:
REMARK  status: ('A' for Active; 'I' for Inactive)
REMARK    5  A    between atoms: CA   and  CB  
REMARK    6  A    between atoms: CB   and  CG  
REMARK    7  A    between atoms: CG   and  CD  
ROOT
ATOM     14  CA  GLU D 570     -18.033  -6.348 -13.375  1.00 32.92     0.160 C 
ENDROOT
BRANCH  14  15
ATOM     15  CB  GLU D 570     -19.500  -6.345 -13.794  1.00 32.92     0.043 C 
BRANCH  15  16
ATOM     16  CG  GLU D 570     -20.444  -5.542 -12.975  1.00 32.92     0.100 C 
BRANCH  16  17
ATOM     17  CD  GLU D 570     -21.678  -5.123 -13.739  1.00 32.92     0.185 C 
ATOM     18  OE1 GLU D 570     -21.611  -4.999 -14.977  1.00 32.92    -0.647 OA
ATOM     19  OE2 GLU D 570     -22.720  -4.899 -13.091  1.00 32.92    -0.647 OA
ENDBRANCH  16  17
ENDBRANCH  15  16
ENDBRANCH  14  15
END_RES GLU D 570
ENDMDL
