MODEL 1
REMARK VINA RESULT:      -5.3      0.000      0.000
REMARK  6 active torsions:
REMARK  status: ('A' for Active; 'I' for Inactive)
REMARK    1  A    between atoms: N_2  and  C_5 
REMARK    2  A    between atoms: C_5  and  C_6 
REMARK    3  A    between atoms: C_6  and  C_7 
REMARK    4  A    between atoms: C_6  and  O_11 
REMARK    5  A    between atoms: C_7  and  C_8 
REMARK    6  A    between atoms: C_8  and  O_10 
ROOT
HETATM    1  C   UNL     1     -27.674  -6.794 -16.163  1.00  0.00     0.154 C 
ENDROOT
BRANCH   1   2
HETATM    2  C   UNL     1     -28.749  -5.684 -15.978  1.00  0.00     0.268 C 
BRANCH   2   3
HETATM    3  N   UNL     1     -29.803  -5.600 -17.140  1.00  0.00    -0.076 N 
HETATM    4  C   UNL     1     -31.078  -4.882 -16.720  1.00  0.00     0.271 C 
HETATM    5  C   UNL     1     -30.190  -7.032 -17.534  1.00  0.00     0.271 C 
HETATM    6  C   UNL     1     -29.223  -4.871 -18.362  1.00  0.00     0.271 C 
ENDBRANCH   2   3
ENDBRANCH   1   2
BRANCH   1   7
HETATM    7  C   UNL     1     -26.273  -6.287 -16.569  1.00  0.00     0.143 C 
BRANCH   7   8
HETATM    8  C   UNL     1     -25.167  -6.924 -15.766  1.00  0.00     0.141 C 
HETATM    9  O   UNL     1     -24.681  -8.011 -16.071  1.00  0.00    -0.650 OA
BRANCH   8  10
HETATM   10  O   UNL     1     -24.761  -6.203 -14.717  1.00  0.00    -0.776 OA
HETATM   11  H   UNL     1     -24.112  -6.629 -14.123  1.00  0.00     0.167 HD
ENDBRANCH   8  10
ENDBRANCH   7   8
ENDBRANCH   1   7
BRANCH   1  12
HETATM   12  O   UNL     1     -27.561  -7.606 -14.991  1.00  0.00    -0.393 OA
HETATM   13  H   UNL     1     -27.025  -7.112 -14.329  1.00  0.00     0.210 HD
ENDBRANCH   1  12
TORSDOF 6
BEGIN_RES ARG D 557
REMARK  4 active torsions:
REMARK  status: ('A' for Active; 'I' for Inactive)
REMARK    1  A    between atoms: CA   and  CB  
REMARK    2  A    between atoms: CB   and  CG  
REMARK    3  A    between atoms: CG   and  CD  
REMARK    4  A    between atoms: CD   and  NE  
REMARK       I    between atoms: NE   and  CZ  
REMARK       I    between atoms: CZ   and  NH1 
REMARK       I    between atoms: CZ   and  NH2 
ROOT
ATOM      1  CA  ARG D 557     -26.217   2.705 -17.014  1.00 35.49     0.159 C 
ENDROOT
BRANCH   1   2
ATOM      2  CB  ARG D 557     -26.789   1.319 -17.183  1.00 35.49     0.034 C 
BRANCH   2   3
ATOM      3  CG  ARG D 557     -25.865   0.195 -16.988  1.00 35.49     0.027 C 
BRANCH   3   4
ATOM      4  CD  ARG D 557     -26.313  -0.725 -15.918  1.00 35.49     0.116 C 
BRANCH   4   5
ATOM      5  NE  ARG D 557     -25.292  -0.942 -14.927  1.00 35.49    -0.212 N 
ATOM      6  CZ  ARG D 557     -25.002  -2.093 -14.363  1.00 35.49     0.666 C 
ATOM      7  NH1 ARG D 557     -25.651  -3.206 -14.648  1.00 35.49    -0.235 N 
ATOM      8  NH2 ARG D 557     -24.029  -2.109 -13.498  1.00 35.49    -0.235 N 
ATOM      9  HH  ARG D 557     -26.293  -3.219 -15.215  1.00 35.49     0.174 HD
ATOM     10  HH  ARG D 557     -25.416  -3.928 -14.251  1.00 35.49     0.174 HD
ATOM     11  HH  ARG D 557     -23.623  -1.376 -13.339  1.00 35.49     0.174 HD
ATOM     12  HH  ARG D 557     -23.810  -2.834 -13.117  1.00 35.49     0.174 HD
ATOM     13  HE  ARG D 557     -24.873  -0.264 -14.631  1.00 35.49     0.178 HD
ENDBRANCH   4   5
ENDBRANCH   3   4
ENDBRANCH   2   3
ENDBRANCH   1   2
END_RES ARG D 557
BEGIN_RES GLU D 570
REMARK  3 active torsions:
REMARK  status: ('A' for Active; 'I' for Inactive)
REMARK    5  A    between atoms: CA   and  CB  
REMARK    6  A    between atoms: CB   and  CG  
REMARK    7  A    between atoms: CG   and  CD  
ROOT
ATOM     14  CA  GLU D 570     -18.033  -6.348 -13.375  1.00 32.92     0.160 C 
ENDROOT
BRANCH  14  15
ATOM     15  CB  GLU D 570     -19.500  -6.345 -13.794  1.00 32.92     0.043 C 
BRANCH  15  16
ATOM     16  CG  GLU D 570     -20.444  -5.542 -12.975  1.00 32.92     0.100 C 
BRANCH  16  17
ATOM     17  CD  GLU D 570     -21.729  -5.220 -13.702  1.00 32.92     0.185 C 
ATOM     18  OE1 GLU D 570     -21.795  -5.419 -14.931  1.00 32.92    -0.647 OA
ATOM     19  OE2 GLU D 570     -22.673  -4.748 -13.040  1.00 32.92    -0.647 OA
ENDBRANCH  16  17
ENDBRANCH  15  16
ENDBRANCH  14  15
END_RES GLU D 570
ENDMDL
MODEL 2
REMARK VINA RESULT:      -4.9      3.374      6.013
REMARK  6 active torsions:
REMARK  status: ('A' for Active; 'I' for Inactive)
REMARK    1  A    between atoms: N_2  and  C_5 
REMARK    2  A    between atoms: C_5  and  C_6 
REMARK    3  A    between atoms: C_6  and  C_7 
REMARK    4  A    between atoms: C_6  and  O_11 
REMARK    5  A    between atoms: C_7  and  C_8 
REMARK    6  A    between atoms: C_8  and  O_10 
ROOT
HETATM    1  C   UNL     1     -23.187  -3.719 -12.927  1.00  0.00     0.154 C 
ENDROOT
BRANCH   1   2
HETATM    2  C   UNL     1     -23.512  -2.890 -11.650  1.00  0.00     0.268 C 
BRANCH   2   3
HETATM    3  N   UNL     1     -23.652  -3.745 -10.339  1.00  0.00    -0.076 N 
HETATM    4  C   UNL     1     -24.818  -3.293  -9.471  1.00  0.00     0.271 C 
HETATM    5  C   UNL     1     -22.370  -3.566  -9.517  1.00  0.00     0.271 C 
HETATM    6  C   UNL     1     -23.848  -5.233 -10.666  1.00  0.00     0.271 C 
ENDBRANCH   2   3
ENDBRANCH   1   2
BRANCH   1   7
HETATM    7  C   UNL     1     -24.206  -3.575 -14.078  1.00  0.00     0.143 C 
BRANCH   7   8
HETATM    8  C   UNL     1     -24.142  -2.225 -14.747  1.00  0.00     0.141 C 
HETATM    9  O   UNL     1     -25.058  -1.409 -14.662  1.00  0.00    -0.650 OA
BRANCH   8  10
HETATM   10  O   UNL     1     -23.010  -1.996 -15.419  1.00  0.00    -0.776 OA
HETATM   11  H   UNL     1     -23.087  -1.438 -16.218  1.00  0.00     0.167 HD
ENDBRANCH   8  10
ENDBRANCH   7   8
ENDBRANCH   1   7
BRANCH   1  12
HETATM   12  O   UNL     1     -21.876  -3.422 -13.417  1.00  0.00    -0.393 OA
HETATM   13  H   UNL     1     -21.336  -3.098 -12.661  1.00  0.00     0.210 HD
ENDBRANCH   1  12
TORSDOF 6
BEGIN_RES ARG D 557
REMARK  4 active torsions:
REMARK  status: ('A' for Active; 'I' for Inactive)
REMARK    1  A    between atoms: CA   and  CB  
REMARK    2  A    between atoms: CB   and  CG  
REMARK    3  A    between atoms: CG   and  CD  
REMARK    4  A    between atoms: CD   and  NE  
REMARK       I    between atoms: NE   and  CZ  
REMARK       I    between atoms: CZ   and  NH1 
REMARK       I    between atoms: CZ   and  NH2 
ROOT
ATOM      1  CA  ARG D 557     -26.217   2.705 -17.014  1.00 35.49     0.159 C 
ENDROOT
BRANCH   1   2
ATOM      2  CB  ARG D 557     -26.789   1.319 -17.183  1.00 35.49     0.034 C 
BRANCH   2   3
ATOM      3  CG  ARG D 557     -28.236   1.225 -17.413  1.00 35.49     0.027 C 
BRANCH   3   4
ATOM      4  CD  ARG D 557     -28.888   0.250 -16.509  1.00 35.49     0.116 C 
BRANCH   4   5
ATOM      5  NE  ARG D 557     -28.018  -0.845 -16.173  1.00 35.49    -0.212 N 
ATOM      6  CZ  ARG D 557     -28.143  -2.083 -16.596  1.00 35.49     0.666 C 
ATOM      7  NH1 ARG D 557     -29.126  -2.465 -17.390  1.00 35.49    -0.235 N 
ATOM      8  NH2 ARG D 557     -27.248  -2.944 -16.207  1.00 35.49    -0.235 N 
ATOM      9  HH  ARG D 557     -29.725  -1.915 -17.660  1.00 35.49     0.174 HD
ATOM     10  HH  ARG D 557     -29.155  -3.286 -17.636  1.00 35.49     0.174 HD
ATOM     11  HH  ARG D 557     -26.620  -2.667 -15.700  1.00 35.49     0.174 HD
ATOM     12  HH  ARG D 557     -27.293  -3.751 -16.462  1.00 35.49     0.174 HD
ATOM     13  HE  ARG D 557     -27.399  -0.705 -15.607  1.00 35.49     0.178 HD
ENDBRANCH   4   5
ENDBRANCH   3   4
ENDBRANCH   2   3
ENDBRANCH   1   2
END_RES ARG D 557
BEGIN_RES GLU D 570
REMARK  3 active torsions:
REMARK  status: ('A' for Active; 'I' for Inactive)
REMARK    5  A    between atoms: CA   and  CB  
REMARK    6  A    between atoms: CB   and  CG  
REMARK    7  A    between atoms: CG   and  CD  
ROOT
ATOM     14  CA  GLU D 570     -18.033  -6.348 -13.375  1.00 32.92     0.160 C 
ENDROOT
BRANCH  14  15
ATOM     15  CB  GLU D 570     -19.500  -6.345 -13.794  1.00 32.92     0.043 C 
BRANCH  15  16
ATOM     16  CG  GLU D 570     -19.801  -6.108 -15.229  1.00 32.92     0.100 C 
BRANCH  16  17
ATOM     17  CD  GLU D 570     -21.260  -5.807 -15.483  1.00 32.92     0.185 C 
ATOM     18  OE1 GLU D 570     -21.568  -4.738 -16.045  1.00 32.92    -0.647 OA
ATOM     19  OE2 GLU D 570     -22.104  -6.640 -15.101  1.00 32.92    -0.647 OA
ENDBRANCH  16  17
ENDBRANCH  15  16
ENDBRANCH  14  15
END_RES GLU D 570
ENDMDL
MODEL 3
REMARK VINA RESULT:      -4.9      4.036      7.732
REMARK  6 active torsions:
REMARK  status: ('A' for Active; 'I' for Inactive)
REMARK    1  A    between atoms: N_2  and  C_5 
REMARK    2  A    between atoms: C_5  and  C_6 
REMARK    3  A    between atoms: C_6  and  C_7 
REMARK    4  A    between atoms: C_6  and  O_11 
REMARK    5  A    between atoms: C_7  and  C_8 
REMARK    6  A    between atoms: C_8  and  O_10 
ROOT
HETATM    1  C   UNL     1     -22.335  -4.265  -9.491  1.00  0.00     0.154 C 
ENDROOT
BRANCH   1   2
HETATM    2  C   UNL     1     -21.961  -3.795  -8.055  1.00  0.00     0.268 C 
BRANCH   2   3
HETATM    3  N   UNL     1     -20.783  -4.596  -7.395  1.00  0.00    -0.076 N 
HETATM    4  C   UNL     1     -20.600  -4.257  -5.922  1.00  0.00     0.271 C 
HETATM    5  C   UNL     1     -19.485  -4.214  -8.119  1.00  0.00     0.271 C 
HETATM    6  C   UNL     1     -21.009  -6.111  -7.513  1.00  0.00     0.271 C 
ENDBRANCH   2   3
ENDBRANCH   1   2
BRANCH   1   7
HETATM    7  C   UNL     1     -23.817  -4.650  -9.690  1.00  0.00     0.143 C 
BRANCH   7   8
HETATM    8  C   UNL     1     -24.677  -3.474 -10.080  1.00  0.00     0.141 C 
HETATM    9  O   UNL     1     -24.927  -3.208 -11.254  1.00  0.00    -0.650 OA
BRANCH   8  10
HETATM   10  O   UNL     1     -25.147  -2.768  -9.047  1.00  0.00    -0.776 OA
HETATM   11  H   UNL     1     -24.986  -1.805  -9.072  1.00  0.00     0.167 HD
ENDBRANCH   8  10
ENDBRANCH   7   8
ENDBRANCH   1   7
BRANCH   1  12
HETATM   12  O   UNL     1     -21.966  -3.287 -10.469  1.00  0.00    -0.393 OA
HETATM   13  H   UNL     1     -21.777  -3.757 -11.312  1.00  0.00     0.210 HD
ENDBRANCH   1  12
TORSDOF 6
BEGIN_RES ARG D 557
REMARK  4 active torsions:
REMARK  status: ('A' for Active; 'I' for Inactive)
REMARK    1  A    between atoms: CA   and  CB  
REMARK    2  A    between atoms: CB   and  CG  
REMARK    3  A    between atoms: CG   and  CD  
REMARK    4  A    between atoms: CD   and  NE  
REMARK       I    between atoms: NE   and  CZ  
REMARK       I    between atoms: CZ   and  NH1 
REMARK       I    between atoms: CZ   and  NH2 
ROOT
ATOM      1  CA  ARG D 557     -26.217   2.705 -17.014  1.00 35.49     0.159 C 
ENDROOT
BRANCH   1   2
ATOM      2  CB  ARG D 557     -26.789   1.319 -17.183  1.00 35.49     0.034 C 
BRANCH   2   3
ATOM      3  CG  ARG D 557     -25.856   0.196 -17.030  1.00 35.49     0.027 C 
BRANCH   3   4
ATOM      4  CD  ARG D 557     -26.204  -0.675 -15.884  1.00 35.49     0.116 C 
BRANCH   4   5
ATOM      5  NE  ARG D 557     -25.091  -0.865 -14.991  1.00 35.49    -0.212 N 
ATOM      6  CZ  ARG D 557     -24.818  -1.967 -14.328  1.00 35.49     0.666 C 
ATOM      7  NH1 ARG D 557     -25.574  -3.047 -14.407  1.00 35.49    -0.235 N 
ATOM      8  NH2 ARG D 557     -23.755  -1.969 -13.579  1.00 35.49    -0.235 N 
ATOM      9  HH  ARG D 557     -26.277  -3.069 -14.895  1.00 35.49     0.174 HD
ATOM     10  HH  ARG D 557     -25.345  -3.737 -13.953  1.00 35.49     0.174 HD
ATOM     11  HH  ARG D 557     -23.282  -1.260 -13.553  1.00 35.49     0.174 HD
ATOM     12  HH  ARG D 557     -23.544  -2.663 -13.139  1.00 35.49     0.174 HD
ATOM     13  HE  ARG D 557     -24.593  -0.196 -14.825  1.00 35.49     0.178 HD
ENDBRANCH   4   5
ENDBRANCH   3   4
ENDBRANCH   2   3
ENDBRANCH   1   2
END_RES ARG D 557
BEGIN_RES GLU D 570
REMARK  3 active torsions:
REMARK  status: ('A' for Active; 'I' for Inactive)
REMARK    5  A    between atoms: CA   and  CB  
REMARK    6  A    between atoms: CB   and  CG  
REMARK    7  A    between atoms: CG   and  CD  
ROOT
ATOM     14  CA  GLU D 570     -18.033  -6.348 -13.375  1.00 32.92     0.160 C 
ENDROOT
BRANCH  14  15
ATOM     15  CB  GLU D 570     -19.500  -6.345 -13.794  1.00 32.92     0.043 C 
BRANCH  15  16
ATOM     16  CG  GLU D 570     -20.452  -5.578 -12.949  1.00 32.92     0.100 C 
BRANCH  16  17
ATOM     17  CD  GLU D 570     -21.685  -5.138 -13.702  1.00 32.92     0.185 C 
ATOM     18  OE1 GLU D 570     -21.691  -5.205 -14.946  1.00 32.92    -0.647 OA
ATOM     19  OE2 GLU D 570     -22.650  -4.705 -13.041  1.00 32.92    -0.647 OA
ENDBRANCH  16  17
ENDBRANCH  15  16
ENDBRANCH  14  15
END_RES GLU D 570
ENDMDL
MODEL 4
REMARK VINA RESULT:      -4.8      5.761      7.215
REMARK  6 active torsions:
REMARK  status: ('A' for Active; 'I' for Inactive)
REMARK    1  A    between atoms: N_2  and  C_5 
REMARK    2  A    between atoms: C_5  and  C_6 
REMARK    3  A    between atoms: C_6  and  C_7 
REMARK    4  A    between atoms: C_6  and  O_11 
REMARK    5  A    between atoms: C_7  and  C_8 
REMARK    6  A    between atoms: C_8  and  O_10 
ROOT
HETATM    1  C   UNL     1     -34.413  -4.922 -11.929  1.00  0.00     0.154 C 
ENDROOT
BRANCH   1   2
HETATM    2  C   UNL     1     -35.369  -3.959 -11.166  1.00  0.00     0.268 C 
BRANCH   2   3
HETATM    3  N   UNL     1     -34.976  -2.441 -11.265  1.00  0.00    -0.076 N 
HETATM    4  C   UNL     1     -33.634  -2.143 -10.611  1.00  0.00     0.271 C 
HETATM    5  C   UNL     1     -36.041  -1.626 -10.520  1.00  0.00     0.271 C 
HETATM    6  C   UNL     1     -34.908  -1.981 -12.729  1.00  0.00     0.271 C 
ENDBRANCH   2   3
ENDBRANCH   1   2
BRANCH   1   7
HETATM    7  C   UNL     1     -33.668  -5.943 -11.042  1.00  0.00     0.143 C 
BRANCH   7   8
HETATM    8  C   UNL     1     -34.587  -6.983 -10.452  1.00  0.00     0.141 C 
HETATM    9  O   UNL     1     -34.914  -6.970  -9.267  1.00  0.00    -0.650 OA
BRANCH   8  10
HETATM   10  O   UNL     1     -35.019  -7.897 -11.326  1.00  0.00    -0.776 OA
HETATM   11  H   UNL     1     -35.677  -7.592 -11.982  1.00  0.00     0.167 HD
ENDBRANCH   8  10
ENDBRANCH   7   8
ENDBRANCH   1   7
BRANCH   1  12
HETATM   12  O   UNL     1     -35.103  -5.617 -12.972  1.00  0.00    -0.393 OA
HETATM   13  H   UNL     1     -35.603  -6.359 -12.564  1.00  0.00     0.210 HD
ENDBRANCH   1  12
TORSDOF 6
BEGIN_RES ARG D 557
REMARK  4 active torsions:
REMARK  status: ('A' for Active; 'I' for Inactive)
REMARK    1  A    between atoms: CA   and  CB  
REMARK    2  A    between atoms: CB   and  CG  
REMARK    3  A    between atoms: CG   and  CD  
REMARK    4  A    between atoms: CD   and  NE  
REMARK       I    between atoms: NE   and  CZ  
REMARK       I    between atoms: CZ   and  NH1 
REMARK       I    between atoms: CZ   and  NH2 
ROOT
ATOM      1  CA  ARG D 557     -26.217   2.705 -17.014  1.00 35.49     0.159 C 
ENDROOT
BRANCH   1   2
ATOM      2  CB  ARG D 557     -26.789   1.319 -17.183  1.00 35.49     0.034 C 
BRANCH   2   3
ATOM      3  CG  ARG D 557     -28.235   1.225 -17.421  1.00 35.49     0.027 C 
BRANCH   3   4
ATOM      4  CD  ARG D 557     -28.901   0.291 -16.485  1.00 35.49     0.116 C 
BRANCH   4   5
ATOM      5  NE  ARG D 557     -29.287  -0.937 -17.128  1.00 35.49    -0.212 N 
ATOM      6  CZ  ARG D 557     -28.658  -2.087 -17.030  1.00 35.49     0.666 C 
ATOM      7  NH1 ARG D 557     -27.557  -2.234 -16.315  1.00 35.49    -0.235 N 
ATOM      8  NH2 ARG D 557     -29.162  -3.104 -17.666  1.00 35.49    -0.235 N 
ATOM      9  HH  ARG D 557     -27.209  -1.579 -15.887  1.00 35.49     0.174 HD
ATOM     10  HH  ARG D 557     -27.191  -3.008 -16.286  1.00 35.49     0.174 HD
ATOM     11  HH  ARG D 557     -29.878  -2.981 -18.113  1.00 35.49     0.174 HD
ATOM     12  HH  ARG D 557     -28.787  -3.863 -17.623  1.00 35.49     0.174 HD
ATOM     13  HE  ARG D 557     -29.945  -0.916 -17.667  1.00 35.49     0.178 HD
ENDBRANCH   4   5
ENDBRANCH   3   4
ENDBRANCH   2   3
ENDBRANCH   1   2
END_RES ARG D 557
BEGIN_RES GLU D 570
REMARK  3 active torsions:
REMARK  status: ('A' for Active; 'I' for Inactive)
REMARK    5  A    between atoms: CA   and  CB  
REMARK    6  A    between atoms: CB   and  CG  
REMARK    7  A    between atoms: CG   and  CD  
ROOT
ATOM     14  CA  GLU D 570     -18.033  -6.348 -13.375  1.00 32.92     0.160 C 
ENDROOT
BRANCH  14  15
ATOM     15  CB  GLU D 570     -19.500  -6.345 -13.794  1.00 32.92     0.043 C 
BRANCH  15  16
ATOM     16  CG  GLU D 570     -20.443  -5.537 -12.978  1.00 32.92     0.100 C 
BRANCH  16  17
ATOM     17  CD  GLU D 570     -21.738  -5.238 -13.698  1.00 32.92     0.185 C 
ATOM     18  OE1 GLU D 570     -22.197  -6.081 -14.492  1.00 32.92    -0.647 OA
ATOM     19  OE2 GLU D 570     -22.289  -4.141 -13.478  1.00 32.92    -0.647 OA
ENDBRANCH  16  17
ENDBRANCH  15  16
ENDBRANCH  14  15
END_RES GLU D 570
ENDMDL
MODEL 5
REMARK VINA RESULT:      -4.7     11.116     14.546
REMARK  6 active torsions:
REMARK  status: ('A' for Active; 'I' for Inactive)
REMARK    1  A    between atoms: N_2  and  C_5 
REMARK    2  A    between atoms: C_5  and  C_6 
REMARK    3  A    between atoms: C_6  and  C_7 
REMARK    4  A    between atoms: C_6  and  O_11 
REMARK    5  A    between atoms: C_7  and  C_8 
REMARK    6  A    between atoms: C_8  and  O_10 
ROOT
HETATM    1  C   UNL     1     -12.078   5.461 -19.953  1.00  0.00     0.154 C 
ENDROOT
BRANCH   1   2
HETATM    2  C   UNL     1     -12.554   5.509 -21.434  1.00  0.00     0.268 C 
BRANCH   2   3
HETATM    3  N   UNL     1     -13.976   4.890 -21.680  1.00  0.00    -0.076 N 
HETATM    4  C   UNL     1     -14.819   4.846 -20.413  1.00  0.00     0.271 C 
HETATM    5  C   UNL     1     -13.788   3.444 -22.157  1.00  0.00     0.271 C 
HETATM    6  C   UNL     1     -14.750   5.684 -22.743  1.00  0.00     0.271 C 
ENDBRANCH   2   3
ENDBRANCH   1   2
BRANCH   1   7
HETATM    7  C   UNL     1     -10.757   4.697 -19.713  1.00  0.00     0.143 C 
BRANCH   7   8
HETATM    8  C   UNL     1      -9.639   5.597 -19.252  1.00  0.00     0.141 C 
HETATM    9  O   UNL     1      -8.882   6.157 -20.042  1.00  0.00    -0.650 OA
BRANCH   8  10
HETATM   10  O   UNL     1      -9.557   5.739 -17.926  1.00  0.00    -0.776 OA
HETATM   11  H   UNL     1     -10.143   5.166 -17.392  1.00  0.00     0.167 HD
ENDBRANCH   8  10
ENDBRANCH   7   8
ENDBRANCH   1   7
BRANCH   1  12
HETATM   12  O   UNL     1     -11.969   6.777 -19.401  1.00  0.00    -0.393 OA
HETATM   13  H   UNL     1     -12.740   6.921 -18.806  1.00  0.00     0.210 HD
ENDBRANCH   1  12
TORSDOF 6
BEGIN_RES ARG D 557
REMARK  4 active torsions:
REMARK  status: ('A' for Active; 'I' for Inactive)
REMARK    1  A    between atoms: CA   and  CB  
REMARK    2  A    between atoms: CB   and  CG  
REMARK    3  A    between atoms: CG   and  CD  
REMARK    4  A    between atoms: CD   and  NE  
REMARK       I    between atoms: NE   and  CZ  
REMARK       I    between atoms: CZ   and  NH1 
REMARK       I    between atoms: CZ   and  NH2 
ROOT
ATOM      1  CA  ARG D 557     -26.217   2.705 -17.014  1.00 35.49     0.159 C 
ENDROOT
BRANCH   1   2
ATOM      2  CB  ARG D 557     -26.789   1.319 -17.183  1.00 35.49     0.034 C 
BRANCH   2   3
ATOM      3  CG  ARG D 557     -25.835   0.203 -17.162  1.00 35.49     0.027 C 
BRANCH   3   4
ATOM      4  CD  ARG D 557     -24.747   0.409 -16.179  1.00 35.49     0.116 C 
BRANCH   4   5
ATOM      5  NE  ARG D 557     -24.894  -0.436 -15.023  1.00 35.49    -0.212 N 
ATOM      6  CZ  ARG D 557     -24.078  -1.404 -14.672  1.00 35.49     0.666 C 
ATOM      7  NH1 ARG D 557     -23.008  -1.722 -15.378  1.00 35.49    -0.235 N 
ATOM      8  NH2 ARG D 557     -24.354  -2.055 -13.579  1.00 35.49    -0.235 N 
ATOM      9  HH  ARG D 557     -22.806  -1.305 -16.099  1.00 35.49     0.174 HD
ATOM     10  HH  ARG D 557     -22.511  -2.361 -15.098  1.00 35.49     0.174 HD
ATOM     11  HH  ARG D 557     -25.047  -1.824 -13.140  1.00 35.49     0.174 HD
ATOM     12  HH  ARG D 557     -23.849  -2.684 -13.318  1.00 35.49     0.174 HD
ATOM     13  HE  ARG D 557     -25.595  -0.349 -14.551  1.00 35.49     0.178 HD
ENDBRANCH   4   5
ENDBRANCH   3   4
ENDBRANCH   2   3
ENDBRANCH   1   2
END_RES ARG D 557
BEGIN_RES GLU D 570
REMARK  3 active torsions:
REMARK  status: ('A' for Active; 'I' for Inactive)
REMARK    5  A    between atoms: CA   and  CB  
REMARK    6  A    between atoms: CB   and  CG  
REMARK    7  A    between atoms: CG   and  CD  
ROOT
ATOM     14  CA  GLU D 570     -18.033  -6.348 -13.375  1.00 32.92     0.160 C 
ENDROOT
BRANCH  14  15
ATOM     15  CB  GLU D 570     -19.500  -6.345 -13.794  1.00 32.92     0.043 C 
BRANCH  15  16
ATOM     16  CG  GLU D 570     -20.446  -5.549 -12.970  1.00 32.92     0.100 C 
BRANCH  16  17
ATOM     17  CD  GLU D 570     -21.740  -5.243 -13.688  1.00 32.92     0.185 C 
ATOM     18  OE1 GLU D 570     -22.274  -4.129 -13.524  1.00 32.92    -0.647 OA
ATOM     19  OE2 GLU D 570     -22.233  -6.133 -14.408  1.00 32.92    -0.647 OA
ENDBRANCH  16  17
ENDBRANCH  15  16
ENDBRANCH  14  15
END_RES GLU D 570
ENDMDL
MODEL 6
REMARK VINA RESULT:      -4.7      1.664      2.304
REMARK  6 active torsions:
REMARK  status: ('A' for Active; 'I' for Inactive)
REMARK    1  A    between atoms: N_2  and  C_5 
REMARK    2  A    between atoms: C_5  and  C_6 
REMARK    3  A    between atoms: C_6  and  C_7 
REMARK    4  A    between atoms: C_6  and  O_11 
REMARK    5  A    between atoms: C_7  and  C_8 
REMARK    6  A    between atoms: C_8  and  O_10 
ROOT
HETATM    1  C   UNL     1     -26.857  -5.808 -16.064  1.00  0.00     0.154 C 
ENDROOT
BRANCH   1   2
HETATM    2  C   UNL     1     -27.509  -5.770 -17.477  1.00  0.00     0.268 C 
BRANCH   2   3
HETATM    3  N   UNL     1     -29.079  -5.728 -17.467  1.00  0.00    -0.076 N 
HETATM    4  C   UNL     1     -29.699  -6.960 -18.111  1.00  0.00     0.271 C 
HETATM    5  C   UNL     1     -29.527  -4.509 -18.283  1.00  0.00     0.271 C 
HETATM    6  C   UNL     1     -29.621  -5.614 -16.034  1.00  0.00     0.271 C 
ENDBRANCH   2   3
ENDBRANCH   1   2
BRANCH   1   7
HETATM    7  C   UNL     1     -25.943  -7.025 -15.798  1.00  0.00     0.143 C 
BRANCH   7   8
HETATM    8  C   UNL     1     -24.520  -6.629 -15.498  1.00  0.00     0.141 C 
HETATM    9  O   UNL     1     -24.120  -6.450 -14.349  1.00  0.00    -0.650 OA
BRANCH   8  10
HETATM   10  O   UNL     1     -23.741  -6.508 -16.577  1.00  0.00    -0.776 OA
HETATM   11  H   UNL     1     -23.027  -7.168 -16.673  1.00  0.00     0.167 HD
ENDBRANCH   8  10
ENDBRANCH   7   8
ENDBRANCH   1   7
BRANCH   1  12
HETATM   12  O   UNL     1     -26.131  -4.605 -15.796  1.00  0.00    -0.393 OA
HETATM   13  H   UNL     1     -26.273  -3.990 -16.550  1.00  0.00     0.210 HD
ENDBRANCH   1  12
TORSDOF 6
BEGIN_RES ARG D 557
REMARK  4 active torsions:
REMARK  status: ('A' for Active; 'I' for Inactive)
REMARK    1  A    between atoms: CA   and  CB  
REMARK    2  A    between atoms: CB   and  CG  
REMARK    3  A    between atoms: CG   and  CD  
REMARK    4  A    between atoms: CD   and  NE  
REMARK       I    between atoms: NE   and  CZ  
REMARK       I    between atoms: CZ   and  NH1 
REMARK       I    between atoms: CZ   and  NH2 
ROOT
ATOM      1  CA  ARG D 557     -26.217   2.705 -17.014  1.00 35.49     0.159 C 
ENDROOT
BRANCH   1   2
ATOM      2  CB  ARG D 557     -26.789   1.319 -17.183  1.00 35.49     0.034 C 
BRANCH   2   3
ATOM      3  CG  ARG D 557     -25.838   0.201 -17.134  1.00 35.49     0.027 C 
BRANCH   3   4
ATOM      4  CD  ARG D 557     -24.767   0.415 -16.134  1.00 35.49     0.116 C 
BRANCH   4   5
ATOM      5  NE  ARG D 557     -24.900  -0.462 -15.001  1.00 35.49    -0.212 N 
ATOM      6  CZ  ARG D 557     -24.072  -1.430 -14.677  1.00 35.49     0.666 C 
ATOM      7  NH1 ARG D 557     -23.001  -1.716 -15.395  1.00 35.49    -0.235 N 
ATOM      8  NH2 ARG D 557     -24.337  -2.112 -13.602  1.00 35.49    -0.235 N 
ATOM      9  HH  ARG D 557     -22.806  -1.279 -16.105  1.00 35.49     0.174 HD
ATOM     10  HH  ARG D 557     -22.496  -2.357 -15.134  1.00 35.49     0.174 HD
ATOM     11  HH  ARG D 557     -25.032  -1.900 -13.154  1.00 35.49     0.174 HD
ATOM     12  HH  ARG D 557     -23.824  -2.742 -13.359  1.00 35.49     0.174 HD
ATOM     13  HE  ARG D 557     -25.601  -0.395 -14.524  1.00 35.49     0.178 HD
ENDBRANCH   4   5
ENDBRANCH   3   4
ENDBRANCH   2   3
ENDBRANCH   1   2
END_RES ARG D 557
BEGIN_RES GLU D 570
REMARK  3 active torsions:
REMARK  status: ('A' for Active; 'I' for Inactive)
REMARK    5  A    between atoms: CA   and  CB  
REMARK    6  A    between atoms: CB   and  CG  
REMARK    7  A    between atoms: CG   and  CD  
ROOT
ATOM     14  CA  GLU D 570     -18.033  -6.348 -13.375  1.00 32.92     0.160 C 
ENDROOT
BRANCH  14  15
ATOM     15  CB  GLU D 570     -19.500  -6.345 -13.794  1.00 32.92     0.043 C 
BRANCH  15  16
ATOM     16  CG  GLU D 570     -20.079  -7.629 -14.268  1.00 32.92     0.100 C 
BRANCH  16  17
ATOM     17  CD  GLU D 570     -20.773  -7.505 -15.604  1.00 32.92     0.185 C 
ATOM     18  OE1 GLU D 570     -20.722  -6.419 -16.214  1.00 32.92    -0.647 OA
ATOM     19  OE2 GLU D 570     -21.387  -8.499 -16.039  1.00 32.92    -0.647 OA
ENDBRANCH  16  17
ENDBRANCH  15  16
ENDBRANCH  14  15
END_RES GLU D 570
ENDMDL
MODEL 7
REMARK VINA RESULT:      -4.6      6.141      7.590
REMARK  6 active torsions:
REMARK  status: ('A' for Active; 'I' for Inactive)
REMARK    1  A    between atoms: N_2  and  C_5 
REMARK    2  A    between atoms: C_5  and  C_6 
REMARK    3  A    between atoms: C_6  and  C_7 
REMARK    4  A    between atoms: C_6  and  O_11 
REMARK    5  A    between atoms: C_7  and  C_8 
REMARK    6  A    between atoms: C_8  and  O_10 
ROOT
HETATM    1  C   UNL     1     -35.540  -1.015 -12.317  1.00  0.00     0.154 C 
ENDROOT
BRANCH   1   2
HETATM    2  C   UNL     1     -34.708  -2.246 -12.780  1.00  0.00     0.268 C 
BRANCH   2   3
HETATM    3  N   UNL     1     -34.203  -3.166 -11.611  1.00  0.00    -0.076 N 
HETATM    4  C   UNL     1     -35.294  -4.086 -11.082  1.00  0.00     0.271 C 
HETATM    5  C   UNL     1     -33.762  -2.262 -10.452  1.00  0.00     0.271 C 
HETATM    6  C   UNL     1     -33.020  -4.036 -12.062  1.00  0.00     0.271 C 
ENDBRANCH   2   3
ENDBRANCH   1   2
BRANCH   1   7
HETATM    7  C   UNL     1     -34.996   0.355 -12.780  1.00  0.00     0.143 C 
BRANCH   7   8
HETATM    8  C   UNL     1     -35.171   0.582 -14.260  1.00  0.00     0.141 C 
HETATM    9  O   UNL     1     -34.238   0.473 -15.053  1.00  0.00    -0.650 OA
BRANCH   8  10
HETATM   10  O   UNL     1     -36.418   0.894 -14.626  1.00  0.00    -0.776 OA
HETATM   11  H   UNL     1     -36.732   1.785 -14.376  1.00  0.00     0.167 HD
ENDBRANCH   8  10
ENDBRANCH   7   8
ENDBRANCH   1   7
BRANCH   1  12
HETATM   12  O   UNL     1     -36.909  -1.137 -12.713  1.00  0.00    -0.393 OA
HETATM   13  H   UNL     1     -37.291  -1.916 -12.249  1.00  0.00     0.210 HD
ENDBRANCH   1  12
TORSDOF 6
BEGIN_RES ARG D 557
REMARK  4 active torsions:
REMARK  status: ('A' for Active; 'I' for Inactive)
REMARK    1  A    between atoms: CA   and  CB  
REMARK    2  A    between atoms: CB   and  CG  
REMARK    3  A    between atoms: CG   and  CD  
REMARK    4  A    between atoms: CD   and  NE  
REMARK       I    between atoms: NE   and  CZ  
REMARK       I    between atoms: CZ   and  NH1 
REMARK       I    between atoms: CZ   and  NH2 
ROOT
ATOM      1  CA  ARG D 557     -26.217   2.705 -17.014  1.00 35.49     0.159 C 
ENDROOT
BRANCH   1   2
ATOM      2  CB  ARG D 557     -26.789   1.319 -17.183  1.00 35.49     0.034 C 
BRANCH   2   3
ATOM      3  CG  ARG D 557     -25.835   0.203 -17.159  1.00 35.49     0.027 C 
BRANCH   3   4
ATOM      4  CD  ARG D 557     -24.748   0.411 -16.175  1.00 35.49     0.116 C 
BRANCH   4   5
ATOM      5  NE  ARG D 557     -24.893  -0.436 -15.021  1.00 35.49    -0.212 N 
ATOM      6  CZ  ARG D 557     -24.075  -1.404 -14.671  1.00 35.49     0.666 C 
ATOM      7  NH1 ARG D 557     -23.006  -1.719 -15.379  1.00 35.49    -0.235 N 
ATOM      8  NH2 ARG D 557     -24.350  -2.057 -13.579  1.00 35.49    -0.235 N 
ATOM      9  HH  ARG D 557     -22.805  -1.302 -16.099  1.00 35.49     0.174 HD
ATOM     10  HH  ARG D 557     -22.508  -2.359 -15.100  1.00 35.49     0.174 HD
ATOM     11  HH  ARG D 557     -25.043  -1.826 -13.139  1.00 35.49     0.174 HD
ATOM     12  HH  ARG D 557     -23.844  -2.685 -13.320  1.00 35.49     0.174 HD
ATOM     13  HE  ARG D 557     -25.594  -0.350 -14.548  1.00 35.49     0.178 HD
ENDBRANCH   4   5
ENDBRANCH   3   4
ENDBRANCH   2   3
ENDBRANCH   1   2
END_RES ARG D 557
BEGIN_RES GLU D 570
REMARK  3 active torsions:
REMARK  status: ('A' for Active; 'I' for Inactive)
REMARK    5  A    between atoms: CA   and  CB  
REMARK    6  A    between atoms: CB   and  CG  
REMARK    7  A    between atoms: CG   and  CD  
ROOT
ATOM     14  CA  GLU D 570     -18.033  -6.348 -13.375  1.00 32.92     0.160 C 
ENDROOT
BRANCH  14  15
ATOM     15  CB  GLU D 570     -19.500  -6.345 -13.794  1.00 32.92     0.043 C 
BRANCH  15  16
ATOM     16  CG  GLU D 570     -20.441  -5.527 -12.986  1.00 32.92     0.100 C 
BRANCH  16  17
ATOM     17  CD  GLU D 570     -21.742  -5.247 -13.701  1.00 32.92     0.185 C 
ATOM     18  OE1 GLU D 570     -22.225  -6.122 -14.444  1.00 32.92    -0.647 OA
ATOM     19  OE2 GLU D 570     -22.275  -4.133 -13.529  1.00 32.92    -0.647 OA
ENDBRANCH  16  17
ENDBRANCH  15  16
ENDBRANCH  14  15
END_RES GLU D 570
ENDMDL
MODEL 8
REMARK VINA RESULT:      -4.6      5.621      6.987
REMARK  6 active torsions:
REMARK  status: ('A' for Active; 'I' for Inactive)
REMARK    1  A    between atoms: N_2  and  C_5 
REMARK    2  A    between atoms: C_5  and  C_6 
REMARK    3  A    between atoms: C_6  and  C_7 
REMARK    4  A    between atoms: C_6  and  O_11 
REMARK    5  A    between atoms: C_7  and  C_8 
REMARK    6  A    between atoms: C_8  and  O_10 
ROOT
HETATM    1  C   UNL     1     -34.359  -2.281 -12.283  1.00  0.00     0.154 C 
ENDROOT
BRANCH   1   2
HETATM    2  C   UNL     1     -35.756  -1.881 -11.726  1.00  0.00     0.268 C 
BRANCH   2   3
HETATM    3  N   UNL     1     -36.193  -0.410 -12.062  1.00  0.00    -0.076 N 
HETATM    4  C   UNL     1     -37.291  -0.354 -13.114  1.00  0.00     0.271 C 
HETATM    5  C   UNL     1     -34.974   0.329 -12.631  1.00  0.00     0.271 C 
HETATM    6  C   UNL     1     -36.695   0.320 -10.807  1.00  0.00     0.271 C 
ENDBRANCH   2   3
ENDBRANCH   1   2
BRANCH   1   7
HETATM    7  C   UNL     1     -33.400  -2.913 -11.252  1.00  0.00     0.143 C 
BRANCH   7   8
HETATM    8  C   UNL     1     -33.206  -4.393 -11.466  1.00  0.00     0.141 C 
HETATM    9  O   UNL     1     -33.946  -5.230 -10.955  1.00  0.00    -0.650 OA
BRANCH   8  10
HETATM   10  O   UNL     1     -32.179  -4.705 -12.263  1.00  0.00    -0.776 OA
HETATM   11  H   UNL     1     -31.401  -4.115 -12.217  1.00  0.00     0.167 HD
ENDBRANCH   8  10
ENDBRANCH   7   8
ENDBRANCH   1   7
BRANCH   1  12
HETATM   12  O   UNL     1     -34.482  -3.153 -13.411  1.00  0.00    -0.393 OA
HETATM   13  H   UNL     1     -34.564  -4.074 -13.074  1.00  0.00     0.210 HD
ENDBRANCH   1  12
TORSDOF 6
BEGIN_RES ARG D 557
REMARK  4 active torsions:
REMARK  status: ('A' for Active; 'I' for Inactive)
REMARK    1  A    between atoms: CA   and  CB  
REMARK    2  A    between atoms: CB   and  CG  
REMARK    3  A    between atoms: CG   and  CD  
REMARK    4  A    between atoms: CD   and  NE  
REMARK       I    between atoms: NE   and  CZ  
REMARK       I    between atoms: CZ   and  NH1 
REMARK       I    between atoms: CZ   and  NH2 
ROOT
ATOM      1  CA  ARG D 557     -26.217   2.705 -17.014  1.00 35.49     0.159 C 
ENDROOT
BRANCH   1   2
ATOM      2  CB  ARG D 557     -26.789   1.319 -17.183  1.00 35.49     0.034 C 
BRANCH   2   3
ATOM      3  CG  ARG D 557     -25.835   0.203 -17.159  1.00 35.49     0.027 C 
BRANCH   3   4
ATOM      4  CD  ARG D 557     -24.747   0.412 -16.177  1.00 35.49     0.116 C 
BRANCH   4   5
ATOM      5  NE  ARG D 557     -24.891  -0.432 -15.020  1.00 35.49    -0.212 N 
ATOM      6  CZ  ARG D 557     -24.073  -1.399 -14.669  1.00 35.49     0.666 C 
ATOM      7  NH1 ARG D 557     -23.003  -1.715 -15.375  1.00 35.49    -0.235 N 
ATOM      8  NH2 ARG D 557     -24.347  -2.050 -13.575  1.00 35.49    -0.235 N 
ATOM      9  HH  ARG D 557     -22.802  -1.299 -16.097  1.00 35.49     0.174 HD
ATOM     10  HH  ARG D 557     -22.505  -2.353 -15.095  1.00 35.49     0.174 HD
ATOM     11  HH  ARG D 557     -25.041  -1.819 -13.136  1.00 35.49     0.174 HD
ATOM     12  HH  ARG D 557     -23.841  -2.677 -13.314  1.00 35.49     0.174 HD
ATOM     13  HE  ARG D 557     -25.593  -0.346 -14.548  1.00 35.49     0.178 HD
ENDBRANCH   4   5
ENDBRANCH   3   4
ENDBRANCH   2   3
ENDBRANCH   1   2
END_RES ARG D 557
BEGIN_RES GLU D 570
REMARK  3 active torsions:
REMARK  status: ('A' for Active; 'I' for Inactive)
REMARK    5  A    between atoms: CA   and  CB  
REMARK    6  A    between atoms: CB   and  CG  
REMARK    7  A    between atoms: CG   and  CD  
ROOT
ATOM     14  CA  GLU D 570     -18.033  -6.348 -13.375  1.00 32.92     0.160 C 
ENDROOT
BRANCH  14  15
ATOM     15  CB  GLU D 570     -19.500  -6.345 -13.794  1.00 32.92     0.043 C 
BRANCH  15  16
ATOM     16  CG  GLU D 570     -20.442  -5.530 -12.984  1.00 32.92     0.100 C 
BRANCH  16  17
ATOM     17  CD  GLU D 570     -21.739  -5.240 -13.703  1.00 32.92     0.185 C 
ATOM     18  OE1 GLU D 570     -22.300  -4.143 -13.520  1.00 32.92    -0.647 OA
ATOM     19  OE2 GLU D 570     -22.207  -6.127 -14.443  1.00 32.92    -0.647 OA
ENDBRANCH  16  17
ENDBRANCH  15  16
ENDBRANCH  14  15
END_RES GLU D 570
ENDMDL
MODEL 9
REMARK VINA RESULT:      -4.5      4.216      7.988
REMARK  6 active torsions:
REMARK  status: ('A' for Active; 'I' for Inactive)
REMARK    1  A    between atoms: N_2  and  C_5 
REMARK    2  A    between atoms: C_5  and  C_6 
REMARK    3  A    between atoms: C_6  and  C_7 
REMARK    4  A    between atoms: C_6  and  O_11 
REMARK    5  A    between atoms: C_7  and  C_8 
REMARK    6  A    between atoms: C_8  and  O_10 
ROOT
HETATM    1  C   UNL     1     -22.940  -4.199  -8.921  1.00  0.00     0.154 C 
ENDROOT
BRANCH   1   2
HETATM    2  C   UNL     1     -21.955  -5.300  -8.430  1.00  0.00     0.268 C 
BRANCH   2   3
HETATM    3  N   UNL     1     -21.116  -4.902  -7.163  1.00  0.00    -0.076 N 
HETATM    4  C   UNL     1     -21.125  -3.402  -6.905  1.00  0.00     0.271 C 
HETATM    5  C   UNL     1     -19.659  -5.317  -7.409  1.00  0.00     0.271 C 
HETATM    6  C   UNL     1     -21.644  -5.608  -5.905  1.00  0.00     0.271 C 
ENDBRANCH   2   3
ENDBRANCH   1   2
BRANCH   1   7
HETATM    7  C   UNL     1     -23.456  -4.380 -10.365  1.00  0.00     0.143 C 
BRANCH   7   8
HETATM    8  C   UNL     1     -24.446  -3.316 -10.767  1.00  0.00     0.141 C 
HETATM    9  O   UNL     1     -25.514  -3.160 -10.178  1.00  0.00    -0.650 OA
BRANCH   8  10
HETATM   10  O   UNL     1     -24.055  -2.561 -11.798  1.00  0.00    -0.776 OA
HETATM   11  H   UNL     1     -23.134  -2.685 -12.101  1.00  0.00     0.167 HD
ENDBRANCH   8  10
ENDBRANCH   7   8
ENDBRANCH   1   7
BRANCH   1  12
HETATM   12  O   UNL     1     -24.054  -4.069  -8.034  1.00  0.00    -0.393 OA
HETATM   13  H   UNL     1     -24.269  -4.963  -7.682  1.00  0.00     0.210 HD
ENDBRANCH   1  12
TORSDOF 6
BEGIN_RES ARG D 557
REMARK  4 active torsions:
REMARK  status: ('A' for Active; 'I' for Inactive)
REMARK    1  A    between atoms: CA   and  CB  
REMARK    2  A    between atoms: CB   and  CG  
REMARK    3  A    between atoms: CG   and  CD  
REMARK    4  A    between atoms: CD   and  NE  
REMARK       I    between atoms: NE   and  CZ  
REMARK       I    between atoms: CZ   and  NH1 
REMARK       I    between atoms: CZ   and  NH2 
ROOT
ATOM      1  CA  ARG D 557     -26.217   2.705 -17.014  1.00 35.49     0.159 C 
ENDROOT
BRANCH   1   2
ATOM      2  CB  ARG D 557     -26.789   1.319 -17.183  1.00 35.49     0.034 C 
BRANCH   2   3
ATOM      3  CG  ARG D 557     -28.229   1.227 -17.451  1.00 35.49     0.027 C 
BRANCH   3   4
ATOM      4  CD  ARG D 557     -28.921   0.314 -16.512  1.00 35.49     0.116 C 
BRANCH   4   5
ATOM      5  NE  ARG D 557     -29.286  -0.931 -17.135  1.00 35.49    -0.212 N 
ATOM      6  CZ  ARG D 557     -28.636  -2.067 -17.020  1.00 35.49     0.666 C 
ATOM      7  NH1 ARG D 557     -27.532  -2.184 -16.306  1.00 35.49    -0.235 N 
ATOM      8  NH2 ARG D 557     -29.123  -3.103 -17.639  1.00 35.49    -0.235 N 
ATOM      9  HH  ARG D 557     -27.194  -1.516 -15.888  1.00 35.49     0.174 HD
ATOM     10  HH  ARG D 557     -27.152  -2.951 -16.265  1.00 35.49     0.174 HD
ATOM     11  HH  ARG D 557     -29.842  -3.000 -18.088  1.00 35.49     0.174 HD
ATOM     12  HH  ARG D 557     -28.734  -3.854 -17.586  1.00 35.49     0.174 HD
ATOM     13  HE  ARG D 557     -29.944  -0.930 -17.673  1.00 35.49     0.178 HD
ENDBRANCH   4   5
ENDBRANCH   3   4
ENDBRANCH   2   3
ENDBRANCH   1   2
END_RES ARG D 557
BEGIN_RES GLU D 570
REMARK  3 active torsions:
REMARK  status: ('A' for Active; 'I' for Inactive)
REMARK    5  A    between atoms: CA   and  CB  
REMARK    6  A    between atoms: CB   and  CG  
REMARK    7  A    between atoms: CG   and  CD  
ROOT
ATOM     14  CA  GLU D 570     -18.033  -6.348 -13.375  1.00 32.92     0.160 C 
ENDROOT
BRANCH  14  15
ATOM     15  CB  GLU D 570     -19.500  -6.345 -13.794  1.00 32.92     0.043 C 
BRANCH  15  16
ATOM     16  CG  GLU D 570     -20.438  -5.512 -12.998  1.00 32.92     0.100 C 
BRANCH  16  17
ATOM     17  CD  GLU D 570     -21.733  -5.227 -13.722  1.00 32.92     0.185 C 
ATOM     18  OE1 GLU D 570     -22.234  -6.115 -14.438  1.00 32.92    -0.647 OA
ATOM     19  OE2 GLU D 570     -22.243  -4.097 -13.585  1.00 32.92    -0.647 OA
ENDBRANCH  16  17
ENDBRANCH  15  16
ENDBRANCH  14  15
END_RES GLU D 570
ENDMDL
