MODEL 1
REMARK VINA RESULT:      -7.2      0.000      0.000
REMARK  16 active torsions:
REMARK  status: ('A' for Active; 'I' for Inactive)
REMARK    1  A    between atoms: C_2  and  C_3 
REMARK    2  A    between atoms: C_3  and  C_4 
REMARK    3  A    between atoms: C_4  and  C_5 
REMARK    4  A    between atoms: C_5  and  C_6 
REMARK    5  A    between atoms: C_5  and  C_8 
REMARK    6  A    between atoms: C_8  and  O_9 
REMARK    7  A    between atoms: O_9  and  C_10 
REMARK    8  A    between atoms: C_10  and  C_12 
REMARK    9  A    between atoms: C_17  and  C_18 
REMARK   10  A    between atoms: C_18  and  O_20 
REMARK   11  A    between atoms: O_20  and  C_21 
REMARK   12  A    between atoms: C_21  and  C_22 
REMARK   13  A    between atoms: C_22  and  C_23 
REMARK   14  A    between atoms: C_22  and  C_25 
REMARK   15  A    between atoms: C_25  and  C_26 
REMARK   16  A    between atoms: C_26  and  C_27 
ROOT
HETATM    1  C   UNL     1     -21.079  -7.480  -3.064  1.00  0.00     0.055 A 
HETATM    2  C   UNL     1     -20.055  -8.373  -2.675  1.00  0.00     0.018 A 
HETATM    3  C   UNL     1     -19.338  -9.104  -3.621  1.00  0.00     0.001 A 
HETATM    4  C   UNL     1     -19.641  -8.966  -4.966  1.00  0.00     0.001 A 
HETATM    5  C   UNL     1     -20.622  -8.054  -5.369  1.00  0.00     0.018 A 
HETATM    6  C   UNL     1     -21.322  -7.273  -4.424  1.00  0.00     0.055 A 
ENDROOT
BRANCH   1   7
HETATM    7  C   UNL     1     -21.848  -6.820  -1.979  1.00  0.00     0.294 C 
HETATM    8  O   UNL     1     -22.553  -5.838  -2.092  1.00  0.00    -0.259 OA
BRANCH   7   9
HETATM    9  O   UNL     1     -21.578  -7.468  -0.814  1.00  0.00    -0.317 OA
BRANCH   9  10
HETATM   10  C   UNL     1     -22.716  -7.969  -0.101  1.00  0.00     0.183 C 
BRANCH  10  11
HETATM   11  C   UNL     1     -22.597  -9.451   0.288  1.00  0.00     0.010 C 
BRANCH  11  12
HETATM   12  C   UNL     1     -23.293 -10.348  -0.760  1.00  0.00     0.007 C 
BRANCH  12  13
HETATM   13  C   UNL     1     -22.369 -11.035  -1.773  1.00  0.00     0.000 C 
BRANCH  13  14
HETATM   14  C   UNL     1     -22.809 -10.886  -3.229  1.00  0.00    -0.005 C 
HETATM   15  C   UNL     1     -21.976 -11.779  -4.138  1.00  0.00     0.005 C 
ENDBRANCH  13  14
ENDBRANCH  12  13
ENDBRANCH  11  12
BRANCH  11  16
HETATM   16  C   UNL     1     -21.120  -9.809   0.563  1.00  0.00     0.002 C 
HETATM   17  C   UNL     1     -20.541  -9.253   1.857  1.00  0.00     0.005 C 
ENDBRANCH  11  16
ENDBRANCH  10  11
ENDBRANCH   9  10
ENDBRANCH   7   9
ENDBRANCH   1   7
BRANCH   6  18
HETATM   18  C   UNL     1     -22.243  -6.257  -5.001  1.00  0.00     0.294 C 
HETATM   19  O   UNL     1     -23.449  -6.412  -5.030  1.00  0.00    -0.259 OA
BRANCH  18  20
HETATM   20  O   UNL     1     -21.523  -5.362  -5.721  1.00  0.00    -0.317 OA
BRANCH  20  21
HETATM   21  C   UNL     1     -22.184  -4.763  -6.850  1.00  0.00     0.183 C 
BRANCH  21  22
HETATM   22  C   UNL     1     -21.238  -4.171  -7.916  1.00  0.00     0.010 C 
BRANCH  22  23
HETATM   23  C   UNL     1     -19.937  -4.987  -8.100  1.00  0.00     0.002 C 
HETATM   24  C   UNL     1     -18.701  -4.400  -7.429  1.00  0.00     0.005 C 
ENDBRANCH  22  23
BRANCH  22  25
HETATM   25  C   UNL     1     -21.968  -4.003  -9.275  1.00  0.00     0.007 C 
BRANCH  25  26
HETATM   26  C   UNL     1     -21.018  -3.982 -10.477  1.00  0.00     0.000 C 
BRANCH  26  27
HETATM   27  C   UNL     1     -21.629  -3.288 -11.694  1.00  0.00    -0.005 C 
HETATM   28  C   UNL     1     -23.107  -3.005 -11.459  1.00  0.00     0.005 C 
ENDBRANCH  26  27
ENDBRANCH  25  26
ENDBRANCH  22  25
ENDBRANCH  21  22
ENDBRANCH  20  21
ENDBRANCH  18  20
ENDBRANCH   6  18
TORSDOF 16
BEGIN_RES ARG D 557
REMARK  4 active torsions:
REMARK  status: ('A' for Active; 'I' for Inactive)
REMARK    1  A    between atoms: CA   and  CB  
REMARK    2  A    between atoms: CB   and  CG  
REMARK    3  A    between atoms: CG   and  CD  
REMARK    4  A    between atoms: CD   and  NE  
REMARK       I    between atoms: NE   and  CZ  
REMARK       I    between atoms: CZ   and  NH1 
REMARK       I    between atoms: CZ   and  NH2 
ROOT
ATOM      1  CA  ARG D 557     -26.217   2.705 -17.014  1.00 35.49     0.159 C 
ENDROOT
BRANCH   1   2
ATOM      2  CB  ARG D 557     -26.789   1.319 -17.183  1.00 35.49     0.034 C 
BRANCH   2   3
ATOM      3  CG  ARG D 557     -25.967   0.202 -16.701  1.00 35.49     0.027 C 
BRANCH   3   4
ATOM      4  CD  ARG D 557     -26.780  -0.873 -16.087  1.00 35.49     0.116 C 
BRANCH   4   5
ATOM      5  NE  ARG D 557     -26.006  -1.697 -15.198  1.00 35.49    -0.212 N 
ATOM      6  CZ  ARG D 557     -26.154  -2.992 -15.027  1.00 35.49     0.666 C 
ATOM      7  NH1 ARG D 557     -27.072  -3.692 -15.668  1.00 35.49    -0.235 N 
ATOM      8  NH2 ARG D 557     -25.348  -3.583 -14.193  1.00 35.49    -0.235 N 
ATOM      9  HH  ARG D 557     -27.611  -3.324 -16.222  1.00 35.49     0.174 HD
ATOM     10  HH  ARG D 557     -27.120  -4.534 -15.518  1.00 35.49     0.174 HD
ATOM     11  HH  ARG D 557     -24.760  -3.108 -13.799  1.00 35.49     0.174 HD
ATOM     12  HH  ARG D 557     -25.410  -4.419 -14.060  1.00 35.49     0.174 HD
ATOM     13  HE  ARG D 557     -25.440  -1.316 -14.691  1.00 35.49     0.178 HD
ENDBRANCH   4   5
ENDBRANCH   3   4
ENDBRANCH   2   3
ENDBRANCH   1   2
END_RES ARG D 557
BEGIN_RES GLU D 570
REMARK  3 active torsions:
REMARK  status: ('A' for Active; 'I' for Inactive)
REMARK    5  A    between atoms: CA   and  CB  
REMARK    6  A    between atoms: CB   and  CG  
REMARK    7  A    between atoms: CG   and  CD  
ROOT
ATOM     14  CA  GLU D 570     -18.033  -6.348 -13.375  1.00 32.92     0.160 C 
ENDROOT
BRANCH  14  15
ATOM     15  CB  GLU D 570     -19.500  -6.345 -13.794  1.00 32.92     0.043 C 
BRANCH  15  16
ATOM     16  CG  GLU D 570     -20.085  -7.633 -14.248  1.00 32.92     0.100 C 
BRANCH  16  17
ATOM     17  CD  GLU D 570     -20.681  -7.554 -15.634  1.00 32.92     0.185 C 
ATOM     18  OE1 GLU D 570     -21.216  -8.568 -16.121  1.00 32.92    -0.647 OA
ATOM     19  OE2 GLU D 570     -20.596  -6.471 -16.246  1.00 32.92    -0.647 OA
ENDBRANCH  16  17
ENDBRANCH  15  16
ENDBRANCH  14  15
END_RES GLU D 570
ENDMDL
MODEL 2
REMARK VINA RESULT:      -7.1      2.277      3.337
REMARK  16 active torsions:
REMARK  status: ('A' for Active; 'I' for Inactive)
REMARK    1  A    between atoms: C_2  and  C_3 
REMARK    2  A    between atoms: C_3  and  C_4 
REMARK    3  A    between atoms: C_4  and  C_5 
REMARK    4  A    between atoms: C_5  and  C_6 
REMARK    5  A    between atoms: C_5  and  C_8 
REMARK    6  A    between atoms: C_8  and  O_9 
REMARK    7  A    between atoms: O_9  and  C_10 
REMARK    8  A    between atoms: C_10  and  C_12 
REMARK    9  A    between atoms: C_17  and  C_18 
REMARK   10  A    between atoms: C_18  and  O_20 
REMARK   11  A    between atoms: O_20  and  C_21 
REMARK   12  A    between atoms: C_21  and  C_22 
REMARK   13  A    between atoms: C_22  and  C_23 
REMARK   14  A    between atoms: C_22  and  C_25 
REMARK   15  A    between atoms: C_25  and  C_26 
REMARK   16  A    between atoms: C_26  and  C_27 
ROOT
HETATM    1  C   UNL     1     -20.582  -8.546  -2.052  1.00  0.00     0.055 A 
HETATM    2  C   UNL     1     -20.975  -8.176  -0.746  1.00  0.00     0.018 A 
HETATM    3  C   UNL     1     -21.860  -7.120  -0.530  1.00  0.00     0.001 A 
HETATM    4  C   UNL     1     -22.353  -6.410  -1.613  1.00  0.00     0.001 A 
HETATM    5  C   UNL     1     -22.007  -6.792  -2.913  1.00  0.00     0.018 A 
HETATM    6  C   UNL     1     -21.150  -7.889  -3.146  1.00  0.00     0.055 A 
ENDROOT
BRANCH   1   7
HETATM    7  C   UNL     1     -19.563  -9.620  -2.172  1.00  0.00     0.294 C 
HETATM    8  O   UNL     1     -18.547  -9.577  -2.835  1.00  0.00    -0.259 OA
BRANCH   7   9
HETATM    9  O   UNL     1     -19.995 -10.694  -1.458  1.00  0.00    -0.317 OA
BRANCH   9  10
HETATM   10  C   UNL     1     -21.063 -11.446  -2.050  1.00  0.00     0.183 C 
BRANCH  10  11
HETATM   11  C   UNL     1     -22.154 -11.859  -1.050  1.00  0.00     0.010 C 
BRANCH  11  12
HETATM   12  C   UNL     1     -21.605 -11.838   0.395  1.00  0.00     0.007 C 
BRANCH  12  13
HETATM   13  C   UNL     1     -21.860 -13.102   1.226  1.00  0.00     0.000 C 
BRANCH  13  14
HETATM   14  C   UNL     1     -23.336 -13.467   1.380  1.00  0.00    -0.005 C 
HETATM   15  C   UNL     1     -23.557 -14.301   2.633  1.00  0.00     0.005 C 
ENDBRANCH  13  14
ENDBRANCH  12  13
ENDBRANCH  11  12
BRANCH  11  16
HETATM   16  C   UNL     1     -23.424 -11.008  -1.268  1.00  0.00     0.002 C 
HETATM   17  C   UNL     1     -23.944 -10.279  -0.036  1.00  0.00     0.005 C 
ENDBRANCH  11  16
ENDBRANCH  10  11
ENDBRANCH   9  10
ENDBRANCH   7   9
ENDBRANCH   1   7
BRANCH   6  18
HETATM   18  C   UNL     1     -20.970  -8.260  -4.575  1.00  0.00     0.294 C 
HETATM   19  O   UNL     1     -21.021  -9.412  -4.961  1.00  0.00    -0.259 OA
BRANCH  18  20
HETATM   20  O   UNL     1     -20.454  -7.203  -5.248  1.00  0.00    -0.317 OA
BRANCH  20  21
HETATM   21  C   UNL     1     -21.119  -6.826  -6.466  1.00  0.00     0.183 C 
BRANCH  21  22
HETATM   22  C   UNL     1     -21.135  -5.310  -6.755  1.00  0.00     0.010 C 
BRANCH  22  23
HETATM   23  C   UNL     1     -19.847  -4.587  -6.295  1.00  0.00     0.002 C 
HETATM   24  C   UNL     1     -18.764  -4.448  -7.359  1.00  0.00     0.005 C 
ENDBRANCH  22  23
BRANCH  22  25
HETATM   25  C   UNL     1     -21.403  -5.033  -8.258  1.00  0.00     0.007 C 
BRANCH  25  26
HETATM   26  C   UNL     1     -22.230  -3.767  -8.506  1.00  0.00     0.000 C 
BRANCH  26  27
HETATM   27  C   UNL     1     -23.705  -4.074  -8.763  1.00  0.00    -0.005 C 
HETATM   28  C   UNL     1     -24.146  -3.486 -10.096  1.00  0.00     0.005 C 
ENDBRANCH  26  27
ENDBRANCH  25  26
ENDBRANCH  22  25
ENDBRANCH  21  22
ENDBRANCH  20  21
ENDBRANCH  18  20
ENDBRANCH   6  18
TORSDOF 16
BEGIN_RES ARG D 557
REMARK  4 active torsions:
REMARK  status: ('A' for Active; 'I' for Inactive)
REMARK    1  A    between atoms: CA   and  CB  
REMARK    2  A    between atoms: CB   and  CG  
REMARK    3  A    between atoms: CG   and  CD  
REMARK    4  A    between atoms: CD   and  NE  
REMARK       I    between atoms: NE   and  CZ  
REMARK       I    between atoms: CZ   and  NH1 
REMARK       I    between atoms: CZ   and  NH2 
ROOT
ATOM      1  CA  ARG D 557     -26.217   2.705 -17.014  1.00 35.49     0.159 C 
ENDROOT
BRANCH   1   2
ATOM      2  CB  ARG D 557     -26.789   1.319 -17.183  1.00 35.49     0.034 C 
BRANCH   2   3
ATOM      3  CG  ARG D 557     -25.837   0.202 -17.146  1.00 35.49     0.027 C 
BRANCH   3   4
ATOM      4  CD  ARG D 557     -24.779   0.397 -16.129  1.00 35.49     0.116 C 
BRANCH   4   5
ATOM      5  NE  ARG D 557     -24.948  -0.475 -14.996  1.00 35.49    -0.212 N 
ATOM      6  CZ  ARG D 557     -24.135  -1.447 -14.647  1.00 35.49     0.666 C 
ATOM      7  NH1 ARG D 557     -23.047  -1.743 -15.333  1.00 35.49    -0.235 N 
ATOM      8  NH2 ARG D 557     -24.434  -2.124 -13.577  1.00 35.49    -0.235 N 
ATOM      9  HH  ARG D 557     -22.829  -1.309 -16.040  1.00 35.49     0.174 HD
ATOM     10  HH  ARG D 557     -22.553  -2.386 -15.056  1.00 35.49     0.174 HD
ATOM     11  HH  ARG D 557     -25.139  -1.906 -13.149  1.00 35.49     0.174 HD
ATOM     12  HH  ARG D 557     -23.932  -2.756 -13.318  1.00 35.49     0.174 HD
ATOM     13  HE  ARG D 557     -25.662  -0.403 -14.540  1.00 35.49     0.178 HD
ENDBRANCH   4   5
ENDBRANCH   3   4
ENDBRANCH   2   3
ENDBRANCH   1   2
END_RES ARG D 557
BEGIN_RES GLU D 570
REMARK  3 active torsions:
REMARK  status: ('A' for Active; 'I' for Inactive)
REMARK    5  A    between atoms: CA   and  CB  
REMARK    6  A    between atoms: CB   and  CG  
REMARK    7  A    between atoms: CG   and  CD  
ROOT
ATOM     14  CA  GLU D 570     -18.033  -6.348 -13.375  1.00 32.92     0.160 C 
ENDROOT
BRANCH  14  15
ATOM     15  CB  GLU D 570     -19.500  -6.345 -13.794  1.00 32.92     0.043 C 
BRANCH  15  16
ATOM     16  CG  GLU D 570     -20.437  -5.511 -12.999  1.00 32.92     0.100 C 
BRANCH  16  17
ATOM     17  CD  GLU D 570     -21.580  -4.961 -13.820  1.00 32.92     0.185 C 
ATOM     18  OE1 GLU D 570     -21.630  -5.222 -15.038  1.00 32.92    -0.647 OA
ATOM     19  OE2 GLU D 570     -22.425  -4.249 -13.244  1.00 32.92    -0.647 OA
ENDBRANCH  16  17
ENDBRANCH  15  16
ENDBRANCH  14  15
END_RES GLU D 570
ENDMDL
MODEL 3
REMARK VINA RESULT:      -7.0      1.526      2.059
REMARK  16 active torsions:
REMARK  status: ('A' for Active; 'I' for Inactive)
REMARK    1  A    between atoms: C_2  and  C_3 
REMARK    2  A    between atoms: C_3  and  C_4 
REMARK    3  A    between atoms: C_4  and  C_5 
REMARK    4  A    between atoms: C_5  and  C_6 
REMARK    5  A    between atoms: C_5  and  C_8 
REMARK    6  A    between atoms: C_8  and  O_9 
REMARK    7  A    between atoms: O_9  and  C_10 
REMARK    8  A    between atoms: C_10  and  C_12 
REMARK    9  A    between atoms: C_17  and  C_18 
REMARK   10  A    between atoms: C_18  and  O_20 
REMARK   11  A    between atoms: O_20  and  C_21 
REMARK   12  A    between atoms: C_21  and  C_22 
REMARK   13  A    between atoms: C_22  and  C_23 
REMARK   14  A    between atoms: C_22  and  C_25 
REMARK   15  A    between atoms: C_25  and  C_26 
REMARK   16  A    between atoms: C_26  and  C_27 
ROOT
HETATM    1  C   UNL     1     -20.480  -7.834  -3.120  1.00  0.00     0.055 A 
HETATM    2  C   UNL     1     -19.685  -8.522  -2.176  1.00  0.00     0.018 A 
HETATM    3  C   UNL     1     -18.700  -9.421  -2.581  1.00  0.00     0.001 A 
HETATM    4  C   UNL     1     -18.505  -9.659  -3.933  1.00  0.00     0.001 A 
HETATM    5  C   UNL     1     -19.255  -8.953  -4.879  1.00  0.00     0.018 A 
HETATM    6  C   UNL     1     -20.221  -8.004  -4.482  1.00  0.00     0.055 A 
ENDROOT
BRANCH   1   7
HETATM    7  C   UNL     1     -21.565  -6.970  -2.588  1.00  0.00     0.294 C 
HETATM    8  O   UNL     1     -22.346  -6.310  -3.244  1.00  0.00    -0.259 OA
BRANCH   7   9
HETATM    9  O   UNL     1     -21.495  -6.991  -1.230  1.00  0.00    -0.317 OA
BRANCH   9  10
HETATM   10  C   UNL     1     -22.698  -7.378  -0.551  1.00  0.00     0.183 C 
BRANCH  10  11
HETATM   11  C   UNL     1     -22.499  -8.528   0.448  1.00  0.00     0.010 C 
BRANCH  11  12
HETATM   12  C   UNL     1     -22.540  -9.893  -0.278  1.00  0.00     0.007 C 
BRANCH  12  13
HETATM   13  C   UNL     1     -23.873 -10.647  -0.210  1.00  0.00     0.000 C 
BRANCH  13  14
HETATM   14  C   UNL     1     -23.746 -12.113   0.206  1.00  0.00    -0.005 C 
HETATM   15  C   UNL     1     -22.330 -12.420   0.672  1.00  0.00     0.005 C 
ENDBRANCH  13  14
ENDBRANCH  12  13
ENDBRANCH  11  12
BRANCH  11  16
HETATM   16  C   UNL     1     -21.229  -8.285   1.291  1.00  0.00     0.002 C 
HETATM   17  C   UNL     1     -20.480  -9.539   1.724  1.00  0.00     0.005 C 
ENDBRANCH  11  16
ENDBRANCH  10  11
ENDBRANCH   9  10
ENDBRANCH   7   9
ENDBRANCH   1   7
BRANCH   6  18
HETATM   18  C   UNL     1     -20.851  -7.239  -5.592  1.00  0.00     0.294 C 
HETATM   19  O   UNL     1     -21.581  -7.761  -6.412  1.00  0.00    -0.259 OA
BRANCH  18  20
HETATM   20  O   UNL     1     -20.245  -6.031  -5.700  1.00  0.00    -0.317 OA
BRANCH  20  21
HETATM   21  C   UNL     1     -19.698  -5.697  -6.987  1.00  0.00     0.183 C 
BRANCH  21  22
HETATM   22  C   UNL     1     -20.698  -5.049  -7.968  1.00  0.00     0.010 C 
BRANCH  22  23
HETATM   23  C   UNL     1     -21.792  -4.214  -7.262  1.00  0.00     0.002 C 
HETATM   24  C   UNL     1     -23.135  -4.159  -7.983  1.00  0.00     0.005 C 
ENDBRANCH  22  23
BRANCH  22  25
HETATM   25  C   UNL     1     -19.960  -4.187  -9.026  1.00  0.00     0.007 C 
BRANCH  25  26
HETATM   26  C   UNL     1     -20.338  -4.538 -10.469  1.00  0.00     0.000 C 
BRANCH  26  27
HETATM   27  C   UNL     1     -20.633  -3.299 -11.314  1.00  0.00    -0.005 C 
HETATM   28  C   UNL     1     -22.136  -3.101 -11.461  1.00  0.00     0.005 C 
ENDBRANCH  26  27
ENDBRANCH  25  26
ENDBRANCH  22  25
ENDBRANCH  21  22
ENDBRANCH  20  21
ENDBRANCH  18  20
ENDBRANCH   6  18
TORSDOF 16
BEGIN_RES ARG D 557
REMARK  4 active torsions:
REMARK  status: ('A' for Active; 'I' for Inactive)
REMARK    1  A    between atoms: CA   and  CB  
REMARK    2  A    between atoms: CB   and  CG  
REMARK    3  A    between atoms: CG   and  CD  
REMARK    4  A    between atoms: CD   and  NE  
REMARK       I    between atoms: NE   and  CZ  
REMARK       I    between atoms: CZ   and  NH1 
REMARK       I    between atoms: CZ   and  NH2 
ROOT
ATOM      1  CA  ARG D 557     -26.217   2.705 -17.014  1.00 35.49     0.159 C 
ENDROOT
BRANCH   1   2
ATOM      2  CB  ARG D 557     -26.789   1.319 -17.183  1.00 35.49     0.034 C 
BRANCH   2   3
ATOM      3  CG  ARG D 557     -26.037   0.215 -16.575  1.00 35.49     0.027 C 
BRANCH   3   4
ATOM      4  CD  ARG D 557     -26.912  -0.909 -16.171  1.00 35.49     0.116 C 
BRANCH   4   5
ATOM      5  NE  ARG D 557     -26.185  -1.941 -15.479  1.00 35.49    -0.212 N 
ATOM      6  CZ  ARG D 557     -25.097  -1.766 -14.763  1.00 35.49     0.666 C 
ATOM      7  NH1 ARG D 557     -24.531  -0.582 -14.610  1.00 35.49    -0.235 N 
ATOM      8  NH2 ARG D 557     -24.582  -2.813 -14.187  1.00 35.49    -0.235 N 
ATOM      9  HH  ARG D 557     -24.854   0.121 -14.978  1.00 35.49     0.174 HD
ATOM     10  HH  ARG D 557     -23.824  -0.528 -14.129  1.00 35.49     0.174 HD
ATOM     11  HH  ARG D 557     -24.973  -3.563 -14.297  1.00 35.49     0.174 HD
ATOM     12  HH  ARG D 557     -23.883  -2.739 -13.713  1.00 35.49     0.174 HD
ATOM     13  HE  ARG D 557     -26.438  -2.746 -15.583  1.00 35.49     0.178 HD
ENDBRANCH   4   5
ENDBRANCH   3   4
ENDBRANCH   2   3
ENDBRANCH   1   2
END_RES ARG D 557
BEGIN_RES GLU D 570
REMARK  3 active torsions:
REMARK  status: ('A' for Active; 'I' for Inactive)
REMARK    5  A    between atoms: CA   and  CB  
REMARK    6  A    between atoms: CB   and  CG  
REMARK    7  A    between atoms: CG   and  CD  
ROOT
ATOM     14  CA  GLU D 570     -18.033  -6.348 -13.375  1.00 32.92     0.160 C 
ENDROOT
BRANCH  14  15
ATOM     15  CB  GLU D 570     -19.500  -6.345 -13.794  1.00 32.92     0.043 C 
BRANCH  15  16
ATOM     16  CG  GLU D 570     -19.800  -6.152 -15.236  1.00 32.92     0.100 C 
BRANCH  16  17
ATOM     17  CD  GLU D 570     -21.083  -5.391 -15.475  1.00 32.92     0.185 C 
ATOM     18  OE1 GLU D 570     -21.428  -5.139 -16.646  1.00 32.92    -0.647 OA
ATOM     19  OE2 GLU D 570     -21.742  -5.029 -14.481  1.00 32.92    -0.647 OA
ENDBRANCH  16  17
ENDBRANCH  15  16
ENDBRANCH  14  15
END_RES GLU D 570
ENDMDL
MODEL 4
REMARK VINA RESULT:      -7.0      1.171      7.349
REMARK  16 active torsions:
REMARK  status: ('A' for Active; 'I' for Inactive)
REMARK    1  A    between atoms: C_2  and  C_3 
REMARK    2  A    between atoms: C_3  and  C_4 
REMARK    3  A    between atoms: C_4  and  C_5 
REMARK    4  A    between atoms: C_5  and  C_6 
REMARK    5  A    between atoms: C_5  and  C_8 
REMARK    6  A    between atoms: C_8  and  O_9 
REMARK    7  A    between atoms: O_9  and  C_10 
REMARK    8  A    between atoms: C_10  and  C_12 
REMARK    9  A    between atoms: C_17  and  C_18 
REMARK   10  A    between atoms: C_18  and  O_20 
REMARK   11  A    between atoms: O_20  and  C_21 
REMARK   12  A    between atoms: C_21  and  C_22 
REMARK   13  A    between atoms: C_22  and  C_23 
REMARK   14  A    between atoms: C_22  and  C_25 
REMARK   15  A    between atoms: C_25  and  C_26 
REMARK   16  A    between atoms: C_26  and  C_27 
ROOT
HETATM    1  C   UNL     1     -21.351  -7.313  -4.377  1.00  0.00     0.055 A 
HETATM    2  C   UNL     1     -20.657  -8.130  -5.298  1.00  0.00     0.018 A 
HETATM    3  C   UNL     1     -19.661  -9.010  -4.876  1.00  0.00     0.001 A 
HETATM    4  C   UNL     1     -19.334  -9.076  -3.531  1.00  0.00     0.001 A 
HETATM    5  C   UNL     1     -20.042  -8.306  -2.603  1.00  0.00     0.018 A 
HETATM    6  C   UNL     1     -21.084  -7.448  -3.012  1.00  0.00     0.055 A 
ENDROOT
BRANCH   1   7
HETATM    7  C   UNL     1     -22.325  -6.342  -4.936  1.00  0.00     0.294 C 
HETATM    8  O   UNL     1     -23.534  -6.454  -4.933  1.00  0.00    -0.259 OA
BRANCH   7   9
HETATM    9  O   UNL     1     -21.628  -5.327  -5.513  1.00  0.00    -0.317 OA
BRANCH   9  10
HETATM   10  C   UNL     1     -22.116  -4.882  -6.786  1.00  0.00     0.183 C 
BRANCH  10  11
HETATM   11  C   UNL     1     -21.226  -5.298  -7.968  1.00  0.00     0.010 C 
BRANCH  11  12
HETATM   12  C   UNL     1     -21.370  -4.298  -9.137  1.00  0.00     0.007 C 
BRANCH  12  13
HETATM   13  C   UNL     1     -22.806  -3.916  -9.518  1.00  0.00     0.000 C 
BRANCH  13  14
HETATM   14  C   UNL     1     -23.242  -4.406 -10.900  1.00  0.00    -0.005 C 
HETATM   15  C   UNL     1     -22.073  -4.379 -11.874  1.00  0.00     0.005 C 
ENDBRANCH  13  14
ENDBRANCH  12  13
ENDBRANCH  11  12
BRANCH  11  16
HETATM   16  C   UNL     1     -19.775  -5.521  -7.487  1.00  0.00     0.002 C 
HETATM   17  C   UNL     1     -18.889  -4.282  -7.484  1.00  0.00     0.005 C 
ENDBRANCH  11  16
ENDBRANCH  10  11
ENDBRANCH   9  10
ENDBRANCH   7   9
ENDBRANCH   1   7
BRANCH   6  18
HETATM   18  C   UNL     1     -21.832  -6.788  -1.909  1.00  0.00     0.294 C 
HETATM   19  O   UNL     1     -22.331  -5.685  -2.027  1.00  0.00    -0.259 OA
BRANCH  18  20
HETATM   20  O   UNL     1     -21.586  -7.445  -0.749  1.00  0.00    -0.317 OA
BRANCH  20  21
HETATM   21  C   UNL     1     -22.644  -8.277  -0.243  1.00  0.00     0.183 C 
BRANCH  21  22
HETATM   22  C   UNL     1     -22.433  -9.793  -0.448  1.00  0.00     0.010 C 
BRANCH  22  23
HETATM   23  C   UNL     1     -21.181 -10.338   0.278  1.00  0.00     0.002 C 
HETATM   24  C   UNL     1     -20.721  -9.525   1.483  1.00  0.00     0.005 C 
ENDBRANCH  22  23
BRANCH  22  25
HETATM   25  C   UNL     1     -23.694 -10.592  -0.025  1.00  0.00     0.007 C 
BRANCH  25  26
HETATM   26  C   UNL     1     -24.084 -11.687  -1.024  1.00  0.00     0.000 C 
BRANCH  26  27
HETATM   27  C   UNL     1     -23.812 -13.092  -0.488  1.00  0.00    -0.005 C 
HETATM   28  C   UNL     1     -23.427 -13.034   0.985  1.00  0.00     0.005 C 
ENDBRANCH  26  27
ENDBRANCH  25  26
ENDBRANCH  22  25
ENDBRANCH  21  22
ENDBRANCH  20  21
ENDBRANCH  18  20
ENDBRANCH   6  18
TORSDOF 16
BEGIN_RES ARG D 557
REMARK  4 active torsions:
REMARK  status: ('A' for Active; 'I' for Inactive)
REMARK    1  A    between atoms: CA   and  CB  
REMARK    2  A    between atoms: CB   and  CG  
REMARK    3  A    between atoms: CG   and  CD  
REMARK    4  A    between atoms: CD   and  NE  
REMARK       I    between atoms: NE   and  CZ  
REMARK       I    between atoms: CZ   and  NH1 
REMARK       I    between atoms: CZ   and  NH2 
ROOT
ATOM      1  CA  ARG D 557     -26.217   2.705 -17.014  1.00 35.49     0.159 C 
ENDROOT
BRANCH   1   2
ATOM      2  CB  ARG D 557     -26.789   1.319 -17.183  1.00 35.49     0.034 C 
BRANCH   2   3
ATOM      3  CG  ARG D 557     -25.937   0.198 -16.768  1.00 35.49     0.027 C 
BRANCH   3   4
ATOM      4  CD  ARG D 557     -26.706  -0.879 -16.104  1.00 35.49     0.116 C 
BRANCH   4   5
ATOM      5  NE  ARG D 557     -25.989  -1.452 -14.995  1.00 35.49    -0.212 N 
ATOM      6  CZ  ARG D 557     -25.983  -2.723 -14.659  1.00 35.49     0.666 C 
ATOM      7  NH1 ARG D 557     -26.671  -3.635 -15.320  1.00 35.49    -0.235 N 
ATOM      8  NH2 ARG D 557     -25.258  -3.069 -13.635  1.00 35.49    -0.235 N 
ATOM      9  HH  ARG D 557     -27.153  -3.430 -15.998  1.00 35.49     0.174 HD
ATOM     10  HH  ARG D 557     -26.626  -4.449 -15.057  1.00 35.49     0.174 HD
ATOM     11  HH  ARG D 557     -24.818  -2.460 -13.232  1.00 35.49     0.174 HD
ATOM     12  HH  ARG D 557     -25.226  -3.881 -13.390  1.00 35.49     0.174 HD
ATOM     13  HE  ARG D 557     -25.577  -0.925 -14.471  1.00 35.49     0.178 HD
ENDBRANCH   4   5
ENDBRANCH   3   4
ENDBRANCH   2   3
ENDBRANCH   1   2
END_RES ARG D 557
BEGIN_RES GLU D 570
REMARK  3 active torsions:
REMARK  status: ('A' for Active; 'I' for Inactive)
REMARK    5  A    between atoms: CA   and  CB  
REMARK    6  A    between atoms: CB   and  CG  
REMARK    7  A    between atoms: CG   and  CD  
ROOT
ATOM     14  CA  GLU D 570     -18.033  -6.348 -13.375  1.00 32.92     0.160 C 
ENDROOT
BRANCH  14  15
ATOM     15  CB  GLU D 570     -19.500  -6.345 -13.794  1.00 32.92     0.043 C 
BRANCH  15  16
ATOM     16  CG  GLU D 570     -19.811  -5.960 -15.195  1.00 32.92     0.100 C 
BRANCH  16  17
ATOM     17  CD  GLU D 570     -21.281  -5.696 -15.421  1.00 32.92     0.185 C 
ATOM     18  OE1 GLU D 570     -21.637  -4.581 -15.848  1.00 32.92    -0.647 OA
ATOM     19  OE2 GLU D 570     -22.087  -6.609 -15.152  1.00 32.92    -0.647 OA
ENDBRANCH  16  17
ENDBRANCH  15  16
ENDBRANCH  14  15
END_RES GLU D 570
ENDMDL
MODEL 5
REMARK VINA RESULT:      -7.0      2.472      6.930
REMARK  16 active torsions:
REMARK  status: ('A' for Active; 'I' for Inactive)
REMARK    1  A    between atoms: C_2  and  C_3 
REMARK    2  A    between atoms: C_3  and  C_4 
REMARK    3  A    between atoms: C_4  and  C_5 
REMARK    4  A    between atoms: C_5  and  C_6 
REMARK    5  A    between atoms: C_5  and  C_8 
REMARK    6  A    between atoms: C_8  and  O_9 
REMARK    7  A    between atoms: O_9  and  C_10 
REMARK    8  A    between atoms: C_10  and  C_12 
REMARK    9  A    between atoms: C_17  and  C_18 
REMARK   10  A    between atoms: C_18  and  O_20 
REMARK   11  A    between atoms: O_20  and  C_21 
REMARK   12  A    between atoms: C_21  and  C_22 
REMARK   13  A    between atoms: C_22  and  C_23 
REMARK   14  A    between atoms: C_22  and  C_25 
REMARK   15  A    between atoms: C_25  and  C_26 
REMARK   16  A    between atoms: C_26  and  C_27 
ROOT
HETATM    1  C   UNL     1     -21.810  -6.927  -3.223  1.00  0.00     0.055 A 
HETATM    2  C   UNL     1     -22.211  -6.192  -2.085  1.00  0.00     0.018 A 
HETATM    3  C   UNL     1     -22.178  -6.758  -0.812  1.00  0.00     0.001 A 
HETATM    4  C   UNL     1     -21.760  -8.071  -0.658  1.00  0.00     0.001 A 
HETATM    5  C   UNL     1     -21.320  -8.796  -1.770  1.00  0.00     0.018 A 
HETATM    6  C   UNL     1     -21.303  -8.218  -3.056  1.00  0.00     0.055 A 
ENDROOT
BRANCH   1   7
HETATM    7  C   UNL     1     -21.972  -6.268  -4.544  1.00  0.00     0.294 C 
HETATM    8  O   UNL     1     -23.017  -6.090  -5.136  1.00  0.00    -0.259 OA
BRANCH   7   9
HETATM    9  O   UNL     1     -20.735  -5.953  -5.014  1.00  0.00    -0.317 OA
BRANCH   9  10
HETATM   10  C   UNL     1     -20.638  -4.715  -5.731  1.00  0.00     0.183 C 
BRANCH  10  11
HETATM   11  C   UNL     1     -21.001  -4.834  -7.220  1.00  0.00     0.010 C 
BRANCH  11  12
HETATM   12  C   UNL     1     -21.996  -3.724  -7.629  1.00  0.00     0.007 C 
BRANCH  12  13
HETATM   13  C   UNL     1     -23.366  -4.203  -8.124  1.00  0.00     0.000 C 
BRANCH  13  14
HETATM   14  C   UNL     1     -23.450  -4.417  -9.635  1.00  0.00    -0.005 C 
HETATM   15  C   UNL     1     -24.432  -3.438 -10.264  1.00  0.00     0.005 C 
ENDBRANCH  13  14
ENDBRANCH  12  13
ENDBRANCH  11  12
BRANCH  11  16
HETATM   16  C   UNL     1     -19.717  -4.895  -8.075  1.00  0.00     0.002 C 
HETATM   17  C   UNL     1     -19.859  -4.394  -9.506  1.00  0.00     0.005 C 
ENDBRANCH  11  16
ENDBRANCH  10  11
ENDBRANCH   9  10
ENDBRANCH   7   9
ENDBRANCH   1   7
BRANCH   6  18
HETATM   18  C   UNL     1     -20.692  -9.059  -4.122  1.00  0.00     0.294 C 
HETATM   19  O   UNL     1     -21.290  -9.975  -4.652  1.00  0.00    -0.259 OA
BRANCH  18  20
HETATM   20  O   UNL     1     -19.354  -8.843  -4.146  1.00  0.00    -0.317 OA
BRANCH  20  21
HETATM   21  C   UNL     1     -18.657  -9.257  -5.333  1.00  0.00     0.183 C 
BRANCH  21  22
HETATM   22  C   UNL     1     -17.606 -10.367  -5.115  1.00  0.00     0.010 C 
BRANCH  22  23
HETATM   23  C   UNL     1     -16.221 -10.022  -5.710  1.00  0.00     0.002 C 
HETATM   24  C   UNL     1     -15.425 -11.211  -6.237  1.00  0.00     0.005 C 
ENDBRANCH  22  23
BRANCH  22  25
HETATM   25  C   UNL     1     -17.476 -10.721  -3.610  1.00  0.00     0.007 C 
BRANCH  25  26
HETATM   26  C   UNL     1     -16.389  -9.918  -2.888  1.00  0.00     0.000 C 
BRANCH  26  27
HETATM   27  C   UNL     1     -15.543 -10.784  -1.956  1.00  0.00    -0.005 C 
HETATM   28  C   UNL     1     -15.277 -12.144  -2.589  1.00  0.00     0.005 C 
ENDBRANCH  26  27
ENDBRANCH  25  26
ENDBRANCH  22  25
ENDBRANCH  21  22
ENDBRANCH  20  21
ENDBRANCH  18  20
ENDBRANCH   6  18
TORSDOF 16
BEGIN_RES ARG D 557
REMARK  4 active torsions:
REMARK  status: ('A' for Active; 'I' for Inactive)
REMARK    1  A    between atoms: CA   and  CB  
REMARK    2  A    between atoms: CB   and  CG  
REMARK    3  A    between atoms: CG   and  CD  
REMARK    4  A    between atoms: CD   and  NE  
REMARK       I    between atoms: NE   and  CZ  
REMARK       I    between atoms: CZ   and  NH1 
REMARK       I    between atoms: CZ   and  NH2 
ROOT
ATOM      1  CA  ARG D 557     -26.217   2.705 -17.014  1.00 35.49     0.159 C 
ENDROOT
BRANCH   1   2
ATOM      2  CB  ARG D 557     -26.789   1.319 -17.183  1.00 35.49     0.034 C 
BRANCH   2   3
ATOM      3  CG  ARG D 557     -25.843   0.199 -17.101  1.00 35.49     0.027 C 
BRANCH   3   4
ATOM      4  CD  ARG D 557     -24.768   0.440 -16.112  1.00 35.49     0.116 C 
BRANCH   4   5
ATOM      5  NE  ARG D 557     -24.848  -0.461 -14.993  1.00 35.49    -0.212 N 
ATOM      6  CZ  ARG D 557     -23.993  -1.420 -14.716  1.00 35.49     0.666 C 
ATOM      7  NH1 ARG D 557     -22.941  -1.672 -15.473  1.00 35.49    -0.235 N 
ATOM      8  NH2 ARG D 557     -24.211  -2.128 -13.646  1.00 35.49    -0.235 N 
ATOM      9  HH  ARG D 557     -22.777  -1.217 -16.180  1.00 35.49     0.174 HD
ATOM     10  HH  ARG D 557     -22.416  -2.309 -15.241  1.00 35.49     0.174 HD
ATOM     11  HH  ARG D 557     -24.894  -1.937 -13.172  1.00 35.49     0.174 HD
ATOM     12  HH  ARG D 557     -23.679  -2.753 -13.433  1.00 35.49     0.174 HD
ATOM     13  HE  ARG D 557     -25.535  -0.416 -14.493  1.00 35.49     0.178 HD
ENDBRANCH   4   5
ENDBRANCH   3   4
ENDBRANCH   2   3
ENDBRANCH   1   2
END_RES ARG D 557
BEGIN_RES GLU D 570
REMARK  3 active torsions:
REMARK  status: ('A' for Active; 'I' for Inactive)
REMARK    5  A    between atoms: CA   and  CB  
REMARK    6  A    between atoms: CB   and  CG  
REMARK    7  A    between atoms: CG   and  CD  
ROOT
ATOM     14  CA  GLU D 570     -18.033  -6.348 -13.375  1.00 32.92     0.160 C 
ENDROOT
BRANCH  14  15
ATOM     15  CB  GLU D 570     -19.500  -6.345 -13.794  1.00 32.92     0.043 C 
BRANCH  15  16
ATOM     16  CG  GLU D 570     -20.439  -5.518 -12.993  1.00 32.92     0.100 C 
BRANCH  16  17
ATOM     17  CD  GLU D 570     -21.664  -5.097 -13.770  1.00 32.92     0.185 C 
ATOM     18  OE1 GLU D 570     -21.585  -4.980 -15.008  1.00 32.92    -0.647 OA
ATOM     19  OE2 GLU D 570     -22.710  -4.865 -13.133  1.00 32.92    -0.647 OA
ENDBRANCH  16  17
ENDBRANCH  15  16
ENDBRANCH  14  15
END_RES GLU D 570
ENDMDL
MODEL 6
REMARK VINA RESULT:      -6.9      2.086      2.895
REMARK  16 active torsions:
REMARK  status: ('A' for Active; 'I' for Inactive)
REMARK    1  A    between atoms: C_2  and  C_3 
REMARK    2  A    between atoms: C_3  and  C_4 
REMARK    3  A    between atoms: C_4  and  C_5 
REMARK    4  A    between atoms: C_5  and  C_6 
REMARK    5  A    between atoms: C_5  and  C_8 
REMARK    6  A    between atoms: C_8  and  O_9 
REMARK    7  A    between atoms: O_9  and  C_10 
REMARK    8  A    between atoms: C_10  and  C_12 
REMARK    9  A    between atoms: C_17  and  C_18 
REMARK   10  A    between atoms: C_18  and  O_20 
REMARK   11  A    between atoms: O_20  and  C_21 
REMARK   12  A    between atoms: C_21  and  C_22 
REMARK   13  A    between atoms: C_22  and  C_23 
REMARK   14  A    between atoms: C_22  and  C_25 
REMARK   15  A    between atoms: C_25  and  C_26 
REMARK   16  A    between atoms: C_26  and  C_27 
ROOT
HETATM    1  C   UNL     1     -19.343  -8.960  -3.281  1.00  0.00     0.055 A 
HETATM    2  C   UNL     1     -18.215  -9.458  -2.592  1.00  0.00     0.018 A 
HETATM    3  C   UNL     1     -17.110  -9.957  -3.281  1.00  0.00     0.001 A 
HETATM    4  C   UNL     1     -17.122  -9.981  -4.666  1.00  0.00     0.001 A 
HETATM    5  C   UNL     1     -18.214  -9.452  -5.362  1.00  0.00     0.018 A 
HETATM    6  C   UNL     1     -19.316  -8.900  -4.677  1.00  0.00     0.055 A 
ENDROOT
BRANCH   1   7
HETATM    7  C   UNL     1     -20.506  -8.539  -2.459  1.00  0.00     0.294 C 
HETATM    8  O   UNL     1     -20.680  -7.443  -1.967  1.00  0.00    -0.259 OA
BRANCH   7   9
HETATM    9  O   UNL     1     -21.319  -9.616  -2.294  1.00  0.00    -0.317 OA
BRANCH   9  10
HETATM   10  C   UNL     1     -21.609  -9.976  -0.936  1.00  0.00     0.183 C 
BRANCH  10  11
HETATM   11  C   UNL     1     -23.057  -9.681  -0.515  1.00  0.00     0.010 C 
BRANCH  11  12
HETATM   12  C   UNL     1     -23.746 -10.965   0.001  1.00  0.00     0.007 C 
BRANCH  12  13
HETATM   13  C   UNL     1     -22.820 -12.154   0.285  1.00  0.00     0.000 C 
BRANCH  13  14
HETATM   14  C   UNL     1     -23.414 -13.203   1.226  1.00  0.00    -0.005 C 
HETATM   15  C   UNL     1     -22.323 -13.848   2.069  1.00  0.00     0.005 C 
ENDBRANCH  13  14
ENDBRANCH  12  13
ENDBRANCH  11  12
BRANCH  11  16
HETATM   16  C   UNL     1     -23.091  -8.492   0.471  1.00  0.00     0.002 C 
HETATM   17  C   UNL     1     -21.777  -8.192   1.180  1.00  0.00     0.005 C 
ENDBRANCH  11  16
ENDBRANCH  10  11
ENDBRANCH   9  10
ENDBRANCH   7   9
ENDBRANCH   1   7
BRANCH   6  18
HETATM   18  C   UNL     1     -20.345  -8.260  -5.541  1.00  0.00     0.294 C 
HETATM   19  O   UNL     1     -21.384  -8.817  -5.839  1.00  0.00    -0.259 OA
BRANCH  18  20
HETATM   20  O   UNL     1     -19.803  -7.176  -6.149  1.00  0.00    -0.317 OA
BRANCH  20  21
HETATM   21  C   UNL     1     -20.555  -5.953  -6.074  1.00  0.00     0.183 C 
BRANCH  21  22
HETATM   22  C   UNL     1     -21.089  -5.435  -7.427  1.00  0.00     0.010 C 
BRANCH  22  23
HETATM   23  C   UNL     1     -21.955  -4.160  -7.294  1.00  0.00     0.002 C 
HETATM   24  C   UNL     1     -23.377  -4.282  -7.829  1.00  0.00     0.005 C 
ENDBRANCH  22  23
BRANCH  22  25
HETATM   25  C   UNL     1     -19.928  -5.197  -8.428  1.00  0.00     0.007 C 
BRANCH  25  26
HETATM   26  C   UNL     1     -20.147  -3.984  -9.337  1.00  0.00     0.000 C 
BRANCH  26  27
HETATM   27  C   UNL     1     -20.353  -4.377 -10.800  1.00  0.00    -0.005 C 
HETATM   28  C   UNL     1     -21.816  -4.222 -11.192  1.00  0.00     0.005 C 
ENDBRANCH  26  27
ENDBRANCH  25  26
ENDBRANCH  22  25
ENDBRANCH  21  22
ENDBRANCH  20  21
ENDBRANCH  18  20
ENDBRANCH   6  18
TORSDOF 16
BEGIN_RES ARG D 557
REMARK  4 active torsions:
REMARK  status: ('A' for Active; 'I' for Inactive)
REMARK    1  A    between atoms: CA   and  CB  
REMARK    2  A    between atoms: CB   and  CG  
REMARK    3  A    between atoms: CG   and  CD  
REMARK    4  A    between atoms: CD   and  NE  
REMARK       I    between atoms: NE   and  CZ  
REMARK       I    between atoms: CZ   and  NH1 
REMARK       I    between atoms: CZ   and  NH2 
ROOT
ATOM      1  CA  ARG D 557     -26.217   2.705 -17.014  1.00 35.49     0.159 C 
ENDROOT
BRANCH   1   2
ATOM      2  CB  ARG D 557     -26.789   1.319 -17.183  1.00 35.49     0.034 C 
BRANCH   2   3
ATOM      3  CG  ARG D 557     -28.229   1.227 -17.454  1.00 35.49     0.027 C 
BRANCH   3   4
ATOM      4  CD  ARG D 557     -28.922   0.313 -16.517  1.00 35.49     0.116 C 
BRANCH   4   5
ATOM      5  NE  ARG D 557     -29.319  -0.916 -17.151  1.00 35.49    -0.212 N 
ATOM      6  CZ  ARG D 557     -28.695  -2.068 -17.052  1.00 35.49     0.666 C 
ATOM      7  NH1 ARG D 557     -27.590  -2.217 -16.344  1.00 35.49    -0.235 N 
ATOM      8  NH2 ARG D 557     -29.209  -3.085 -17.679  1.00 35.49    -0.235 N 
ATOM      9  HH  ARG D 557     -27.235  -1.562 -15.921  1.00 35.49     0.174 HD
ATOM     10  HH  ARG D 557     -27.228  -2.993 -16.313  1.00 35.49     0.174 HD
ATOM     11  HH  ARG D 557     -29.927  -2.961 -18.122  1.00 35.49     0.174 HD
ATOM     12  HH  ARG D 557     -28.837  -3.846 -17.635  1.00 35.49     0.174 HD
ATOM     13  HE  ARG D 557     -29.980  -0.894 -17.686  1.00 35.49     0.178 HD
ENDBRANCH   4   5
ENDBRANCH   3   4
ENDBRANCH   2   3
ENDBRANCH   1   2
END_RES ARG D 557
BEGIN_RES GLU D 570
REMARK  3 active torsions:
REMARK  status: ('A' for Active; 'I' for Inactive)
REMARK    5  A    between atoms: CA   and  CB  
REMARK    6  A    between atoms: CB   and  CG  
REMARK    7  A    between atoms: CG   and  CD  
ROOT
ATOM     14  CA  GLU D 570     -18.033  -6.348 -13.375  1.00 32.92     0.160 C 
ENDROOT
BRANCH  14  15
ATOM     15  CB  GLU D 570     -19.500  -6.345 -13.794  1.00 32.92     0.043 C 
BRANCH  15  16
ATOM     16  CG  GLU D 570     -19.814  -5.928 -15.185  1.00 32.92     0.100 C 
BRANCH  16  17
ATOM     17  CD  GLU D 570     -21.246  -5.478 -15.357  1.00 32.92     0.185 C 
ATOM     18  OE1 GLU D 570     -21.601  -4.992 -16.448  1.00 32.92    -0.647 OA
ATOM     19  OE2 GLU D 570     -22.017  -5.599 -14.385  1.00 32.92    -0.647 OA
ENDBRANCH  16  17
ENDBRANCH  15  16
ENDBRANCH  14  15
END_RES GLU D 570
ENDMDL
MODEL 7
REMARK VINA RESULT:      -6.9      2.062      3.260
REMARK  16 active torsions:
REMARK  status: ('A' for Active; 'I' for Inactive)
REMARK    1  A    between atoms: C_2  and  C_3 
REMARK    2  A    between atoms: C_3  and  C_4 
REMARK    3  A    between atoms: C_4  and  C_5 
REMARK    4  A    between atoms: C_5  and  C_6 
REMARK    5  A    between atoms: C_5  and  C_8 
REMARK    6  A    between atoms: C_8  and  O_9 
REMARK    7  A    between atoms: O_9  and  C_10 
REMARK    8  A    between atoms: C_10  and  C_12 
REMARK    9  A    between atoms: C_17  and  C_18 
REMARK   10  A    between atoms: C_18  and  O_20 
REMARK   11  A    between atoms: O_20  and  C_21 
REMARK   12  A    between atoms: C_21  and  C_22 
REMARK   13  A    between atoms: C_22  and  C_23 
REMARK   14  A    between atoms: C_22  and  C_25 
REMARK   15  A    between atoms: C_25  and  C_26 
REMARK   16  A    between atoms: C_26  and  C_27 
ROOT
HETATM    1  C   UNL     1     -18.390  -9.361  -3.497  1.00  0.00     0.055 A 
HETATM    2  C   UNL     1     -17.047  -9.612  -3.137  1.00  0.00     0.018 A 
HETATM    3  C   UNL     1     -16.087  -9.919  -4.100  1.00  0.00     0.001 A 
HETATM    4  C   UNL     1     -16.457  -9.996  -5.434  1.00  0.00     0.001 A 
HETATM    5  C   UNL     1     -17.773  -9.708  -5.809  1.00  0.00     0.018 A 
HETATM    6  C   UNL     1     -18.742  -9.349  -4.849  1.00  0.00     0.055 A 
ENDROOT
BRANCH   1   7
HETATM    7  C   UNL     1     -19.355  -9.137  -2.391  1.00  0.00     0.294 C 
HETATM    8  O   UNL     1     -19.598  -8.076  -1.853  1.00  0.00    -0.259 OA
BRANCH   7   9
HETATM    9  O   UNL     1     -19.878 -10.340  -2.035  1.00  0.00    -0.317 OA
BRANCH   9  10
HETATM   10  C   UNL     1     -21.311 -10.414  -2.008  1.00  0.00     0.183 C 
BRANCH  10  11
HETATM   11  C   UNL     1     -21.887 -10.717  -0.616  1.00  0.00     0.010 C 
BRANCH  11  12
HETATM   12  C   UNL     1     -21.796  -9.471   0.294  1.00  0.00     0.007 C 
BRANCH  12  13
HETATM   13  C   UNL     1     -22.905  -8.428   0.112  1.00  0.00     0.000 C 
BRANCH  13  14
HETATM   14  C   UNL     1     -22.398  -7.001  -0.099  1.00  0.00    -0.005 C 
HETATM   15  C   UNL     1     -22.398  -6.643  -1.579  1.00  0.00     0.005 C 
ENDBRANCH  13  14
ENDBRANCH  12  13
ENDBRANCH  11  12
BRANCH  11  16
HETATM   16  C   UNL     1     -23.304 -11.317  -0.749  1.00  0.00     0.002 C 
HETATM   17  C   UNL     1     -23.410 -12.561  -1.620  1.00  0.00     0.005 C 
ENDBRANCH  11  16
ENDBRANCH  10  11
ENDBRANCH   9  10
ENDBRANCH   7   9
ENDBRANCH   1   7
BRANCH   6  18
HETATM   18  C   UNL     1     -20.064  -8.947  -5.402  1.00  0.00     0.294 C 
HETATM   19  O   UNL     1     -20.887  -9.759  -5.778  1.00  0.00    -0.259 OA
BRANCH  18  20
HETATM   20  O   UNL     1     -20.040  -7.623  -5.692  1.00  0.00    -0.317 OA
BRANCH  20  21
HETATM   21  C   UNL     1     -21.297  -6.927  -5.623  1.00  0.00     0.183 C 
BRANCH  21  22
HETATM   22  C   UNL     1     -21.252  -5.460  -6.101  1.00  0.00     0.010 C 
BRANCH  22  23
HETATM   23  C   UNL     1     -19.859  -4.807  -5.940  1.00  0.00     0.002 C 
HETATM   24  C   UNL     1     -19.095  -4.576  -7.239  1.00  0.00     0.005 C 
ENDBRANCH  22  23
BRANCH  22  25
HETATM   25  C   UNL     1     -21.741  -5.337  -7.568  1.00  0.00     0.007 C 
BRANCH  25  26
HETATM   26  C   UNL     1     -22.832  -4.279  -7.760  1.00  0.00     0.000 C 
BRANCH  26  27
HETATM   27  C   UNL     1     -22.866  -3.726  -9.184  1.00  0.00    -0.005 C 
HETATM   28  C   UNL     1     -21.525  -3.943  -9.872  1.00  0.00     0.005 C 
ENDBRANCH  26  27
ENDBRANCH  25  26
ENDBRANCH  22  25
ENDBRANCH  21  22
ENDBRANCH  20  21
ENDBRANCH  18  20
ENDBRANCH   6  18
TORSDOF 16
BEGIN_RES ARG D 557
REMARK  4 active torsions:
REMARK  status: ('A' for Active; 'I' for Inactive)
REMARK    1  A    between atoms: CA   and  CB  
REMARK    2  A    between atoms: CB   and  CG  
REMARK    3  A    between atoms: CG   and  CD  
REMARK    4  A    between atoms: CD   and  NE  
REMARK       I    between atoms: NE   and  CZ  
REMARK       I    between atoms: CZ   and  NH1 
REMARK       I    between atoms: CZ   and  NH2 
ROOT
ATOM      1  CA  ARG D 557     -26.217   2.705 -17.014  1.00 35.49     0.159 C 
ENDROOT
BRANCH   1   2
ATOM      2  CB  ARG D 557     -26.789   1.319 -17.183  1.00 35.49     0.034 C 
BRANCH   2   3
ATOM      3  CG  ARG D 557     -25.839   0.201 -17.130  1.00 35.49     0.027 C 
BRANCH   3   4
ATOM      4  CD  ARG D 557     -24.766   0.419 -16.133  1.00 35.49     0.116 C 
BRANCH   4   5
ATOM      5  NE  ARG D 557     -24.893  -0.458 -14.999  1.00 35.49    -0.212 N 
ATOM      6  CZ  ARG D 557     -24.064  -1.427 -14.681  1.00 35.49     0.666 C 
ATOM      7  NH1 ARG D 557     -22.997  -1.713 -15.404  1.00 35.49    -0.235 N 
ATOM      8  NH2 ARG D 557     -24.324  -2.110 -13.604  1.00 35.49    -0.235 N 
ATOM      9  HH  ARG D 557     -22.806  -1.276 -16.115  1.00 35.49     0.174 HD
ATOM     10  HH  ARG D 557     -22.491  -2.354 -15.146  1.00 35.49     0.174 HD
ATOM     11  HH  ARG D 557     -25.015  -1.898 -13.152  1.00 35.49     0.174 HD
ATOM     12  HH  ARG D 557     -23.809  -2.740 -13.364  1.00 35.49     0.174 HD
ATOM     13  HE  ARG D 557     -25.592  -0.392 -14.519  1.00 35.49     0.178 HD
ENDBRANCH   4   5
ENDBRANCH   3   4
ENDBRANCH   2   3
ENDBRANCH   1   2
END_RES ARG D 557
BEGIN_RES GLU D 570
REMARK  3 active torsions:
REMARK  status: ('A' for Active; 'I' for Inactive)
REMARK    5  A    between atoms: CA   and  CB  
REMARK    6  A    between atoms: CB   and  CG  
REMARK    7  A    between atoms: CG   and  CD  
ROOT
ATOM     14  CA  GLU D 570     -18.033  -6.348 -13.375  1.00 32.92     0.160 C 
ENDROOT
BRANCH  14  15
ATOM     15  CB  GLU D 570     -19.500  -6.345 -13.794  1.00 32.92     0.043 C 
BRANCH  15  16
ATOM     16  CG  GLU D 570     -20.444  -5.541 -12.976  1.00 32.92     0.100 C 
BRANCH  16  17
ATOM     17  CD  GLU D 570     -21.646  -5.066 -13.758  1.00 32.92     0.185 C 
ATOM     18  OE1 GLU D 570     -21.614  -5.112 -15.003  1.00 32.92    -0.647 OA
ATOM     19  OE2 GLU D 570     -22.624  -4.629 -13.120  1.00 32.92    -0.647 OA
ENDBRANCH  16  17
ENDBRANCH  15  16
ENDBRANCH  14  15
END_RES GLU D 570
ENDMDL
MODEL 8
REMARK VINA RESULT:      -6.8      2.526      4.037
REMARK  16 active torsions:
REMARK  status: ('A' for Active; 'I' for Inactive)
REMARK    1  A    between atoms: C_2  and  C_3 
REMARK    2  A    between atoms: C_3  and  C_4 
REMARK    3  A    between atoms: C_4  and  C_5 
REMARK    4  A    between atoms: C_5  and  C_6 
REMARK    5  A    between atoms: C_5  and  C_8 
REMARK    6  A    between atoms: C_8  and  O_9 
REMARK    7  A    between atoms: O_9  and  C_10 
REMARK    8  A    between atoms: C_10  and  C_12 
REMARK    9  A    between atoms: C_17  and  C_18 
REMARK   10  A    between atoms: C_18  and  O_20 
REMARK   11  A    between atoms: O_20  and  C_21 
REMARK   12  A    between atoms: C_21  and  C_22 
REMARK   13  A    between atoms: C_22  and  C_23 
REMARK   14  A    between atoms: C_22  and  C_25 
REMARK   15  A    between atoms: C_25  and  C_26 
REMARK   16  A    between atoms: C_26  and  C_27 
ROOT
HETATM    1  C   UNL     1     -21.217  -8.836  -2.118  1.00  0.00     0.055 A 
HETATM    2  C   UNL     1     -21.720  -9.105  -0.825  1.00  0.00     0.018 A 
HETATM    3  C   UNL     1     -22.347  -8.111  -0.074  1.00  0.00     0.001 A 
HETATM    4  C   UNL     1     -22.467  -6.833  -0.596  1.00  0.00     0.001 A 
HETATM    5  C   UNL     1     -22.013  -6.564  -1.891  1.00  0.00     0.018 A 
HETATM    6  C   UNL     1     -21.420  -7.573  -2.679  1.00  0.00     0.055 A 
ENDROOT
BRANCH   1   7
HETATM    7  C   UNL     1     -20.483  -9.933  -2.799  1.00  0.00     0.294 C 
HETATM    8  O   UNL     1     -20.894 -10.612  -3.718  1.00  0.00    -0.259 OA
BRANCH   7   9
HETATM    9  O   UNL     1     -19.287 -10.095  -2.172  1.00  0.00    -0.317 OA
BRANCH   9  10
HETATM   10  C   UNL     1     -18.179  -9.393  -2.753  1.00  0.00     0.183 C 
BRANCH  10  11
HETATM   11  C   UNL     1     -17.149 -10.315  -3.424  1.00  0.00     0.010 C 
BRANCH  11  12
HETATM   12  C   UNL     1     -16.920  -9.897  -4.894  1.00  0.00     0.007 C 
BRANCH  12  13
HETATM   13  C   UNL     1     -15.621 -10.398  -5.537  1.00  0.00     0.000 C 
BRANCH  13  14
HETATM   14  C   UNL     1     -15.668 -11.855  -5.997  1.00  0.00    -0.005 C 
HETATM   15  C   UNL     1     -16.990 -12.160  -6.686  1.00  0.00     0.005 C 
ENDBRANCH  13  14
ENDBRANCH  12  13
ENDBRANCH  11  12
BRANCH  11  16
HETATM   16  C   UNL     1     -15.866 -10.387  -2.567  1.00  0.00     0.002 C 
HETATM   17  C   UNL     1     -15.908 -11.372  -1.406  1.00  0.00     0.005 C 
ENDBRANCH  11  16
ENDBRANCH  10  11
ENDBRANCH   9  10
ENDBRANCH   7   9
ENDBRANCH   1   7
BRANCH   6  18
HETATM   18  C   UNL     1     -21.101  -7.179  -4.078  1.00  0.00     0.294 C 
HETATM   19  O   UNL     1     -20.146  -7.630  -4.681  1.00  0.00    -0.259 OA
BRANCH  18  20
HETATM   20  O   UNL     1     -21.814  -6.073  -4.402  1.00  0.00    -0.317 OA
BRANCH  20  21
HETATM   21  C   UNL     1     -22.221  -5.948  -5.776  1.00  0.00     0.183 C 
BRANCH  21  22
HETATM   22  C   UNL     1     -21.586  -4.763  -6.535  1.00  0.00     0.010 C 
BRANCH  22  23
HETATM   23  C   UNL     1     -20.107  -4.517  -6.157  1.00  0.00     0.002 C 
HETATM   24  C   UNL     1     -19.108  -4.674  -7.297  1.00  0.00     0.005 C 
ENDBRANCH  22  23
BRANCH  22  25
HETATM   25  C   UNL     1     -21.728  -4.946  -8.070  1.00  0.00     0.007 C 
BRANCH  25  26
HETATM   26  C   UNL     1     -22.468  -3.793  -8.755  1.00  0.00     0.000 C 
BRANCH  26  27
HETATM   27  C   UNL     1     -22.599  -3.996 -10.264  1.00  0.00    -0.005 C 
HETATM   28  C   UNL     1     -23.738  -4.958 -10.574  1.00  0.00     0.005 C 
ENDBRANCH  26  27
ENDBRANCH  25  26
ENDBRANCH  22  25
ENDBRANCH  21  22
ENDBRANCH  20  21
ENDBRANCH  18  20
ENDBRANCH   6  18
TORSDOF 16
BEGIN_RES ARG D 557
REMARK  4 active torsions:
REMARK  status: ('A' for Active; 'I' for Inactive)
REMARK    1  A    between atoms: CA   and  CB  
REMARK    2  A    between atoms: CB   and  CG  
REMARK    3  A    between atoms: CG   and  CD  
REMARK    4  A    between atoms: CD   and  NE  
REMARK       I    between atoms: NE   and  CZ  
REMARK       I    between atoms: CZ   and  NH1 
REMARK       I    between atoms: CZ   and  NH2 
ROOT
ATOM      1  CA  ARG D 557     -26.217   2.705 -17.014  1.00 35.49     0.159 C 
ENDROOT
BRANCH   1   2
ATOM      2  CB  ARG D 557     -26.789   1.319 -17.183  1.00 35.49     0.034 C 
BRANCH   2   3
ATOM      3  CG  ARG D 557     -25.836   0.203 -17.153  1.00 35.49     0.027 C 
BRANCH   3   4
ATOM      4  CD  ARG D 557     -24.748   0.416 -16.171  1.00 35.49     0.116 C 
BRANCH   4   5
ATOM      5  NE  ARG D 557     -24.886  -0.431 -15.016  1.00 35.49    -0.212 N 
ATOM      6  CZ  ARG D 557     -24.068  -1.400 -14.672  1.00 35.49     0.666 C 
ATOM      7  NH1 ARG D 557     -23.004  -1.717 -15.386  1.00 35.49    -0.235 N 
ATOM      8  NH2 ARG D 557     -24.337  -2.052 -13.578  1.00 35.49    -0.235 N 
ATOM      9  HH  ARG D 557     -22.807  -1.300 -16.108  1.00 35.49     0.174 HD
ATOM     10  HH  ARG D 557     -22.505  -2.357 -15.111  1.00 35.49     0.174 HD
ATOM     11  HH  ARG D 557     -25.027  -1.821 -13.133  1.00 35.49     0.174 HD
ATOM     12  HH  ARG D 557     -23.830  -2.682 -13.322  1.00 35.49     0.174 HD
ATOM     13  HE  ARG D 557     -25.584  -0.344 -14.538  1.00 35.49     0.178 HD
ENDBRANCH   4   5
ENDBRANCH   3   4
ENDBRANCH   2   3
ENDBRANCH   1   2
END_RES ARG D 557
BEGIN_RES GLU D 570
REMARK  3 active torsions:
REMARK  status: ('A' for Active; 'I' for Inactive)
REMARK    5  A    between atoms: CA   and  CB  
REMARK    6  A    between atoms: CB   and  CG  
REMARK    7  A    between atoms: CG   and  CD  
ROOT
ATOM     14  CA  GLU D 570     -18.033  -6.348 -13.375  1.00 32.92     0.160 C 
ENDROOT
BRANCH  14  15
ATOM     15  CB  GLU D 570     -19.500  -6.345 -13.794  1.00 32.92     0.043 C 
BRANCH  15  16
ATOM     16  CG  GLU D 570     -20.434  -5.496 -13.011  1.00 32.92     0.100 C 
BRANCH  16  17
ATOM     17  CD  GLU D 570     -21.742  -5.244 -13.724  1.00 32.92     0.185 C 
ATOM     18  OE1 GLU D 570     -22.299  -6.189 -14.316  1.00 32.92    -0.647 OA
ATOM     19  OE2 GLU D 570     -22.205  -4.087 -13.705  1.00 32.92    -0.647 OA
ENDBRANCH  16  17
ENDBRANCH  15  16
ENDBRANCH  14  15
END_RES GLU D 570
ENDMDL
MODEL 9
REMARK VINA RESULT:      -6.8      1.933      3.459
REMARK  16 active torsions:
REMARK  status: ('A' for Active; 'I' for Inactive)
REMARK    1  A    between atoms: C_2  and  C_3 
REMARK    2  A    between atoms: C_3  and  C_4 
REMARK    3  A    between atoms: C_4  and  C_5 
REMARK    4  A    between atoms: C_5  and  C_6 
REMARK    5  A    between atoms: C_5  and  C_8 
REMARK    6  A    between atoms: C_8  and  O_9 
REMARK    7  A    between atoms: O_9  and  C_10 
REMARK    8  A    between atoms: C_10  and  C_12 
REMARK    9  A    between atoms: C_17  and  C_18 
REMARK   10  A    between atoms: C_18  and  O_20 
REMARK   11  A    between atoms: O_20  and  C_21 
REMARK   12  A    between atoms: C_21  and  C_22 
REMARK   13  A    between atoms: C_22  and  C_23 
REMARK   14  A    between atoms: C_22  and  C_25 
REMARK   15  A    between atoms: C_25  and  C_26 
REMARK   16  A    between atoms: C_26  and  C_27 
ROOT
HETATM    1  C   UNL     1     -20.490  -8.207  -2.990  1.00  0.00     0.055 A 
HETATM    2  C   UNL     1     -20.875  -8.151  -1.631  1.00  0.00     0.018 A 
HETATM    3  C   UNL     1     -21.745  -7.164  -1.168  1.00  0.00     0.001 A 
HETATM    4  C   UNL     1     -22.230  -6.211  -2.050  1.00  0.00     0.001 A 
HETATM    5  C   UNL     1     -21.892  -6.281  -3.405  1.00  0.00     0.018 A 
HETATM    6  C   UNL     1     -21.052  -7.303  -3.895  1.00  0.00     0.055 A 
ENDROOT
BRANCH   1   7
HETATM    7  C   UNL     1     -19.487  -9.236  -3.365  1.00  0.00     0.294 C 
HETATM    8  O   UNL     1     -18.410  -9.033  -3.888  1.00  0.00    -0.259 OA
BRANCH   7   9
HETATM    9  O   UNL     1     -20.009 -10.459  -3.082  1.00  0.00    -0.317 OA
BRANCH   9  10
HETATM   10  C   UNL     1     -20.635 -11.138  -4.180  1.00  0.00     0.183 C 
BRANCH  10  11
HETATM   11  C   UNL     1     -21.805 -12.042  -3.760  1.00  0.00     0.010 C 
BRANCH  11  12
HETATM   12  C   UNL     1     -22.606 -11.396  -2.607  1.00  0.00     0.007 C 
BRANCH  12  13
HETATM   13  C   UNL     1     -23.335 -12.368  -1.672  1.00  0.00     0.000 C 
BRANCH  13  14
HETATM   14  C   UNL     1     -23.862 -11.730  -0.386  1.00  0.00    -0.005 C 
HETATM   15  C   UNL     1     -23.508 -10.250  -0.335  1.00  0.00     0.005 C 
ENDBRANCH  13  14
ENDBRANCH  12  13
ENDBRANCH  11  12
BRANCH  11  16
HETATM   16  C   UNL     1     -22.650 -12.424  -4.995  1.00  0.00     0.002 C 
HETATM   17  C   UNL     1     -21.981 -12.188  -6.344  1.00  0.00     0.005 C 
ENDBRANCH  11  16
ENDBRANCH  10  11
ENDBRANCH   9  10
ENDBRANCH   7   9
ENDBRANCH   1   7
BRANCH   6  18
HETATM   18  C   UNL     1     -20.880  -7.329  -5.373  1.00  0.00     0.294 C 
HETATM   19  O   UNL     1     -21.424  -8.156  -6.078  1.00  0.00    -0.259 OA
BRANCH  18  20
HETATM   20  O   UNL     1     -19.833  -6.537  -5.712  1.00  0.00    -0.317 OA
BRANCH  20  21
HETATM   21  C   UNL     1     -20.133  -5.159  -5.994  1.00  0.00     0.183 C 
BRANCH  21  22
HETATM   22  C   UNL     1     -20.801  -4.906  -7.362  1.00  0.00     0.010 C 
BRANCH  22  23
HETATM   23  C   UNL     1     -22.009  -3.944  -7.284  1.00  0.00     0.002 C 
HETATM   24  C   UNL     1     -23.212  -4.340  -8.132  1.00  0.00     0.005 C 
ENDBRANCH  22  23
BRANCH  22  25
HETATM   25  C   UNL     1     -19.767  -4.393  -8.399  1.00  0.00     0.007 C 
BRANCH  25  26
HETATM   26  C   UNL     1     -20.050  -4.870  -9.828  1.00  0.00     0.000 C 
BRANCH  26  27
HETATM   27  C   UNL     1     -20.452  -3.726 -10.758  1.00  0.00    -0.005 C 
HETATM   28  C   UNL     1     -21.673  -4.113 -11.581  1.00  0.00     0.005 C 
ENDBRANCH  26  27
ENDBRANCH  25  26
ENDBRANCH  22  25
ENDBRANCH  21  22
ENDBRANCH  20  21
ENDBRANCH  18  20
ENDBRANCH   6  18
TORSDOF 16
BEGIN_RES ARG D 557
REMARK  4 active torsions:
REMARK  status: ('A' for Active; 'I' for Inactive)
REMARK    1  A    between atoms: CA   and  CB  
REMARK    2  A    between atoms: CB   and  CG  
REMARK    3  A    between atoms: CG   and  CD  
REMARK    4  A    between atoms: CD   and  NE  
REMARK       I    between atoms: NE   and  CZ  
REMARK       I    between atoms: CZ   and  NH1 
REMARK       I    between atoms: CZ   and  NH2 
ROOT
ATOM      1  CA  ARG D 557     -26.217   2.705 -17.014  1.00 35.49     0.159 C 
ENDROOT
BRANCH   1   2
ATOM      2  CB  ARG D 557     -26.789   1.319 -17.183  1.00 35.49     0.034 C 
BRANCH   2   3
ATOM      3  CG  ARG D 557     -28.232   1.226 -17.437  1.00 35.49     0.027 C 
BRANCH   3   4
ATOM      4  CD  ARG D 557     -28.915   0.317 -16.488  1.00 35.49     0.116 C 
BRANCH   4   5
ATOM      5  NE  ARG D 557     -29.319  -0.914 -17.112  1.00 35.49    -0.212 N 
ATOM      6  CZ  ARG D 557     -28.685  -2.063 -17.028  1.00 35.49     0.666 C 
ATOM      7  NH1 ARG D 557     -27.563  -2.205 -16.348  1.00 35.49    -0.235 N 
ATOM      8  NH2 ARG D 557     -29.209  -3.084 -17.642  1.00 35.49    -0.235 N 
ATOM      9  HH  ARG D 557     -27.202  -1.547 -15.934  1.00 35.49     0.174 HD
ATOM     10  HH  ARG D 557     -27.195  -2.978 -16.326  1.00 35.49     0.174 HD
ATOM     11  HH  ARG D 557     -29.938  -2.964 -18.067  1.00 35.49     0.174 HD
ATOM     12  HH  ARG D 557     -28.831  -3.842 -17.608  1.00 35.49     0.174 HD
ATOM     13  HE  ARG D 557     -29.994  -0.897 -17.630  1.00 35.49     0.178 HD
ENDBRANCH   4   5
ENDBRANCH   3   4
ENDBRANCH   2   3
ENDBRANCH   1   2
END_RES ARG D 557
BEGIN_RES GLU D 570
REMARK  3 active torsions:
REMARK  status: ('A' for Active; 'I' for Inactive)
REMARK    5  A    between atoms: CA   and  CB  
REMARK    6  A    between atoms: CB   and  CG  
REMARK    7  A    between atoms: CG   and  CD  
ROOT
ATOM     14  CA  GLU D 570     -18.033  -6.348 -13.375  1.00 32.92     0.160 C 
ENDROOT
BRANCH  14  15
ATOM     15  CB  GLU D 570     -19.500  -6.345 -13.794  1.00 32.92     0.043 C 
BRANCH  15  16
ATOM     16  CG  GLU D 570     -20.100  -7.644 -14.194  1.00 32.92     0.100 C 
BRANCH  16  17
ATOM     17  CD  GLU D 570     -21.023  -7.525 -15.384  1.00 32.92     0.185 C 
ATOM     18  OE1 GLU D 570     -20.866  -8.295 -16.351  1.00 32.92    -0.647 OA
ATOM     19  OE2 GLU D 570     -21.903  -6.641 -15.356  1.00 32.92    -0.647 OA
ENDBRANCH  16  17
ENDBRANCH  15  16
ENDBRANCH  14  15
END_RES GLU D 570
ENDMDL
