MODEL 1
REMARK VINA RESULT:      -6.0      0.000      0.000
REMARK  4 active torsions:
REMARK  status: ('A' for Active; 'I' for Inactive)
REMARK    1  A    between atoms: C_3  and  C_4 
REMARK    2  A    between atoms: C_4  and  C_5 
REMARK    3  A    between atoms: C_5  and  C_6 
REMARK    4  A    between atoms: C_7  and  C_8 
ROOT
HETATM    1  C   UNL     1     -22.114  -4.265  -7.654  1.00  0.00     0.037 C 
ENDROOT
BRANCH   1   2
HETATM    2  C   UNL     1     -20.885  -4.926  -7.013  1.00  0.00     0.031 C 
BRANCH   2   3
HETATM    3  C   UNL     1     -20.920  -5.039  -5.508  1.00  0.00    -0.024 C 
HETATM    4  C   UNL     1     -21.211  -6.180  -4.849  1.00  0.00    -0.091 C 
HETATM    5  C   UNL     1     -21.536  -7.483  -5.529  1.00  0.00     0.042 C 
HETATM    6  C   UNL     1     -21.240  -6.230  -3.343  1.00  0.00     0.042 C 
ENDBRANCH   2   3
ENDBRANCH   1   2
BRANCH   1   7
HETATM    7  C   UNL     1     -21.891  -4.037  -9.140  1.00  0.00    -0.081 C 
HETATM    8  C   UNL     1     -22.833  -3.733 -10.055  1.00  0.00     0.043 C 
HETATM    9  C   UNL     1     -20.464  -4.154  -9.615  1.00  0.00     0.043 C 
BRANCH   8  10
HETATM   10  C   UNL     1     -24.277  -3.536  -9.807  1.00  0.00     0.259 C 
HETATM   11  O   UNL     1     -25.031  -3.186 -10.710  1.00  0.00    -0.302 OA
ENDBRANCH   8  10
ENDBRANCH   1   7
TORSDOF 4
BEGIN_RES ARG D 557
REMARK  4 active torsions:
REMARK  status: ('A' for Active; 'I' for Inactive)
REMARK    1  A    between atoms: CA   and  CB  
REMARK    2  A    between atoms: CB   and  CG  
REMARK    3  A    between atoms: CG   and  CD  
REMARK    4  A    between atoms: CD   and  NE  
REMARK       I    between atoms: NE   and  CZ  
REMARK       I    between atoms: CZ   and  NH1 
REMARK       I    between atoms: CZ   and  NH2 
ROOT
ATOM      1  CA  ARG D 557     -26.217   2.705 -17.014  1.00 35.49     0.159 C 
ENDROOT
BRANCH   1   2
ATOM      2  CB  ARG D 557     -26.789   1.319 -17.183  1.00 35.49     0.034 C 
BRANCH   2   3
ATOM      3  CG  ARG D 557     -25.837   0.202 -17.146  1.00 35.49     0.027 C 
BRANCH   3   4
ATOM      4  CD  ARG D 557     -24.762   0.411 -16.149  1.00 35.49     0.116 C 
BRANCH   4   5
ATOM      5  NE  ARG D 557     -24.916  -0.440 -14.999  1.00 35.49    -0.212 N 
ATOM      6  CZ  ARG D 557     -24.106  -1.415 -14.650  1.00 35.49     0.666 C 
ATOM      7  NH1 ARG D 557     -23.037  -1.735 -15.355  1.00 35.49    -0.235 N 
ATOM      8  NH2 ARG D 557     -24.390  -2.071 -13.562  1.00 35.49    -0.235 N 
ATOM      9  HH  ARG D 557     -22.830  -1.315 -16.073  1.00 35.49     0.174 HD
ATOM     10  HH  ARG D 557     -22.544  -2.378 -15.078  1.00 35.49     0.174 HD
ATOM     11  HH  ARG D 557     -25.083  -1.838 -13.124  1.00 35.49     0.174 HD
ATOM     12  HH  ARG D 557     -23.889  -2.704 -13.303  1.00 35.49     0.174 HD
ATOM     13  HE  ARG D 557     -25.618  -0.352 -14.528  1.00 35.49     0.178 HD
ENDBRANCH   4   5
ENDBRANCH   3   4
ENDBRANCH   2   3
ENDBRANCH   1   2
END_RES ARG D 557
BEGIN_RES GLU D 570
REMARK  3 active torsions:
REMARK  status: ('A' for Active; 'I' for Inactive)
REMARK    5  A    between atoms: CA   and  CB  
REMARK    6  A    between atoms: CB   and  CG  
REMARK    7  A    between atoms: CG   and  CD  
ROOT
ATOM     14  CA  GLU D 570     -18.033  -6.348 -13.375  1.00 32.92     0.160 C 
ENDROOT
BRANCH  14  15
ATOM     15  CB  GLU D 570     -19.500  -6.345 -13.794  1.00 32.92     0.043 C 
BRANCH  15  16
ATOM     16  CG  GLU D 570     -20.441  -5.528 -12.985  1.00 32.92     0.100 C 
BRANCH  16  17
ATOM     17  CD  GLU D 570     -21.741  -5.245 -13.701  1.00 32.92     0.185 C 
ATOM     18  OE1 GLU D 570     -22.296  -4.142 -13.535  1.00 32.92    -0.647 OA
ATOM     19  OE2 GLU D 570     -22.218  -6.142 -14.424  1.00 32.92    -0.647 OA
ENDBRANCH  16  17
ENDBRANCH  15  16
ENDBRANCH  14  15
END_RES GLU D 570
ENDMDL
MODEL 2
REMARK VINA RESULT:      -5.9      2.729      3.787
REMARK  4 active torsions:
REMARK  status: ('A' for Active; 'I' for Inactive)
REMARK    1  A    between atoms: C_3  and  C_4 
REMARK    2  A    between atoms: C_4  and  C_5 
REMARK    3  A    between atoms: C_5  and  C_6 
REMARK    4  A    between atoms: C_7  and  C_8 
ROOT
HETATM    1  C   UNL     1     -21.907  -2.999 -11.488  1.00  0.00     0.037 C 
ENDROOT
BRANCH   1   2
HETATM    2  C   UNL     1     -21.423  -4.382 -11.027  1.00  0.00     0.031 C 
BRANCH   2   3
HETATM    3  C   UNL     1     -20.286  -4.373 -10.035  1.00  0.00    -0.024 C 
HETATM    4  C   UNL     1     -20.459  -4.366  -8.696  1.00  0.00    -0.091 C 
HETATM    5  C   UNL     1     -21.806  -4.367  -8.024  1.00  0.00     0.042 C 
HETATM    6  C   UNL     1     -19.284  -4.348  -7.753  1.00  0.00     0.042 C 
ENDBRANCH   2   3
ENDBRANCH   1   2
BRANCH   1   7
HETATM    7  C   UNL     1     -23.409  -3.000 -11.714  1.00  0.00    -0.081 C 
HETATM    8  C   UNL     1     -24.053  -2.613 -12.833  1.00  0.00     0.043 C 
HETATM    9  C   UNL     1     -24.246  -3.503 -10.564  1.00  0.00     0.043 C 
BRANCH   8  10
HETATM   10  C   UNL     1     -23.435  -2.124 -14.085  1.00  0.00     0.259 C 
HETATM   11  O   UNL     1     -23.559  -2.746 -15.135  1.00  0.00    -0.302 OA
ENDBRANCH   8  10
ENDBRANCH   1   7
TORSDOF 4
BEGIN_RES ARG D 557
REMARK  4 active torsions:
REMARK  status: ('A' for Active; 'I' for Inactive)
REMARK    1  A    between atoms: CA   and  CB  
REMARK    2  A    between atoms: CB   and  CG  
REMARK    3  A    between atoms: CG   and  CD  
REMARK    4  A    between atoms: CD   and  NE  
REMARK       I    between atoms: NE   and  CZ  
REMARK       I    between atoms: CZ   and  NH1 
REMARK       I    between atoms: CZ   and  NH2 
ROOT
ATOM      1  CA  ARG D 557     -26.217   2.705 -17.014  1.00 35.49     0.159 C 
ENDROOT
BRANCH   1   2
ATOM      2  CB  ARG D 557     -26.789   1.319 -17.183  1.00 35.49     0.034 C 
BRANCH   2   3
ATOM      3  CG  ARG D 557     -28.236   1.173 -16.984  1.00 35.49     0.027 C 
BRANCH   3   4
ATOM      4  CD  ARG D 557     -28.646  -0.244 -16.847  1.00 35.49     0.116 C 
BRANCH   4   5
ATOM      5  NE  ARG D 557     -27.672  -1.024 -16.131  1.00 35.49    -0.212 N 
ATOM      6  CZ  ARG D 557     -27.533  -2.329 -16.198  1.00 35.49     0.666 C 
ATOM      7  NH1 ARG D 557     -28.312  -3.087 -16.946  1.00 35.49    -0.235 N 
ATOM      8  NH2 ARG D 557     -26.579  -2.868 -15.495  1.00 35.49    -0.235 N 
ATOM      9  HH  ARG D 557     -28.945  -2.754 -17.418  1.00 35.49     0.174 HD
ATOM     10  HH  ARG D 557     -28.173  -3.933 -16.952  1.00 35.49     0.174 HD
ATOM     11  HH  ARG D 557     -26.087  -2.353 -15.027  1.00 35.49     0.174 HD
ATOM     12  HH  ARG D 557     -26.457  -3.707 -15.515  1.00 35.49     0.174 HD
ATOM     13  HE  ARG D 557     -27.174  -0.623 -15.569  1.00 35.49     0.178 HD
ENDBRANCH   4   5
ENDBRANCH   3   4
ENDBRANCH   2   3
ENDBRANCH   1   2
END_RES ARG D 557
BEGIN_RES GLU D 570
REMARK  3 active torsions:
REMARK  status: ('A' for Active; 'I' for Inactive)
REMARK    5  A    between atoms: CA   and  CB  
REMARK    6  A    between atoms: CB   and  CG  
REMARK    7  A    between atoms: CG   and  CD  
ROOT
ATOM     14  CA  GLU D 570     -18.033  -6.348 -13.375  1.00 32.92     0.160 C 
ENDROOT
BRANCH  14  15
ATOM     15  CB  GLU D 570     -19.500  -6.345 -13.794  1.00 32.92     0.043 C 
BRANCH  15  16
ATOM     16  CG  GLU D 570     -19.806  -6.032 -15.214  1.00 32.92     0.100 C 
BRANCH  16  17
ATOM     17  CD  GLU D 570     -21.190  -5.458 -15.406  1.00 32.92     0.185 C 
ATOM     18  OE1 GLU D 570     -22.004  -5.513 -14.464  1.00 32.92    -0.647 OA
ATOM     19  OE2 GLU D 570     -21.469  -4.963 -16.516  1.00 32.92    -0.647 OA
ENDBRANCH  16  17
ENDBRANCH  15  16
ENDBRANCH  14  15
END_RES GLU D 570
ENDMDL
MODEL 3
REMARK VINA RESULT:      -5.7      2.815      3.917
REMARK  4 active torsions:
REMARK  status: ('A' for Active; 'I' for Inactive)
REMARK    1  A    between atoms: C_3  and  C_4 
REMARK    2  A    between atoms: C_4  and  C_5 
REMARK    3  A    between atoms: C_5  and  C_6 
REMARK    4  A    between atoms: C_7  and  C_8 
ROOT
HETATM    1  C   UNL     1     -21.696  -2.948 -11.499  1.00  0.00     0.037 C 
ENDROOT
BRANCH   1   2
HETATM    2  C   UNL     1     -21.115  -4.332 -11.173  1.00  0.00     0.031 C 
BRANCH   2   3
HETATM    3  C   UNL     1     -20.127  -4.368 -10.032  1.00  0.00    -0.024 C 
HETATM    4  C   UNL     1     -20.479  -4.542  -8.741  1.00  0.00    -0.091 C 
HETATM    5  C   UNL     1     -21.899  -4.724  -8.275  1.00  0.00     0.042 C 
HETATM    6  C   UNL     1     -19.448  -4.559  -7.642  1.00  0.00     0.042 C 
ENDBRANCH   2   3
ENDBRANCH   1   2
BRANCH   1   7
HETATM    7  C   UNL     1     -23.009  -3.078 -12.254  1.00  0.00    -0.081 C 
HETATM    8  C   UNL     1     -24.231  -3.254 -11.715  1.00  0.00     0.043 C 
HETATM    9  C   UNL     1     -22.913  -2.983 -13.757  1.00  0.00     0.043 C 
BRANCH   8  10
HETATM   10  C   UNL     1     -24.560  -3.338 -10.276  1.00  0.00     0.259 C 
HETATM   11  O   UNL     1     -25.697  -3.114  -9.874  1.00  0.00    -0.302 OA
ENDBRANCH   8  10
ENDBRANCH   1   7
TORSDOF 4
BEGIN_RES ARG D 557
REMARK  4 active torsions:
REMARK  status: ('A' for Active; 'I' for Inactive)
REMARK    1  A    between atoms: CA   and  CB  
REMARK    2  A    between atoms: CB   and  CG  
REMARK    3  A    between atoms: CG   and  CD  
REMARK    4  A    between atoms: CD   and  NE  
REMARK       I    between atoms: NE   and  CZ  
REMARK       I    between atoms: CZ   and  NH1 
REMARK       I    between atoms: CZ   and  NH2 
ROOT
ATOM      1  CA  ARG D 557     -26.217   2.705 -17.014  1.00 35.49     0.159 C 
ENDROOT
BRANCH   1   2
ATOM      2  CB  ARG D 557     -26.789   1.319 -17.183  1.00 35.49     0.034 C 
BRANCH   2   3
ATOM      3  CG  ARG D 557     -28.228   1.227 -17.457  1.00 35.49     0.027 C 
BRANCH   3   4
ATOM      4  CD  ARG D 557     -28.924   0.315 -16.521  1.00 35.49     0.116 C 
BRANCH   4   5
ATOM      5  NE  ARG D 557     -29.309  -0.920 -17.152  1.00 35.49    -0.212 N 
ATOM      6  CZ  ARG D 557     -28.680  -2.069 -17.040  1.00 35.49     0.666 C 
ATOM      7  NH1 ARG D 557     -27.582  -2.209 -16.321  1.00 35.49    -0.235 N 
ATOM      8  NH2 ARG D 557     -29.183  -3.092 -17.667  1.00 35.49    -0.235 N 
ATOM      9  HH  ARG D 557     -27.234  -1.549 -15.898  1.00 35.49     0.174 HD
ATOM     10  HH  ARG D 557     -27.216  -2.983 -16.282  1.00 35.49     0.174 HD
ATOM     11  HH  ARG D 557     -29.897  -2.974 -18.118  1.00 35.49     0.174 HD
ATOM     12  HH  ARG D 557     -28.808  -3.851 -17.615  1.00 35.49     0.174 HD
ATOM     13  HE  ARG D 557     -29.965  -0.905 -17.693  1.00 35.49     0.178 HD
ENDBRANCH   4   5
ENDBRANCH   3   4
ENDBRANCH   2   3
ENDBRANCH   1   2
END_RES ARG D 557
BEGIN_RES GLU D 570
REMARK  3 active torsions:
REMARK  status: ('A' for Active; 'I' for Inactive)
REMARK    5  A    between atoms: CA   and  CB  
REMARK    6  A    between atoms: CB   and  CG  
REMARK    7  A    between atoms: CG   and  CD  
ROOT
ATOM     14  CA  GLU D 570     -18.033  -6.348 -13.375  1.00 32.92     0.160 C 
ENDROOT
BRANCH  14  15
ATOM     15  CB  GLU D 570     -19.500  -6.345 -13.794  1.00 32.92     0.043 C 
BRANCH  15  16
ATOM     16  CG  GLU D 570     -19.796  -6.320 -15.250  1.00 32.92     0.100 C 
BRANCH  16  17
ATOM     17  CD  GLU D 570     -21.194  -6.793 -15.575  1.00 32.92     0.185 C 
ATOM     18  OE1 GLU D 570     -22.110  -6.579 -14.759  1.00 32.92    -0.647 OA
ATOM     19  OE2 GLU D 570     -21.371  -7.398 -16.650  1.00 32.92    -0.647 OA
ENDBRANCH  16  17
ENDBRANCH  15  16
ENDBRANCH  14  15
END_RES GLU D 570
ENDMDL
MODEL 4
REMARK VINA RESULT:      -5.7      7.850      9.974
REMARK  4 active torsions:
REMARK  status: ('A' for Active; 'I' for Inactive)
REMARK    1  A    between atoms: C_3  and  C_4 
REMARK    2  A    between atoms: C_4  and  C_5 
REMARK    3  A    between atoms: C_5  and  C_6 
REMARK    4  A    between atoms: C_7  and  C_8 
ROOT
HETATM    1  C   UNL     1     -33.846  -1.939 -10.709  1.00  0.00     0.037 C 
ENDROOT
BRANCH   1   2
HETATM    2  C   UNL     1     -33.271  -3.257 -11.249  1.00  0.00     0.031 C 
BRANCH   2   3
HETATM    3  C   UNL     1     -33.656  -4.496 -10.479  1.00  0.00    -0.024 C 
HETATM    4  C   UNL     1     -34.374  -5.512 -11.004  1.00  0.00    -0.091 C 
HETATM    5  C   UNL     1     -34.879  -5.538 -12.422  1.00  0.00     0.042 C 
HETATM    6  C   UNL     1     -34.737  -6.722 -10.183  1.00  0.00     0.042 C 
ENDBRANCH   2   3
ENDBRANCH   1   2
BRANCH   1   7
HETATM    7  C   UNL     1     -35.091  -1.537 -11.482  1.00  0.00    -0.081 C 
HETATM    8  C   UNL     1     -36.229  -1.033 -10.965  1.00  0.00     0.043 C 
HETATM    9  C   UNL     1     -35.020  -1.712 -12.979  1.00  0.00     0.043 C 
BRANCH   8  10
HETATM   10  C   UNL     1     -36.503  -0.746  -9.540  1.00  0.00     0.259 C 
HETATM   11  O   UNL     1     -36.377   0.388  -9.089  1.00  0.00    -0.302 OA
ENDBRANCH   8  10
ENDBRANCH   1   7
TORSDOF 4
BEGIN_RES ARG D 557
REMARK  4 active torsions:
REMARK  status: ('A' for Active; 'I' for Inactive)
REMARK    1  A    between atoms: CA   and  CB  
REMARK    2  A    between atoms: CB   and  CG  
REMARK    3  A    between atoms: CG   and  CD  
REMARK    4  A    between atoms: CD   and  NE  
REMARK       I    between atoms: NE   and  CZ  
REMARK       I    between atoms: CZ   and  NH1 
REMARK       I    between atoms: CZ   and  NH2 
ROOT
ATOM      1  CA  ARG D 557     -26.217   2.705 -17.014  1.00 35.49     0.159 C 
ENDROOT
BRANCH   1   2
ATOM      2  CB  ARG D 557     -26.789   1.319 -17.183  1.00 35.49     0.034 C 
BRANCH   2   3
ATOM      3  CG  ARG D 557     -25.836   0.203 -17.154  1.00 35.49     0.027 C 
BRANCH   3   4
ATOM      4  CD  ARG D 557     -24.754   0.410 -16.164  1.00 35.49     0.116 C 
BRANCH   4   5
ATOM      5  NE  ARG D 557     -24.893  -0.452 -15.021  1.00 35.49    -0.212 N 
ATOM      6  CZ  ARG D 557     -24.066  -1.415 -14.680  1.00 35.49     0.666 C 
ATOM      7  NH1 ARG D 557     -22.990  -1.710 -15.387  1.00 35.49    -0.235 N 
ATOM      8  NH2 ARG D 557     -24.337  -2.084 -13.597  1.00 35.49    -0.235 N 
ATOM      9  HH  ARG D 557     -22.792  -1.281 -16.102  1.00 35.49     0.174 HD
ATOM     10  HH  ARG D 557     -22.486  -2.347 -15.115  1.00 35.49     0.174 HD
ATOM     11  HH  ARG D 557     -25.034  -1.867 -13.157  1.00 35.49     0.174 HD
ATOM     12  HH  ARG D 557     -23.824  -2.711 -13.343  1.00 35.49     0.174 HD
ATOM     13  HE  ARG D 557     -25.597  -0.380 -14.549  1.00 35.49     0.178 HD
ENDBRANCH   4   5
ENDBRANCH   3   4
ENDBRANCH   2   3
ENDBRANCH   1   2
END_RES ARG D 557
BEGIN_RES GLU D 570
REMARK  3 active torsions:
REMARK  status: ('A' for Active; 'I' for Inactive)
REMARK    5  A    between atoms: CA   and  CB  
REMARK    6  A    between atoms: CB   and  CG  
REMARK    7  A    between atoms: CG   and  CD  
ROOT
ATOM     14  CA  GLU D 570     -18.033  -6.348 -13.375  1.00 32.92     0.160 C 
ENDROOT
BRANCH  14  15
ATOM     15  CB  GLU D 570     -19.500  -6.345 -13.794  1.00 32.92     0.043 C 
BRANCH  15  16
ATOM     16  CG  GLU D 570     -20.450  -5.567 -12.957  1.00 32.92     0.100 C 
BRANCH  16  17
ATOM     17  CD  GLU D 570     -21.673  -5.114 -13.719  1.00 32.92     0.185 C 
ATOM     18  OE1 GLU D 570     -22.531  -4.428 -13.132  1.00 32.92    -0.647 OA
ATOM     19  OE2 GLU D 570     -21.782  -5.463 -14.911  1.00 32.92    -0.647 OA
ENDBRANCH  16  17
ENDBRANCH  15  16
ENDBRANCH  14  15
END_RES GLU D 570
ENDMDL
MODEL 5
REMARK VINA RESULT:      -5.6      1.955      3.496
REMARK  4 active torsions:
REMARK  status: ('A' for Active; 'I' for Inactive)
REMARK    1  A    between atoms: C_3  and  C_4 
REMARK    2  A    between atoms: C_4  and  C_5 
REMARK    3  A    between atoms: C_5  and  C_6 
REMARK    4  A    between atoms: C_7  and  C_8 
ROOT
HETATM    1  C   UNL     1     -22.021  -6.597  -4.270  1.00  0.00     0.037 C 
ENDROOT
BRANCH   1   2
HETATM    2  C   UNL     1     -21.440  -6.104  -2.936  1.00  0.00     0.031 C 
BRANCH   2   3
HETATM    3  C   UNL     1     -22.242  -6.461  -1.708  1.00  0.00    -0.024 C 
HETATM    4  C   UNL     1     -21.986  -7.534  -0.931  1.00  0.00    -0.091 C 
HETATM    5  C   UNL     1     -20.868  -8.509  -1.189  1.00  0.00     0.042 C 
HETATM    6  C   UNL     1     -22.828  -7.846   0.279  1.00  0.00     0.042 C 
ENDBRANCH   2   3
ENDBRANCH   1   2
BRANCH   1   7
HETATM    7  C   UNL     1     -20.911  -6.888  -5.267  1.00  0.00    -0.081 C 
HETATM    8  C   UNL     1     -20.660  -6.215  -6.407  1.00  0.00     0.043 C 
HETATM    9  C   UNL     1     -20.003  -8.042  -4.919  1.00  0.00     0.043 C 
BRANCH   8  10
HETATM   10  C   UNL     1     -21.394  -5.039  -6.921  1.00  0.00     0.259 C 
HETATM   11  O   UNL     1     -20.958  -3.903  -6.762  1.00  0.00    -0.302 OA
ENDBRANCH   8  10
ENDBRANCH   1   7
TORSDOF 4
BEGIN_RES ARG D 557
REMARK  4 active torsions:
REMARK  status: ('A' for Active; 'I' for Inactive)
REMARK    1  A    between atoms: CA   and  CB  
REMARK    2  A    between atoms: CB   and  CG  
REMARK    3  A    between atoms: CG   and  CD  
REMARK    4  A    between atoms: CD   and  NE  
REMARK       I    between atoms: NE   and  CZ  
REMARK       I    between atoms: CZ   and  NH1 
REMARK       I    between atoms: CZ   and  NH2 
ROOT
ATOM      1  CA  ARG D 557     -26.217   2.705 -17.014  1.00 35.49     0.159 C 
ENDROOT
BRANCH   1   2
ATOM      2  CB  ARG D 557     -26.789   1.319 -17.183  1.00 35.49     0.034 C 
BRANCH   2   3
ATOM      3  CG  ARG D 557     -25.836   0.203 -17.154  1.00 35.49     0.027 C 
BRANCH   3   4
ATOM      4  CD  ARG D 557     -24.751   0.412 -16.168  1.00 35.49     0.116 C 
BRANCH   4   5
ATOM      5  NE  ARG D 557     -24.896  -0.436 -15.014  1.00 35.49    -0.212 N 
ATOM      6  CZ  ARG D 557     -24.082  -1.407 -14.668  1.00 35.49     0.666 C 
ATOM      7  NH1 ARG D 557     -23.015  -1.725 -15.378  1.00 35.49    -0.235 N 
ATOM      8  NH2 ARG D 557     -24.356  -2.061 -13.576  1.00 35.49    -0.235 N 
ATOM      9  HH  ARG D 557     -22.814  -1.308 -16.099  1.00 35.49     0.174 HD
ATOM     10  HH  ARG D 557     -22.519  -2.367 -15.102  1.00 35.49     0.174 HD
ATOM     11  HH  ARG D 557     -25.048  -1.828 -13.134  1.00 35.49     0.174 HD
ATOM     12  HH  ARG D 557     -23.852  -2.691 -13.319  1.00 35.49     0.174 HD
ATOM     13  HE  ARG D 557     -25.596  -0.348 -14.539  1.00 35.49     0.178 HD
ENDBRANCH   4   5
ENDBRANCH   3   4
ENDBRANCH   2   3
ENDBRANCH   1   2
END_RES ARG D 557
BEGIN_RES GLU D 570
REMARK  3 active torsions:
REMARK  status: ('A' for Active; 'I' for Inactive)
REMARK    5  A    between atoms: CA   and  CB  
REMARK    6  A    between atoms: CB   and  CG  
REMARK    7  A    between atoms: CG   and  CD  
ROOT
ATOM     14  CA  GLU D 570     -18.033  -6.348 -13.375  1.00 32.92     0.160 C 
ENDROOT
BRANCH  14  15
ATOM     15  CB  GLU D 570     -19.500  -6.345 -13.794  1.00 32.92     0.043 C 
BRANCH  15  16
ATOM     16  CG  GLU D 570     -20.443  -5.536 -12.980  1.00 32.92     0.100 C 
BRANCH  16  17
ATOM     17  CD  GLU D 570     -21.741  -5.245 -13.696  1.00 32.92     0.185 C 
ATOM     18  OE1 GLU D 570     -22.213  -6.103 -14.466  1.00 32.92    -0.647 OA
ATOM     19  OE2 GLU D 570     -22.283  -4.139 -13.499  1.00 32.92    -0.647 OA
ENDBRANCH  16  17
ENDBRANCH  15  16
ENDBRANCH  14  15
END_RES GLU D 570
ENDMDL
MODEL 6
REMARK VINA RESULT:      -5.5      3.032      4.824
REMARK  4 active torsions:
REMARK  status: ('A' for Active; 'I' for Inactive)
REMARK    1  A    between atoms: C_3  and  C_4 
REMARK    2  A    between atoms: C_4  and  C_5 
REMARK    3  A    between atoms: C_5  and  C_6 
REMARK    4  A    between atoms: C_7  and  C_8 
ROOT
HETATM    1  C   UNL     1     -21.455  -3.810  -7.272  1.00  0.00     0.037 C 
ENDROOT
BRANCH   1   2
HETATM    2  C   UNL     1     -22.239  -4.532  -8.377  1.00  0.00     0.031 C 
BRANCH   2   3
HETATM    3  C   UNL     1     -22.547  -3.703  -9.600  1.00  0.00    -0.024 C 
HETATM    4  C   UNL     1     -21.742  -3.636 -10.682  1.00  0.00    -0.091 C 
HETATM    5  C   UNL     1     -20.439  -4.379 -10.806  1.00  0.00     0.042 C 
HETATM    6  C   UNL     1     -22.097  -2.782 -11.872  1.00  0.00     0.042 C 
ENDBRANCH   2   3
ENDBRANCH   1   2
BRANCH   1   7
HETATM    7  C   UNL     1     -20.329  -4.687  -6.748  1.00  0.00    -0.081 C 
HETATM    8  C   UNL     1     -20.428  -5.635  -5.796  1.00  0.00     0.043 C 
HETATM    9  C   UNL     1     -18.978  -4.468  -7.381  1.00  0.00     0.043 C 
BRANCH   8  10
HETATM   10  C   UNL     1     -21.653  -6.040  -5.072  1.00  0.00     0.259 C 
HETATM   11  O   UNL     1     -21.731  -5.931  -3.853  1.00  0.00    -0.302 OA
ENDBRANCH   8  10
ENDBRANCH   1   7
TORSDOF 4
BEGIN_RES ARG D 557
REMARK  4 active torsions:
REMARK  status: ('A' for Active; 'I' for Inactive)
REMARK    1  A    between atoms: CA   and  CB  
REMARK    2  A    between atoms: CB   and  CG  
REMARK    3  A    between atoms: CG   and  CD  
REMARK    4  A    between atoms: CD   and  NE  
REMARK       I    between atoms: NE   and  CZ  
REMARK       I    between atoms: CZ   and  NH1 
REMARK       I    between atoms: CZ   and  NH2 
ROOT
ATOM      1  CA  ARG D 557     -26.217   2.705 -17.014  1.00 35.49     0.159 C 
ENDROOT
BRANCH   1   2
ATOM      2  CB  ARG D 557     -26.789   1.319 -17.183  1.00 35.49     0.034 C 
BRANCH   2   3
ATOM      3  CG  ARG D 557     -28.233   1.226 -17.430  1.00 35.49     0.027 C 
BRANCH   3   4
ATOM      4  CD  ARG D 557     -28.908   0.300 -16.492  1.00 35.49     0.116 C 
BRANCH   4   5
ATOM      5  NE  ARG D 557     -29.299  -0.929 -17.131  1.00 35.49    -0.212 N 
ATOM      6  CZ  ARG D 557     -28.671  -2.079 -17.034  1.00 35.49     0.666 C 
ATOM      7  NH1 ARG D 557     -27.567  -2.227 -16.326  1.00 35.49    -0.235 N 
ATOM      8  NH2 ARG D 557     -29.181  -3.097 -17.665  1.00 35.49    -0.235 N 
ATOM      9  HH  ARG D 557     -27.215  -1.571 -15.901  1.00 35.49     0.174 HD
ATOM     10  HH  ARG D 557     -27.202  -3.002 -16.297  1.00 35.49     0.174 HD
ATOM     11  HH  ARG D 557     -29.899  -2.974 -18.109  1.00 35.49     0.174 HD
ATOM     12  HH  ARG D 557     -28.806  -3.856 -17.623  1.00 35.49     0.174 HD
ATOM     13  HE  ARG D 557     -29.960  -0.908 -17.666  1.00 35.49     0.178 HD
ENDBRANCH   4   5
ENDBRANCH   3   4
ENDBRANCH   2   3
ENDBRANCH   1   2
END_RES ARG D 557
BEGIN_RES GLU D 570
REMARK  3 active torsions:
REMARK  status: ('A' for Active; 'I' for Inactive)
REMARK    5  A    between atoms: CA   and  CB  
REMARK    6  A    between atoms: CB   and  CG  
REMARK    7  A    between atoms: CG   and  CD  
ROOT
ATOM     14  CA  GLU D 570     -18.033  -6.348 -13.375  1.00 32.92     0.160 C 
ENDROOT
BRANCH  14  15
ATOM     15  CB  GLU D 570     -19.500  -6.345 -13.794  1.00 32.92     0.043 C 
BRANCH  15  16
ATOM     16  CG  GLU D 570     -19.810  -5.972 -15.198  1.00 32.92     0.100 C 
BRANCH  16  17
ATOM     17  CD  GLU D 570     -21.285  -5.747 -15.436  1.00 32.92     0.185 C 
ATOM     18  OE1 GLU D 570     -21.665  -4.649 -15.885  1.00 32.92    -0.647 OA
ATOM     19  OE2 GLU D 570     -22.070  -6.674 -15.156  1.00 32.92    -0.647 OA
ENDBRANCH  16  17
ENDBRANCH  15  16
ENDBRANCH  14  15
END_RES GLU D 570
ENDMDL
MODEL 7
REMARK VINA RESULT:      -5.5      3.154      5.488
REMARK  4 active torsions:
REMARK  status: ('A' for Active; 'I' for Inactive)
REMARK    1  A    between atoms: C_3  and  C_4 
REMARK    2  A    between atoms: C_4  and  C_5 
REMARK    3  A    between atoms: C_5  and  C_6 
REMARK    4  A    between atoms: C_7  and  C_8 
ROOT
HETATM    1  C   UNL     1     -22.563  -3.952  -9.896  1.00  0.00     0.037 C 
ENDROOT
BRANCH   1   2
HETATM    2  C   UNL     1     -23.113  -3.619 -11.290  1.00  0.00     0.031 C 
BRANCH   2   3
HETATM    3  C   UNL     1     -23.512  -4.807 -12.131  1.00  0.00    -0.024 C 
HETATM    4  C   UNL     1     -23.269  -4.904 -13.455  1.00  0.00    -0.091 C 
HETATM    5  C   UNL     1     -22.570  -3.841 -14.260  1.00  0.00     0.042 C 
HETATM    6  C   UNL     1     -23.700  -6.113 -14.246  1.00  0.00     0.042 C 
ENDBRANCH   2   3
ENDBRANCH   1   2
BRANCH   1   7
HETATM    7  C   UNL     1     -21.050  -4.088  -9.930  1.00  0.00    -0.081 C 
HETATM    8  C   UNL     1     -20.276  -4.678  -8.998  1.00  0.00     0.043 C 
HETATM    9  C   UNL     1     -20.367  -3.512 -11.145  1.00  0.00     0.043 C 
BRANCH   8  10
HETATM   10  C   UNL     1     -20.733  -5.336  -7.755  1.00  0.00     0.259 C 
HETATM   11  O   UNL     1     -20.201  -6.365  -7.353  1.00  0.00    -0.302 OA
ENDBRANCH   8  10
ENDBRANCH   1   7
TORSDOF 4
BEGIN_RES ARG D 557
REMARK  4 active torsions:
REMARK  status: ('A' for Active; 'I' for Inactive)
REMARK    1  A    between atoms: CA   and  CB  
REMARK    2  A    between atoms: CB   and  CG  
REMARK    3  A    between atoms: CG   and  CD  
REMARK    4  A    between atoms: CD   and  NE  
REMARK       I    between atoms: NE   and  CZ  
REMARK       I    between atoms: CZ   and  NH1 
REMARK       I    between atoms: CZ   and  NH2 
ROOT
ATOM      1  CA  ARG D 557     -26.217   2.705 -17.014  1.00 35.49     0.159 C 
ENDROOT
BRANCH   1   2
ATOM      2  CB  ARG D 557     -26.789   1.319 -17.183  1.00 35.49     0.034 C 
BRANCH   2   3
ATOM      3  CG  ARG D 557     -28.232   1.226 -17.437  1.00 35.49     0.027 C 
BRANCH   3   4
ATOM      4  CD  ARG D 557     -28.912   0.305 -16.498  1.00 35.49     0.116 C 
BRANCH   4   5
ATOM      5  NE  ARG D 557     -29.286  -0.933 -17.129  1.00 35.49    -0.212 N 
ATOM      6  CZ  ARG D 557     -28.643  -2.074 -17.022  1.00 35.49     0.666 C 
ATOM      7  NH1 ARG D 557     -27.538  -2.201 -16.311  1.00 35.49    -0.235 N 
ATOM      8  NH2 ARG D 557     -29.138  -3.103 -17.647  1.00 35.49    -0.235 N 
ATOM      9  HH  ARG D 557     -27.195  -1.538 -15.891  1.00 35.49     0.174 HD
ATOM     10  HH  ARG D 557     -27.163  -2.971 -16.276  1.00 35.49     0.174 HD
ATOM     11  HH  ARG D 557     -29.857  -2.993 -18.092  1.00 35.49     0.174 HD
ATOM     12  HH  ARG D 557     -28.753  -3.857 -17.599  1.00 35.49     0.174 HD
ATOM     13  HE  ARG D 557     -29.946  -0.925 -17.665  1.00 35.49     0.178 HD
ENDBRANCH   4   5
ENDBRANCH   3   4
ENDBRANCH   2   3
ENDBRANCH   1   2
END_RES ARG D 557
BEGIN_RES GLU D 570
REMARK  3 active torsions:
REMARK  status: ('A' for Active; 'I' for Inactive)
REMARK    5  A    between atoms: CA   and  CB  
REMARK    6  A    between atoms: CB   and  CG  
REMARK    7  A    between atoms: CG   and  CD  
ROOT
ATOM     14  CA  GLU D 570     -18.033  -6.348 -13.375  1.00 32.92     0.160 C 
ENDROOT
BRANCH  14  15
ATOM     15  CB  GLU D 570     -19.500  -6.345 -13.794  1.00 32.92     0.043 C 
BRANCH  15  16
ATOM     16  CG  GLU D 570     -20.086  -7.634 -14.245  1.00 32.92     0.100 C 
BRANCH  16  17
ATOM     17  CD  GLU D 570     -20.646  -7.568 -15.647  1.00 32.92     0.185 C 
ATOM     18  OE1 GLU D 570     -20.646  -6.477 -16.248  1.00 32.92    -0.647 OA
ATOM     19  OE2 GLU D 570     -21.104  -8.616 -16.143  1.00 32.92    -0.647 OA
ENDBRANCH  16  17
ENDBRANCH  15  16
ENDBRANCH  14  15
END_RES GLU D 570
ENDMDL
MODEL 8
REMARK VINA RESULT:      -5.4      2.534      4.544
REMARK  4 active torsions:
REMARK  status: ('A' for Active; 'I' for Inactive)
REMARK    1  A    between atoms: C_3  and  C_4 
REMARK    2  A    between atoms: C_4  and  C_5 
REMARK    3  A    between atoms: C_5  and  C_6 
REMARK    4  A    between atoms: C_7  and  C_8 
ROOT
HETATM    1  C   UNL     1     -21.566  -6.112  -5.087  1.00  0.00     0.037 C 
ENDROOT
BRANCH   1   2
HETATM    2  C   UNL     1     -20.512  -5.055  -5.450  1.00  0.00     0.031 C 
BRANCH   2   3
HETATM    3  C   UNL     1     -19.996  -5.114  -6.866  1.00  0.00    -0.024 C 
HETATM    4  C   UNL     1     -20.615  -4.532  -7.915  1.00  0.00    -0.091 C 
HETATM    5  C   UNL     1     -21.896  -3.750  -7.804  1.00  0.00     0.042 C 
HETATM    6  C   UNL     1     -20.056  -4.633  -9.311  1.00  0.00     0.042 C 
ENDBRANCH   2   3
ENDBRANCH   1   2
BRANCH   1   7
HETATM    7  C   UNL     1     -21.004  -7.119  -4.098  1.00  0.00    -0.081 C 
HETATM    8  C   UNL     1     -21.241  -7.160  -2.772  1.00  0.00     0.043 C 
HETATM    9  C   UNL     1     -20.103  -8.179  -4.681  1.00  0.00     0.043 C 
BRANCH   8  10
HETATM   10  C   UNL     1     -22.114  -6.249  -2.000  1.00  0.00     0.259 C 
HETATM   11  O   UNL     1     -22.677  -6.629  -0.978  1.00  0.00    -0.302 OA
ENDBRANCH   8  10
ENDBRANCH   1   7
TORSDOF 4
BEGIN_RES ARG D 557
REMARK  4 active torsions:
REMARK  status: ('A' for Active; 'I' for Inactive)
REMARK    1  A    between atoms: CA   and  CB  
REMARK    2  A    between atoms: CB   and  CG  
REMARK    3  A    between atoms: CG   and  CD  
REMARK    4  A    between atoms: CD   and  NE  
REMARK       I    between atoms: NE   and  CZ  
REMARK       I    between atoms: CZ   and  NH1 
REMARK       I    between atoms: CZ   and  NH2 
ROOT
ATOM      1  CA  ARG D 557     -26.217   2.705 -17.014  1.00 35.49     0.159 C 
ENDROOT
BRANCH   1   2
ATOM      2  CB  ARG D 557     -26.789   1.319 -17.183  1.00 35.49     0.034 C 
BRANCH   2   3
ATOM      3  CG  ARG D 557     -25.864   0.195 -16.993  1.00 35.49     0.027 C 
BRANCH   3   4
ATOM      4  CD  ARG D 557     -26.289  -0.706 -15.896  1.00 35.49     0.116 C 
BRANCH   4   5
ATOM      5  NE  ARG D 557     -25.238  -0.927 -14.939  1.00 35.49    -0.212 N 
ATOM      6  CZ  ARG D 557     -24.956  -2.073 -14.359  1.00 35.49     0.666 C 
ATOM      7  NH1 ARG D 557     -25.643  -3.175 -14.596  1.00 35.49    -0.235 N 
ATOM      8  NH2 ARG D 557     -23.953  -2.095 -13.531  1.00 35.49    -0.235 N 
ATOM      9  HH  ARG D 557     -26.306  -3.184 -15.139  1.00 35.49     0.174 HD
ATOM     10  HH  ARG D 557     -25.411  -3.894 -14.191  1.00 35.49     0.174 HD
ATOM     11  HH  ARG D 557     -23.522  -1.370 -13.403  1.00 35.49     0.174 HD
ATOM     12  HH  ARG D 557     -23.738  -2.817 -13.141  1.00 35.49     0.174 HD
ATOM     13  HE  ARG D 557     -24.791  -0.254 -14.673  1.00 35.49     0.178 HD
ENDBRANCH   4   5
ENDBRANCH   3   4
ENDBRANCH   2   3
ENDBRANCH   1   2
END_RES ARG D 557
BEGIN_RES GLU D 570
REMARK  3 active torsions:
REMARK  status: ('A' for Active; 'I' for Inactive)
REMARK    5  A    between atoms: CA   and  CB  
REMARK    6  A    between atoms: CB   and  CG  
REMARK    7  A    between atoms: CG   and  CD  
ROOT
ATOM     14  CA  GLU D 570     -18.033  -6.348 -13.375  1.00 32.92     0.160 C 
ENDROOT
BRANCH  14  15
ATOM     15  CB  GLU D 570     -19.500  -6.345 -13.794  1.00 32.92     0.043 C 
BRANCH  15  16
ATOM     16  CG  GLU D 570     -20.445  -5.544 -12.974  1.00 32.92     0.100 C 
BRANCH  16  17
ATOM     17  CD  GLU D 570     -21.684  -5.133 -13.734  1.00 32.92     0.185 C 
ATOM     18  OE1 GLU D 570     -22.742  -4.936 -13.106  1.00 32.92    -0.647 OA
ATOM     19  OE2 GLU D 570     -21.600  -5.024 -14.973  1.00 32.92    -0.647 OA
ENDBRANCH  16  17
ENDBRANCH  15  16
ENDBRANCH  14  15
END_RES GLU D 570
ENDMDL
MODEL 9
REMARK VINA RESULT:      -5.4      3.967      6.196
REMARK  4 active torsions:
REMARK  status: ('A' for Active; 'I' for Inactive)
REMARK    1  A    between atoms: C_3  and  C_4 
REMARK    2  A    between atoms: C_4  and  C_5 
REMARK    3  A    between atoms: C_5  and  C_6 
REMARK    4  A    between atoms: C_7  and  C_8 
ROOT
HETATM    1  C   UNL     1     -21.001  -8.679  -0.744  1.00  0.00     0.037 C 
ENDROOT
BRANCH   1   2
HETATM    2  C   UNL     1     -21.548  -9.984  -1.341  1.00  0.00     0.031 C 
BRANCH   2   3
HETATM    3  C   UNL     1     -21.631 -11.149  -0.384  1.00  0.00    -0.024 C 
HETATM    4  C   UNL     1     -22.793 -11.697   0.030  1.00  0.00    -0.091 C 
HETATM    5  C   UNL     1     -24.151 -11.219  -0.411  1.00  0.00     0.042 C 
HETATM    6  C   UNL     1     -22.814 -12.855   0.995  1.00  0.00     0.042 C 
ENDBRANCH   2   3
ENDBRANCH   1   2
BRANCH   1   7
HETATM    7  C   UNL     1     -22.115  -7.660  -0.564  1.00  0.00    -0.081 C 
HETATM    8  C   UNL     1     -22.365  -6.596  -1.352  1.00  0.00     0.043 C 
HETATM    9  C   UNL     1     -23.029  -7.890   0.614  1.00  0.00     0.043 C 
BRANCH   8  10
HETATM   10  C   UNL     1     -21.624  -6.204  -2.571  1.00  0.00     0.259 C 
HETATM   11  O   UNL     1     -22.190  -6.132  -3.657  1.00  0.00    -0.302 OA
ENDBRANCH   8  10
ENDBRANCH   1   7
TORSDOF 4
BEGIN_RES ARG D 557
REMARK  4 active torsions:
REMARK  status: ('A' for Active; 'I' for Inactive)
REMARK    1  A    between atoms: CA   and  CB  
REMARK    2  A    between atoms: CB   and  CG  
REMARK    3  A    between atoms: CG   and  CD  
REMARK    4  A    between atoms: CD   and  NE  
REMARK       I    between atoms: NE   and  CZ  
REMARK       I    between atoms: CZ   and  NH1 
REMARK       I    between atoms: CZ   and  NH2 
ROOT
ATOM      1  CA  ARG D 557     -26.217   2.705 -17.014  1.00 35.49     0.159 C 
ENDROOT
BRANCH   1   2
ATOM      2  CB  ARG D 557     -26.789   1.319 -17.183  1.00 35.49     0.034 C 
BRANCH   2   3
ATOM      3  CG  ARG D 557     -25.864   0.195 -16.996  1.00 35.49     0.027 C 
BRANCH   3   4
ATOM      4  CD  ARG D 557     -26.279  -0.700 -15.892  1.00 35.49     0.116 C 
BRANCH   4   5
ATOM      5  NE  ARG D 557     -25.223  -0.910 -14.937  1.00 35.49    -0.212 N 
ATOM      6  CZ  ARG D 557     -24.927  -2.051 -14.356  1.00 35.49     0.666 C 
ATOM      7  NH1 ARG D 557     -25.604  -3.161 -14.589  1.00 35.49    -0.235 N 
ATOM      8  NH2 ARG D 557     -23.922  -2.062 -13.531  1.00 35.49    -0.235 N 
ATOM      9  HH  ARG D 557     -26.268  -3.177 -15.130  1.00 35.49     0.174 HD
ATOM     10  HH  ARG D 557     -25.363  -3.876 -14.183  1.00 35.49     0.174 HD
ATOM     11  HH  ARG D 557     -23.499  -1.332 -13.406  1.00 35.49     0.174 HD
ATOM     12  HH  ARG D 557     -23.698  -2.781 -13.140  1.00 35.49     0.174 HD
ATOM     13  HE  ARG D 557     -24.782  -0.231 -14.674  1.00 35.49     0.178 HD
ENDBRANCH   4   5
ENDBRANCH   3   4
ENDBRANCH   2   3
ENDBRANCH   1   2
END_RES ARG D 557
BEGIN_RES GLU D 570
REMARK  3 active torsions:
REMARK  status: ('A' for Active; 'I' for Inactive)
REMARK    5  A    between atoms: CA   and  CB  
REMARK    6  A    between atoms: CB   and  CG  
REMARK    7  A    between atoms: CG   and  CD  
ROOT
ATOM     14  CA  GLU D 570     -18.033  -6.348 -13.375  1.00 32.92     0.160 C 
ENDROOT
BRANCH  14  15
ATOM     15  CB  GLU D 570     -19.500  -6.345 -13.794  1.00 32.92     0.043 C 
BRANCH  15  16
ATOM     16  CG  GLU D 570     -20.448  -5.559 -12.962  1.00 32.92     0.100 C 
BRANCH  16  17
ATOM     17  CD  GLU D 570     -21.678  -5.123 -13.723  1.00 32.92     0.185 C 
ATOM     18  OE1 GLU D 570     -22.725  -4.878 -13.093  1.00 32.92    -0.647 OA
ATOM     19  OE2 GLU D 570     -21.599  -5.042 -14.965  1.00 32.92    -0.647 OA
ENDBRANCH  16  17
ENDBRANCH  15  16
ENDBRANCH  14  15
END_RES GLU D 570
ENDMDL
