MODEL 1
REMARK VINA RESULT:      -7.6      0.000      0.000
REMARK  12 active torsions:
REMARK  status: ('A' for Active; 'I' for Inactive)
REMARK    1  A    between atoms: C_3  and  N_17 
REMARK    2  A    between atoms: C_4  and  N_14 
REMARK    3  A    between atoms: C_6  and  N_7 
REMARK    4  A    between atoms: N_7  and  C_8 
REMARK    5  A    between atoms: N_7  and  C_11 
REMARK    6  A    between atoms: C_8  and  C_9 
REMARK    7  A    between atoms: C_9  and  O_10 
REMARK    8  A    between atoms: C_11  and  C_12 
REMARK    9  A    between atoms: C_12  and  O_13 
REMARK   10  A    between atoms: N_17  and  C_18 
REMARK   11  A    between atoms: C_18  and  C_19 
REMARK   12  A    between atoms: C_19  and  O_20 
ROOT
HETATM    1  C   UNL     1     -23.369  -5.073 -11.510  1.00  0.00     0.025 A 
HETATM    2  C   UNL     1     -23.719  -5.517 -12.794  1.00  0.00     0.028 A 
HETATM    3  C   UNL     1     -23.738  -4.658 -13.902  1.00  0.00     0.041 A 
HETATM    4  C   UNL     1     -23.349  -3.320 -13.642  1.00  0.00     0.125 A 
HETATM    5  C   UNL     1     -23.002  -2.875 -12.338  1.00  0.00     0.061 A 
HETATM    6  C   UNL     1     -22.986  -3.754 -11.252  1.00  0.00     0.013 A 
ENDROOT
BRANCH   6   7
HETATM    7  N   UNL     1     -22.577  -3.402  -9.946  1.00  0.00    -0.279 NA
BRANCH   7   8
HETATM    8  C   UNL     1     -21.216  -3.766  -9.463  1.00  0.00     0.121 C 
BRANCH   8   9
HETATM    9  C   UNL     1     -20.153  -3.780 -10.569  1.00  0.00     0.179 C 
BRANCH   9  10
HETATM   10  O   UNL     1     -19.633  -5.089 -10.791  1.00  0.00    -0.400 OA
HETATM   11  H   UNL     1     -20.048  -5.403 -11.613  1.00  0.00     0.209 HD
ENDBRANCH   9  10
ENDBRANCH   8   9
ENDBRANCH   7   8
BRANCH   7  12
HETATM   12  C   UNL     1     -23.637  -3.748  -8.938  1.00  0.00     0.121 C 
BRANCH  12  13
HETATM   13  C   UNL     1     -23.008  -4.325  -7.664  1.00  0.00     0.179 C 
BRANCH  13  14
HETATM   14  O   UNL     1     -23.989  -4.468  -6.638  1.00  0.00    -0.400 OA
HETATM   15  H   UNL     1     -23.470  -4.649  -5.832  1.00  0.00     0.209 HD
ENDBRANCH  13  14
ENDBRANCH  12  13
ENDBRANCH   7  12
ENDBRANCH   6   7
BRANCH   4  16
HETATM   16  N   UNL     1     -23.297  -2.322 -14.726  1.00  0.00    -0.114 N 
HETATM   17  O   UNL     1     -24.111  -1.385 -14.710  1.00  0.00    -0.532 OA
HETATM   18  O   UNL     1     -22.425  -2.463 -15.597  1.00  0.00    -0.532 OA
ENDBRANCH   4  16
BRANCH   3  19
HETATM   19  N   UNL     1     -23.961  -5.161 -15.199  1.00  0.00    -0.289 NA
HETATM   20  H   UNL     1     -24.196  -4.396 -15.849  1.00  0.00     0.127 HD
BRANCH  19  21
HETATM   21  C   UNL     1     -24.833  -6.329 -15.395  1.00  0.00     0.118 C 
BRANCH  21  22
HETATM   22  C   UNL     1     -24.415  -7.075 -16.672  1.00  0.00     0.178 C 
BRANCH  22  23
HETATM   23  O   UNL     1     -24.200  -8.458 -16.396  1.00  0.00    -0.400 OA
HETATM   24  H   UNL     1     -24.836  -8.692 -15.693  1.00  0.00     0.209 HD
ENDBRANCH  22  23
ENDBRANCH  21  22
ENDBRANCH  19  21
ENDBRANCH   3  19
TORSDOF 12
BEGIN_RES ARG D 557
REMARK  4 active torsions:
REMARK  status: ('A' for Active; 'I' for Inactive)
REMARK    1  A    between atoms: CA   and  CB  
REMARK    2  A    between atoms: CB   and  CG  
REMARK    3  A    between atoms: CG   and  CD  
REMARK    4  A    between atoms: CD   and  NE  
REMARK       I    between atoms: NE   and  CZ  
REMARK       I    between atoms: CZ   and  NH1 
REMARK       I    between atoms: CZ   and  NH2 
ROOT
ATOM      1  CA  ARG D 557     -26.217   2.705 -17.014  1.00 35.49     0.159 C 
ENDROOT
BRANCH   1   2
ATOM      2  CB  ARG D 557     -26.789   1.319 -17.183  1.00 35.49     0.034 C 
BRANCH   2   3
ATOM      3  CG  ARG D 557     -28.208   1.145 -16.851  1.00 35.49     0.027 C 
BRANCH   3   4
ATOM      4  CD  ARG D 557     -28.603  -0.281 -16.790  1.00 35.49     0.116 C 
BRANCH   4   5
ATOM      5  NE  ARG D 557     -27.628  -1.084 -16.101  1.00 35.49    -0.212 N 
ATOM      6  CZ  ARG D 557     -27.517  -2.392 -16.178  1.00 35.49     0.666 C 
ATOM      7  NH1 ARG D 557     -28.328  -3.130 -16.912  1.00 35.49    -0.235 N 
ATOM      8  NH2 ARG D 557     -26.559  -2.954 -15.500  1.00 35.49    -0.235 N 
ATOM      9  HH  ARG D 557     -28.965  -2.781 -17.368  1.00 35.49     0.174 HD
ATOM     10  HH  ARG D 557     -28.206  -3.978 -16.925  1.00 35.49     0.174 HD
ATOM     11  HH  ARG D 557     -26.045  -2.451 -15.040  1.00 35.49     0.174 HD
ATOM     12  HH  ARG D 557     -26.453  -3.794 -15.527  1.00 35.49     0.174 HD
ATOM     13  HE  ARG D 557     -27.110  -0.697 -15.548  1.00 35.49     0.178 HD
ENDBRANCH   4   5
ENDBRANCH   3   4
ENDBRANCH   2   3
ENDBRANCH   1   2
END_RES ARG D 557
BEGIN_RES GLU D 570
REMARK  3 active torsions:
REMARK  status: ('A' for Active; 'I' for Inactive)
REMARK    5  A    between atoms: CA   and  CB  
REMARK    6  A    between atoms: CB   and  CG  
REMARK    7  A    between atoms: CG   and  CD  
ROOT
ATOM     14  CA  GLU D 570     -18.033  -6.348 -13.375  1.00 32.92     0.160 C 
ENDROOT
BRANCH  14  15
ATOM     15  CB  GLU D 570     -19.500  -6.345 -13.794  1.00 32.92     0.043 C 
BRANCH  15  16
ATOM     16  CG  GLU D 570     -20.083  -7.632 -14.253  1.00 32.92     0.100 C 
BRANCH  16  17
ATOM     17  CD  GLU D 570     -20.866  -7.499 -15.539  1.00 32.92     0.185 C 
ATOM     18  OE1 GLU D 570     -21.163  -6.362 -15.952  1.00 32.92    -0.647 OA
ATOM     19  OE2 GLU D 570     -21.199  -8.544 -16.131  1.00 32.92    -0.647 OA
ENDBRANCH  16  17
ENDBRANCH  15  16
ENDBRANCH  14  15
END_RES GLU D 570
ENDMDL
MODEL 2
REMARK VINA RESULT:      -7.3      3.781      7.717
REMARK  12 active torsions:
REMARK  status: ('A' for Active; 'I' for Inactive)
REMARK    1  A    between atoms: C_3  and  N_17 
REMARK    2  A    between atoms: C_4  and  N_14 
REMARK    3  A    between atoms: C_6  and  N_7 
REMARK    4  A    between atoms: N_7  and  C_8 
REMARK    5  A    between atoms: N_7  and  C_11 
REMARK    6  A    between atoms: C_8  and  C_9 
REMARK    7  A    between atoms: C_9  and  O_10 
REMARK    8  A    between atoms: C_11  and  C_12 
REMARK    9  A    between atoms: C_12  and  O_13 
REMARK   10  A    between atoms: N_17  and  C_18 
REMARK   11  A    between atoms: C_18  and  C_19 
REMARK   12  A    between atoms: C_19  and  O_20 
ROOT
HETATM    1  C   UNL     1     -27.172  -6.383 -20.080  1.00  0.00     0.025 A 
HETATM    2  C   UNL     1     -25.917  -6.876 -20.468  1.00  0.00     0.028 A 
HETATM    3  C   UNL     1     -24.894  -7.128 -19.542  1.00  0.00     0.041 A 
HETATM    4  C   UNL     1     -25.226  -6.881 -18.186  1.00  0.00     0.125 A 
HETATM    5  C   UNL     1     -26.497  -6.375 -17.800  1.00  0.00     0.061 A 
HETATM    6  C   UNL     1     -27.499  -6.138 -18.743  1.00  0.00     0.013 A 
ENDROOT
BRANCH   6   7
HETATM    7  N   UNL     1     -28.809  -5.712 -18.427  1.00  0.00    -0.279 NA
BRANCH   7   8
HETATM    8  C   UNL     1     -29.043  -4.341 -17.892  1.00  0.00     0.121 C 
BRANCH   8   9
HETATM    9  C   UNL     1     -30.502  -4.072 -17.501  1.00  0.00     0.179 C 
BRANCH   9  10
HETATM   10  O   UNL     1     -31.057  -2.984 -18.236  1.00  0.00    -0.400 OA
HETATM   11  H   UNL     1     -30.360  -2.696 -18.850  1.00  0.00     0.209 HD
ENDBRANCH   9  10
ENDBRANCH   8   9
ENDBRANCH   7   8
BRANCH   7  12
HETATM   12  C   UNL     1     -29.537  -6.755 -17.625  1.00  0.00     0.121 C 
BRANCH  12  13
HETATM   13  C   UNL     1     -30.427  -7.613 -18.531  1.00  0.00     0.179 C 
BRANCH  13  14
HETATM   14  O   UNL     1     -29.700  -8.728 -19.044  1.00  0.00    -0.400 OA
HETATM   15  H   UNL     1     -29.863  -8.701 -20.005  1.00  0.00     0.209 HD
ENDBRANCH  13  14
ENDBRANCH  12  13
ENDBRANCH   7  12
ENDBRANCH   6   7
BRANCH   4  16
HETATM   16  N   UNL     1     -24.251  -7.133 -17.110  1.00  0.00    -0.114 N 
HETATM   17  O   UNL     1     -24.621  -7.765 -16.108  1.00  0.00    -0.532 OA
HETATM   18  O   UNL     1     -23.095  -6.711 -17.270  1.00  0.00    -0.532 OA
ENDBRANCH   4  16
BRANCH   3  19
HETATM   19  N   UNL     1     -23.695  -7.749 -19.945  1.00  0.00    -0.289 NA
HETATM   20  H   UNL     1     -22.883  -7.164 -19.696  1.00  0.00     0.127 HD
BRANCH  19  21
HETATM   21  C   UNL     1     -23.573  -8.301 -21.302  1.00  0.00     0.118 C 
BRANCH  21  22
HETATM   22  C   UNL     1     -22.125  -8.758 -21.543  1.00  0.00     0.178 C 
BRANCH  22  23
HETATM   23  O   UNL     1     -21.329  -8.531 -20.381  1.00  0.00    -0.400 OA
HETATM   24  H   UNL     1     -21.040  -9.414 -20.079  1.00  0.00     0.209 HD
ENDBRANCH  22  23
ENDBRANCH  21  22
ENDBRANCH  19  21
ENDBRANCH   3  19
TORSDOF 12
BEGIN_RES ARG D 557
REMARK  4 active torsions:
REMARK  status: ('A' for Active; 'I' for Inactive)
REMARK    1  A    between atoms: CA   and  CB  
REMARK    2  A    between atoms: CB   and  CG  
REMARK    3  A    between atoms: CG   and  CD  
REMARK    4  A    between atoms: CD   and  NE  
REMARK       I    between atoms: NE   and  CZ  
REMARK       I    between atoms: CZ   and  NH1 
REMARK       I    between atoms: CZ   and  NH2 
ROOT
ATOM      1  CA  ARG D 557     -26.217   2.705 -17.014  1.00 35.49     0.159 C 
ENDROOT
BRANCH   1   2
ATOM      2  CB  ARG D 557     -26.789   1.319 -17.183  1.00 35.49     0.034 C 
BRANCH   2   3
ATOM      3  CG  ARG D 557     -25.874   0.194 -16.954  1.00 35.49     0.027 C 
BRANCH   3   4
ATOM      4  CD  ARG D 557     -26.373  -0.737 -15.916  1.00 35.49     0.116 C 
BRANCH   4   5
ATOM      5  NE  ARG D 557     -25.405  -0.957 -14.874  1.00 35.49    -0.212 N 
ATOM      6  CZ  ARG D 557     -25.124  -2.114 -14.319  1.00 35.49     0.666 C 
ATOM      7  NH1 ARG D 557     -25.733  -3.233 -14.664  1.00 35.49    -0.235 N 
ATOM      8  NH2 ARG D 557     -24.201  -2.131 -13.401  1.00 35.49    -0.235 N 
ATOM      9  HH  ARG D 557     -26.342  -3.245 -15.267  1.00 35.49     0.174 HD
ATOM     10  HH  ARG D 557     -25.506  -3.959 -14.269  1.00 35.49     0.174 HD
ATOM     11  HH  ARG D 557     -23.819  -1.395 -13.204  1.00 35.49     0.174 HD
ATOM     12  HH  ARG D 557     -23.989  -2.860 -13.023  1.00 35.49     0.174 HD
ATOM     13  HE  ARG D 557     -25.017  -0.278 -14.540  1.00 35.49     0.178 HD
ENDBRANCH   4   5
ENDBRANCH   3   4
ENDBRANCH   2   3
ENDBRANCH   1   2
END_RES ARG D 557
BEGIN_RES GLU D 570
REMARK  3 active torsions:
REMARK  status: ('A' for Active; 'I' for Inactive)
REMARK    5  A    between atoms: CA   and  CB  
REMARK    6  A    between atoms: CB   and  CG  
REMARK    7  A    between atoms: CG   and  CD  
ROOT
ATOM     14  CA  GLU D 570     -18.033  -6.348 -13.375  1.00 32.92     0.160 C 
ENDROOT
BRANCH  14  15
ATOM     15  CB  GLU D 570     -19.500  -6.345 -13.794  1.00 32.92     0.043 C 
BRANCH  15  16
ATOM     16  CG  GLU D 570     -20.443  -5.537 -12.978  1.00 32.92     0.100 C 
BRANCH  16  17
ATOM     17  CD  GLU D 570     -21.750  -5.265 -13.685  1.00 32.92     0.185 C 
ATOM     18  OE1 GLU D 570     -22.338  -6.206 -14.255  1.00 32.92    -0.647 OA
ATOM     19  OE2 GLU D 570     -22.183  -4.096 -13.684  1.00 32.92    -0.647 OA
ENDBRANCH  16  17
ENDBRANCH  15  16
ENDBRANCH  14  15
END_RES GLU D 570
ENDMDL
MODEL 3
REMARK VINA RESULT:      -7.3      1.875      5.205
REMARK  12 active torsions:
REMARK  status: ('A' for Active; 'I' for Inactive)
REMARK    1  A    between atoms: C_3  and  N_17 
REMARK    2  A    between atoms: C_4  and  N_14 
REMARK    3  A    between atoms: C_6  and  N_7 
REMARK    4  A    between atoms: N_7  and  C_8 
REMARK    5  A    between atoms: N_7  and  C_11 
REMARK    6  A    between atoms: C_8  and  C_9 
REMARK    7  A    between atoms: C_9  and  O_10 
REMARK    8  A    between atoms: C_11  and  C_12 
REMARK    9  A    between atoms: C_12  and  O_13 
REMARK   10  A    between atoms: N_17  and  C_18 
REMARK   11  A    between atoms: C_18  and  C_19 
REMARK   12  A    between atoms: C_19  and  O_20 
ROOT
HETATM    1  C   UNL     1     -23.669  -6.106 -13.835  1.00  0.00     0.025 A 
HETATM    2  C   UNL     1     -23.190  -5.071 -13.018  1.00  0.00     0.028 A 
HETATM    3  C   UNL     1     -23.580  -3.736 -13.198  1.00  0.00     0.041 A 
HETATM    4  C   UNL     1     -24.513  -3.510 -14.241  1.00  0.00     0.125 A 
HETATM    5  C   UNL     1     -24.988  -4.562 -15.070  1.00  0.00     0.061 A 
HETATM    6  C   UNL     1     -24.588  -5.884 -14.864  1.00  0.00     0.013 A 
ENDROOT
BRANCH   6   7
HETATM    7  N   UNL     1     -25.078  -6.990 -15.595  1.00  0.00    -0.279 NA
BRANCH   7   8
HETATM    8  C   UNL     1     -24.164  -7.773 -16.473  1.00  0.00     0.121 C 
BRANCH   8   9
HETATM    9  C   UNL     1     -24.027  -7.199 -17.889  1.00  0.00     0.179 C 
BRANCH   9  10
HETATM   10  O   UNL     1     -22.680  -7.244 -18.354  1.00  0.00    -0.400 OA
HETATM   11  H   UNL     1     -22.630  -6.603 -19.084  1.00  0.00     0.209 HD
ENDBRANCH   9  10
ENDBRANCH   8   9
ENDBRANCH   7   8
BRANCH   7  12
HETATM   12  C   UNL     1     -26.364  -6.647 -16.294  1.00  0.00     0.121 C 
BRANCH  12  13
HETATM   13  C   UNL     1     -27.566  -7.201 -15.521  1.00  0.00     0.179 C 
BRANCH  13  14
HETATM   14  O   UNL     1     -28.727  -6.406 -15.756  1.00  0.00    -0.400 OA
HETATM   15  H   UNL     1     -29.436  -7.055 -15.917  1.00  0.00     0.209 HD
ENDBRANCH  13  14
ENDBRANCH  12  13
ENDBRANCH   7  12
ENDBRANCH   6   7
BRANCH   4  16
HETATM   16  N   UNL     1     -25.026  -2.156 -14.516  1.00  0.00    -0.114 N 
HETATM   17  O   UNL     1     -26.251  -1.999 -14.644  1.00  0.00    -0.532 OA
HETATM   18  O   UNL     1     -24.202  -1.231 -14.591  1.00  0.00    -0.532 OA
ENDBRANCH   4  16
BRANCH   3  19
HETATM   19  N   UNL     1     -23.189  -2.742 -12.279  1.00  0.00    -0.289 NA
HETATM   20  H   UNL     1     -22.369  -2.226 -12.631  1.00  0.00     0.127 HD
BRANCH  19  21
HETATM   21  C   UNL     1     -23.055  -3.070 -10.852  1.00  0.00     0.118 C 
BRANCH  21  22
HETATM   22  C   UNL     1     -24.449  -3.276 -10.239  1.00  0.00     0.178 C 
BRANCH  22  23
HETATM   23  O   UNL     1     -24.351  -3.485  -8.831  1.00  0.00    -0.400 OA
HETATM   24  H   UNL     1     -24.086  -4.419  -8.717  1.00  0.00     0.209 HD
ENDBRANCH  22  23
ENDBRANCH  21  22
ENDBRANCH  19  21
ENDBRANCH   3  19
TORSDOF 12
BEGIN_RES ARG D 557
REMARK  4 active torsions:
REMARK  status: ('A' for Active; 'I' for Inactive)
REMARK    1  A    between atoms: CA   and  CB  
REMARK    2  A    between atoms: CB   and  CG  
REMARK    3  A    between atoms: CG   and  CD  
REMARK    4  A    between atoms: CD   and  NE  
REMARK       I    between atoms: NE   and  CZ  
REMARK       I    between atoms: CZ   and  NH1 
REMARK       I    between atoms: CZ   and  NH2 
ROOT
ATOM      1  CA  ARG D 557     -26.217   2.705 -17.014  1.00 35.49     0.159 C 
ENDROOT
BRANCH   1   2
ATOM      2  CB  ARG D 557     -26.789   1.319 -17.183  1.00 35.49     0.034 C 
BRANCH   2   3
ATOM      3  CG  ARG D 557     -28.150   1.100 -16.679  1.00 35.49     0.027 C 
BRANCH   3   4
ATOM      4  CD  ARG D 557     -28.803  -0.071 -17.308  1.00 35.49     0.116 C 
BRANCH   4   5
ATOM      5  NE  ARG D 557     -28.219  -1.314 -16.878  1.00 35.49    -0.212 N 
ATOM      6  CZ  ARG D 557     -28.736  -2.508 -17.059  1.00 35.49     0.666 C 
ATOM      7  NH1 ARG D 557     -29.894  -2.696 -17.665  1.00 35.49    -0.235 N 
ATOM      8  NH2 ARG D 557     -28.057  -3.529 -16.621  1.00 35.49    -0.235 N 
ATOM      9  HH  ARG D 557     -30.357  -2.039 -17.963  1.00 35.49     0.174 HD
ATOM     10  HH  ARG D 557     -30.180  -3.498 -17.757  1.00 35.49     0.174 HD
ATOM     11  HH  ARG D 557     -27.309  -3.378 -16.240  1.00 35.49     0.174 HD
ATOM     12  HH  ARG D 557     -28.357  -4.316 -16.723  1.00 35.49     0.174 HD
ATOM     13  HE  ARG D 557     -27.507  -1.281 -16.414  1.00 35.49     0.178 HD
ENDBRANCH   4   5
ENDBRANCH   3   4
ENDBRANCH   2   3
ENDBRANCH   1   2
END_RES ARG D 557
BEGIN_RES GLU D 570
REMARK  3 active torsions:
REMARK  status: ('A' for Active; 'I' for Inactive)
REMARK    5  A    between atoms: CA   and  CB  
REMARK    6  A    between atoms: CB   and  CG  
REMARK    7  A    between atoms: CG   and  CD  
ROOT
ATOM     14  CA  GLU D 570     -18.033  -6.348 -13.375  1.00 32.92     0.160 C 
ENDROOT
BRANCH  14  15
ATOM     15  CB  GLU D 570     -19.500  -6.345 -13.794  1.00 32.92     0.043 C 
BRANCH  15  16
ATOM     16  CG  GLU D 570     -20.092  -7.638 -14.224  1.00 32.92     0.100 C 
BRANCH  16  17
ATOM     17  CD  GLU D 570     -20.634  -7.599 -15.633  1.00 32.92     0.185 C 
ATOM     18  OE1 GLU D 570     -20.772  -8.668 -16.259  1.00 32.92    -0.647 OA
ATOM     19  OE2 GLU D 570     -20.908  -6.486 -16.124  1.00 32.92    -0.647 OA
ENDBRANCH  16  17
ENDBRANCH  15  16
ENDBRANCH  14  15
END_RES GLU D 570
ENDMDL
MODEL 4
REMARK VINA RESULT:      -6.8      2.993      5.898
REMARK  12 active torsions:
REMARK  status: ('A' for Active; 'I' for Inactive)
REMARK    1  A    between atoms: C_3  and  N_17 
REMARK    2  A    between atoms: C_4  and  N_14 
REMARK    3  A    between atoms: C_6  and  N_7 
REMARK    4  A    between atoms: N_7  and  C_8 
REMARK    5  A    between atoms: N_7  and  C_11 
REMARK    6  A    between atoms: C_8  and  C_9 
REMARK    7  A    between atoms: C_9  and  O_10 
REMARK    8  A    between atoms: C_11  and  C_12 
REMARK    9  A    between atoms: C_12  and  O_13 
REMARK   10  A    between atoms: N_17  and  C_18 
REMARK   11  A    between atoms: C_18  and  C_19 
REMARK   12  A    between atoms: C_19  and  O_20 
ROOT
HETATM    1  C   UNL     1     -27.141  -7.069 -15.959  1.00  0.00     0.025 A 
HETATM    2  C   UNL     1     -28.399  -6.684 -16.445  1.00  0.00     0.028 A 
HETATM    3  C   UNL     1     -28.744  -5.339 -16.640  1.00  0.00     0.041 A 
HETATM    4  C   UNL     1     -27.726  -4.399 -16.342  1.00  0.00     0.125 A 
HETATM    5  C   UNL     1     -26.455  -4.796 -15.843  1.00  0.00     0.061 A 
HETATM    6  C   UNL     1     -26.136  -6.144 -15.664  1.00  0.00     0.013 A 
ENDROOT
BRANCH   6   7
HETATM    7  N   UNL     1     -24.870  -6.617 -15.249  1.00  0.00    -0.279 NA
BRANCH   7   8
HETATM    8  C   UNL     1     -23.799  -5.654 -14.867  1.00  0.00     0.121 C 
BRANCH   8   9
HETATM    9  C   UNL     1     -23.472  -5.657 -13.368  1.00  0.00     0.179 C 
BRANCH   9  10
HETATM   10  O   UNL     1     -22.658  -4.547 -13.000  1.00  0.00    -0.400 OA
HETATM   11  H   UNL     1     -23.048  -3.773 -13.441  1.00  0.00     0.209 HD
ENDBRANCH   9  10
ENDBRANCH   8   9
ENDBRANCH   7   8
BRANCH   7  12
HETATM   12  C   UNL     1     -24.359  -7.679 -16.181  1.00  0.00     0.121 C 
BRANCH  12  13
HETATM   13  C   UNL     1     -24.184  -7.120 -17.598  1.00  0.00     0.179 C 
BRANCH  13  14
HETATM   14  O   UNL     1     -22.836  -7.278 -18.039  1.00  0.00    -0.400 OA
HETATM   15  H   UNL     1     -22.536  -6.370 -18.227  1.00  0.00     0.209 HD
ENDBRANCH  13  14
ENDBRANCH  12  13
ENDBRANCH   7  12
ENDBRANCH   6   7
BRANCH   4  16
HETATM   16  N   UNL     1     -27.949  -2.954 -16.531  1.00  0.00    -0.114 N 
HETATM   17  O   UNL     1     -27.304  -2.156 -15.832  1.00  0.00    -0.532 OA
HETATM   18  O   UNL     1     -28.766  -2.607 -17.398  1.00  0.00    -0.532 OA
ENDBRANCH   4  16
BRANCH   3  19
HETATM   19  N   UNL     1     -29.963  -4.990 -17.255  1.00  0.00    -0.289 NA
HETATM   20  H   UNL     1     -29.842  -4.162 -17.857  1.00  0.00     0.127 HD
BRANCH  19  21
HETATM   21  C   UNL     1     -31.194  -4.904 -16.453  1.00  0.00     0.118 C 
BRANCH  21  22
HETATM   22  C   UNL     1     -32.209  -3.997 -17.166  1.00  0.00     0.178 C 
BRANCH  22  23
HETATM   23  O   UNL     1     -31.538  -2.983 -17.912  1.00  0.00    -0.400 OA
HETATM   24  H   UNL     1     -31.535  -3.292 -18.839  1.00  0.00     0.209 HD
ENDBRANCH  22  23
ENDBRANCH  21  22
ENDBRANCH  19  21
ENDBRANCH   3  19
TORSDOF 12
BEGIN_RES ARG D 557
REMARK  4 active torsions:
REMARK  status: ('A' for Active; 'I' for Inactive)
REMARK    1  A    between atoms: CA   and  CB  
REMARK    2  A    between atoms: CB   and  CG  
REMARK    3  A    between atoms: CG   and  CD  
REMARK    4  A    between atoms: CD   and  NE  
REMARK       I    between atoms: NE   and  CZ  
REMARK       I    between atoms: CZ   and  NH1 
REMARK       I    between atoms: CZ   and  NH2 
ROOT
ATOM      1  CA  ARG D 557     -26.217   2.705 -17.014  1.00 35.49     0.159 C 
ENDROOT
BRANCH   1   2
ATOM      2  CB  ARG D 557     -26.789   1.319 -17.183  1.00 35.49     0.034 C 
BRANCH   2   3
ATOM      3  CG  ARG D 557     -25.834   0.204 -17.169  1.00 35.49     0.027 C 
BRANCH   3   4
ATOM      4  CD  ARG D 557     -24.754   0.398 -16.175  1.00 35.49     0.116 C 
BRANCH   4   5
ATOM      5  NE  ARG D 557     -24.903  -0.469 -15.036  1.00 35.49    -0.212 N 
ATOM      6  CZ  ARG D 557     -24.077  -1.430 -14.689  1.00 35.49     0.666 C 
ATOM      7  NH1 ARG D 557     -22.993  -1.719 -15.385  1.00 35.49    -0.235 N 
ATOM      8  NH2 ARG D 557     -24.358  -2.104 -13.612  1.00 35.49    -0.235 N 
ATOM      9  HH  ARG D 557     -22.787  -1.287 -16.096  1.00 35.49     0.174 HD
ATOM     10  HH  ARG D 557     -22.490  -2.355 -15.109  1.00 35.49     0.174 HD
ATOM     11  HH  ARG D 557     -25.061  -1.890 -13.178  1.00 35.49     0.174 HD
ATOM     12  HH  ARG D 557     -23.847  -2.729 -13.354  1.00 35.49     0.174 HD
ATOM     13  HE  ARG D 557     -25.613  -0.400 -14.572  1.00 35.49     0.178 HD
ENDBRANCH   4   5
ENDBRANCH   3   4
ENDBRANCH   2   3
ENDBRANCH   1   2
END_RES ARG D 557
BEGIN_RES GLU D 570
REMARK  3 active torsions:
REMARK  status: ('A' for Active; 'I' for Inactive)
REMARK    5  A    between atoms: CA   and  CB  
REMARK    6  A    between atoms: CB   and  CG  
REMARK    7  A    between atoms: CG   and  CD  
ROOT
ATOM     14  CA  GLU D 570     -18.033  -6.348 -13.375  1.00 32.92     0.160 C 
ENDROOT
BRANCH  14  15
ATOM     15  CB  GLU D 570     -19.500  -6.345 -13.794  1.00 32.92     0.043 C 
BRANCH  15  16
ATOM     16  CG  GLU D 570     -20.088  -7.635 -14.238  1.00 32.92     0.100 C 
BRANCH  16  17
ATOM     17  CD  GLU D 570     -20.562  -7.605 -15.672  1.00 32.92     0.185 C 
ATOM     18  OE1 GLU D 570     -20.667  -6.507 -16.251  1.00 32.92    -0.647 OA
ATOM     19  OE2 GLU D 570     -20.847  -8.689 -16.217  1.00 32.92    -0.647 OA
ENDBRANCH  16  17
ENDBRANCH  15  16
ENDBRANCH  14  15
END_RES GLU D 570
ENDMDL
MODEL 5
REMARK VINA RESULT:      -6.7      1.877      5.603
REMARK  12 active torsions:
REMARK  status: ('A' for Active; 'I' for Inactive)
REMARK    1  A    between atoms: C_3  and  N_17 
REMARK    2  A    between atoms: C_4  and  N_14 
REMARK    3  A    between atoms: C_6  and  N_7 
REMARK    4  A    between atoms: N_7  and  C_8 
REMARK    5  A    between atoms: N_7  and  C_11 
REMARK    6  A    between atoms: C_8  and  C_9 
REMARK    7  A    between atoms: C_9  and  O_10 
REMARK    8  A    between atoms: C_11  and  C_12 
REMARK    9  A    between atoms: C_12  and  O_13 
REMARK   10  A    between atoms: N_17  and  C_18 
REMARK   11  A    between atoms: C_18  and  C_19 
REMARK   12  A    between atoms: C_19  and  O_20 
ROOT
HETATM    1  C   UNL     1     -23.752  -6.128 -14.227  1.00  0.00     0.025 A 
HETATM    2  C   UNL     1     -23.115  -5.329 -13.265  1.00  0.00     0.028 A 
HETATM    3  C   UNL     1     -23.315  -3.943 -13.195  1.00  0.00     0.041 A 
HETATM    4  C   UNL     1     -24.227  -3.410 -14.140  1.00  0.00     0.125 A 
HETATM    5  C   UNL     1     -24.863  -4.223 -15.117  1.00  0.00     0.061 A 
HETATM    6  C   UNL     1     -24.651  -5.603 -15.161  1.00  0.00     0.013 A 
ENDROOT
BRANCH   6   7
HETATM    7  N   UNL     1     -25.307  -6.484 -16.050  1.00  0.00    -0.279 NA
BRANCH   7   8
HETATM    8  C   UNL     1     -26.608  -7.102 -15.669  1.00  0.00     0.121 C 
BRANCH   8   9
HETATM    9  C   UNL     1     -27.824  -6.431 -16.321  1.00  0.00     0.179 C 
BRANCH   9  10
HETATM   10  O   UNL     1     -28.200  -5.236 -15.641  1.00  0.00    -0.400 OA
HETATM   11  H   UNL     1     -27.840  -4.504 -16.171  1.00  0.00     0.209 HD
ENDBRANCH   9  10
ENDBRANCH   8   9
ENDBRANCH   7   8
BRANCH   7  12
HETATM   12  C   UNL     1     -24.349  -7.500 -16.607  1.00  0.00     0.121 C 
BRANCH  12  13
HETATM   13  C   UNL     1     -24.052  -7.214 -18.083  1.00  0.00     0.179 C 
BRANCH  13  14
HETATM   14  O   UNL     1     -22.647  -7.249 -18.331  1.00  0.00    -0.400 OA
HETATM   15  H   UNL     1     -22.457  -6.396 -18.764  1.00  0.00     0.209 HD
ENDBRANCH  13  14
ENDBRANCH  12  13
ENDBRANCH   7  12
ENDBRANCH   6   7
BRANCH   4  16
HETATM   16  N   UNL     1     -24.548  -1.971 -14.155  1.00  0.00    -0.114 N 
HETATM   17  O   UNL     1     -23.630  -1.155 -13.971  1.00  0.00    -0.532 OA
HETATM   18  O   UNL     1     -25.726  -1.646 -14.368  1.00  0.00    -0.532 OA
ENDBRANCH   4  16
BRANCH   3  19
HETATM   19  N   UNL     1     -22.769  -3.190 -12.136  1.00  0.00    -0.289 NA
HETATM   20  H   UNL     1     -21.781  -2.965 -12.324  1.00  0.00     0.127 HD
BRANCH  19  21
HETATM   21  C   UNL     1     -22.975  -3.620 -10.745  1.00  0.00     0.118 C 
BRANCH  21  22
HETATM   22  C   UNL     1     -24.438  -3.375 -10.342  1.00  0.00     0.178 C 
BRANCH  22  23
HETATM   23  O   UNL     1     -24.570  -3.359  -8.922  1.00  0.00    -0.400 OA
HETATM   24  H   UNL     1     -24.970  -2.495  -8.701  1.00  0.00     0.209 HD
ENDBRANCH  22  23
ENDBRANCH  21  22
ENDBRANCH  19  21
ENDBRANCH   3  19
TORSDOF 12
BEGIN_RES ARG D 557
REMARK  4 active torsions:
REMARK  status: ('A' for Active; 'I' for Inactive)
REMARK    1  A    between atoms: CA   and  CB  
REMARK    2  A    between atoms: CB   and  CG  
REMARK    3  A    between atoms: CG   and  CD  
REMARK    4  A    between atoms: CD   and  NE  
REMARK       I    between atoms: NE   and  CZ  
REMARK       I    between atoms: CZ   and  NH1 
REMARK       I    between atoms: CZ   and  NH2 
ROOT
ATOM      1  CA  ARG D 557     -26.217   2.705 -17.014  1.00 35.49     0.159 C 
ENDROOT
BRANCH   1   2
ATOM      2  CB  ARG D 557     -26.789   1.319 -17.183  1.00 35.49     0.034 C 
BRANCH   2   3
ATOM      3  CG  ARG D 557     -28.235   1.225 -17.419  1.00 35.49     0.027 C 
BRANCH   3   4
ATOM      4  CD  ARG D 557     -28.900   0.289 -16.484  1.00 35.49     0.116 C 
BRANCH   4   5
ATOM      5  NE  ARG D 557     -29.325  -0.920 -17.138  1.00 35.49    -0.212 N 
ATOM      6  CZ  ARG D 557     -28.725  -2.087 -17.061  1.00 35.49     0.666 C 
ATOM      7  NH1 ARG D 557     -27.621  -2.272 -16.361  1.00 35.49    -0.235 N 
ATOM      8  NH2 ARG D 557     -29.264  -3.082 -17.704  1.00 35.49    -0.235 N 
ATOM      9  HH  ARG D 557     -27.251  -1.631 -15.929  1.00 35.49     0.174 HD
ATOM     10  HH  ARG D 557     -27.276  -3.056 -16.345  1.00 35.49     0.174 HD
ATOM     11  HH  ARG D 557     -29.980  -2.935 -18.142  1.00 35.49     0.174 HD
ATOM     12  HH  ARG D 557     -28.907  -3.851 -17.675  1.00 35.49     0.174 HD
ATOM     13  HE  ARG D 557     -29.988  -0.875 -17.669  1.00 35.49     0.178 HD
ENDBRANCH   4   5
ENDBRANCH   3   4
ENDBRANCH   2   3
ENDBRANCH   1   2
END_RES ARG D 557
BEGIN_RES GLU D 570
REMARK  3 active torsions:
REMARK  status: ('A' for Active; 'I' for Inactive)
REMARK    5  A    between atoms: CA   and  CB  
REMARK    6  A    between atoms: CB   and  CG  
REMARK    7  A    between atoms: CG   and  CD  
ROOT
ATOM     14  CA  GLU D 570     -18.033  -6.348 -13.375  1.00 32.92     0.160 C 
ENDROOT
BRANCH  14  15
ATOM     15  CB  GLU D 570     -19.500  -6.345 -13.794  1.00 32.92     0.043 C 
BRANCH  15  16
ATOM     16  CG  GLU D 570     -20.094  -7.640 -14.217  1.00 32.92     0.100 C 
BRANCH  16  17
ATOM     17  CD  GLU D 570     -20.671  -7.596 -15.612  1.00 32.92     0.185 C 
ATOM     18  OE1 GLU D 570     -21.024  -8.661 -16.155  1.00 32.92    -0.647 OA
ATOM     19  OE2 GLU D 570     -20.754  -6.487 -16.176  1.00 32.92    -0.647 OA
ENDBRANCH  16  17
ENDBRANCH  15  16
ENDBRANCH  14  15
END_RES GLU D 570
ENDMDL
MODEL 6
REMARK VINA RESULT:      -6.1      3.559      6.161
REMARK  12 active torsions:
REMARK  status: ('A' for Active; 'I' for Inactive)
REMARK    1  A    between atoms: C_3  and  N_17 
REMARK    2  A    between atoms: C_4  and  N_14 
REMARK    3  A    between atoms: C_6  and  N_7 
REMARK    4  A    between atoms: N_7  and  C_8 
REMARK    5  A    between atoms: N_7  and  C_11 
REMARK    6  A    between atoms: C_8  and  C_9 
REMARK    7  A    between atoms: C_9  and  O_10 
REMARK    8  A    between atoms: C_11  and  C_12 
REMARK    9  A    between atoms: C_12  and  O_13 
REMARK   10  A    between atoms: N_17  and  C_18 
REMARK   11  A    between atoms: C_18  and  C_19 
REMARK   12  A    between atoms: C_19  and  O_20 
ROOT
HETATM    1  C   UNL     1     -27.051  -7.212 -15.744  1.00  0.00     0.025 A 
HETATM    2  C   UNL     1     -28.454  -7.165 -15.765  1.00  0.00     0.028 A 
HETATM    3  C   UNL     1     -29.155  -6.065 -16.280  1.00  0.00     0.041 A 
HETATM    4  C   UNL     1     -28.353  -5.022 -16.804  1.00  0.00     0.125 A 
HETATM    5  C   UNL     1     -26.933  -5.073 -16.773  1.00  0.00     0.061 A 
HETATM    6  C   UNL     1     -26.259  -6.183 -16.260  1.00  0.00     0.013 A 
ENDROOT
BRANCH   6   7
HETATM    7  N   UNL     1     -24.854  -6.339 -16.268  1.00  0.00    -0.279 NA
BRANCH   7   8
HETATM    8  C   UNL     1     -24.207  -7.248 -17.255  1.00  0.00     0.121 C 
BRANCH   8   9
HETATM    9  C   UNL     1     -24.508  -6.888 -18.715  1.00  0.00     0.179 C 
BRANCH   9  10
HETATM   10  O   UNL     1     -24.241  -7.976 -19.597  1.00  0.00    -0.400 OA
HETATM   11  H   UNL     1     -24.590  -8.769 -19.153  1.00  0.00     0.209 HD
ENDBRANCH   9  10
ENDBRANCH   8   9
ENDBRANCH   7   8
BRANCH   7  12
HETATM   12  C   UNL     1     -24.328  -6.560 -14.877  1.00  0.00     0.121 C 
BRANCH  12  13
HETATM   13  C   UNL     1     -23.349  -5.448 -14.483  1.00  0.00     0.179 C 
BRANCH  13  14
HETATM   14  O   UNL     1     -23.604  -4.999 -13.154  1.00  0.00    -0.400 OA
HETATM   15  H   UNL     1     -23.513  -5.801 -12.607  1.00  0.00     0.209 HD
ENDBRANCH  13  14
ENDBRANCH  12  13
ENDBRANCH   7  12
ENDBRANCH   6   7
BRANCH   4  16
HETATM   16  N   UNL     1     -28.967  -3.822 -17.402  1.00  0.00    -0.114 N 
HETATM   17  O   UNL     1     -29.899  -3.970 -18.208  1.00  0.00    -0.532 OA
HETATM   18  O   UNL     1     -28.527  -2.715 -17.052  1.00  0.00    -0.532 OA
ENDBRANCH   4  16
BRANCH   3  19
HETATM   19  N   UNL     1     -30.558  -6.104 -16.411  1.00  0.00    -0.289 NA
HETATM   20  H   UNL     1     -31.004  -6.263 -15.495  1.00  0.00     0.127 HD
BRANCH  19  21
HETATM   21  C   UNL     1     -31.176  -6.922 -17.466  1.00  0.00     0.118 C 
BRANCH  21  22
HETATM   22  C   UNL     1     -32.704  -6.785 -17.394  1.00  0.00     0.178 C 
BRANCH  22  23
HETATM   23  O   UNL     1     -33.069  -5.512 -16.863  1.00  0.00    -0.400 OA
HETATM   24  H   UNL     1     -33.583  -5.067 -17.564  1.00  0.00     0.209 HD
ENDBRANCH  22  23
ENDBRANCH  21  22
ENDBRANCH  19  21
ENDBRANCH   3  19
TORSDOF 12
BEGIN_RES ARG D 557
REMARK  4 active torsions:
REMARK  status: ('A' for Active; 'I' for Inactive)
REMARK    1  A    between atoms: CA   and  CB  
REMARK    2  A    between atoms: CB   and  CG  
REMARK    3  A    between atoms: CG   and  CD  
REMARK    4  A    between atoms: CD   and  NE  
REMARK       I    between atoms: NE   and  CZ  
REMARK       I    between atoms: CZ   and  NH1 
REMARK       I    between atoms: CZ   and  NH2 
ROOT
ATOM      1  CA  ARG D 557     -26.217   2.705 -17.014  1.00 35.49     0.159 C 
ENDROOT
BRANCH   1   2
ATOM      2  CB  ARG D 557     -26.789   1.319 -17.183  1.00 35.49     0.034 C 
BRANCH   2   3
ATOM      3  CG  ARG D 557     -25.865   0.195 -16.992  1.00 35.49     0.027 C 
BRANCH   3   4
ATOM      4  CD  ARG D 557     -26.218  -0.632 -15.815  1.00 35.49     0.116 C 
BRANCH   4   5
ATOM      5  NE  ARG D 557     -25.084  -0.873 -14.961  1.00 35.49    -0.212 N 
ATOM      6  CZ  ARG D 557     -24.900  -1.936 -14.211  1.00 35.49     0.666 C 
ATOM      7  NH1 ARG D 557     -25.775  -2.922 -14.151  1.00 35.49    -0.235 N 
ATOM      8  NH2 ARG D 557     -23.801  -1.996 -13.516  1.00 35.49    -0.235 N 
ATOM      9  HH  ARG D 557     -26.504  -2.904 -14.602  1.00 35.49     0.174 HD
ATOM     10  HH  ARG D 557     -25.600  -3.592 -13.646  1.00 35.49     0.174 HD
ATOM     11  HH  ARG D 557     -23.251  -1.348 -13.580  1.00 35.49     0.174 HD
ATOM     12  HH  ARG D 557     -23.645  -2.668 -13.023  1.00 35.49     0.174 HD
ATOM     13  HE  ARG D 557     -24.505  -0.255 -14.883  1.00 35.49     0.178 HD
ENDBRANCH   4   5
ENDBRANCH   3   4
ENDBRANCH   2   3
ENDBRANCH   1   2
END_RES ARG D 557
BEGIN_RES GLU D 570
REMARK  3 active torsions:
REMARK  status: ('A' for Active; 'I' for Inactive)
REMARK    5  A    between atoms: CA   and  CB  
REMARK    6  A    between atoms: CB   and  CG  
REMARK    7  A    between atoms: CG   and  CD  
ROOT
ATOM     14  CA  GLU D 570     -18.033  -6.348 -13.375  1.00 32.92     0.160 C 
ENDROOT
BRANCH  14  15
ATOM     15  CB  GLU D 570     -19.500  -6.345 -13.794  1.00 32.92     0.043 C 
BRANCH  15  16
ATOM     16  CG  GLU D 570     -20.092  -7.639 -14.221  1.00 32.92     0.100 C 
BRANCH  16  17
ATOM     17  CD  GLU D 570     -20.634  -7.602 -15.632  1.00 32.92     0.185 C 
ATOM     18  OE1 GLU D 570     -20.556  -6.542 -16.282  1.00 32.92    -0.647 OA
ATOM     19  OE2 GLU D 570     -21.156  -8.639 -16.085  1.00 32.92    -0.647 OA
ENDBRANCH  16  17
ENDBRANCH  15  16
ENDBRANCH  14  15
END_RES GLU D 570
ENDMDL
MODEL 7
REMARK VINA RESULT:      -6.0      3.847      6.431
REMARK  12 active torsions:
REMARK  status: ('A' for Active; 'I' for Inactive)
REMARK    1  A    between atoms: C_3  and  N_17 
REMARK    2  A    between atoms: C_4  and  N_14 
REMARK    3  A    between atoms: C_6  and  N_7 
REMARK    4  A    between atoms: N_7  and  C_8 
REMARK    5  A    between atoms: N_7  and  C_11 
REMARK    6  A    between atoms: C_8  and  C_9 
REMARK    7  A    between atoms: C_9  and  O_10 
REMARK    8  A    between atoms: C_11  and  C_12 
REMARK    9  A    between atoms: C_12  and  O_13 
REMARK   10  A    between atoms: N_17  and  C_18 
REMARK   11  A    between atoms: C_18  and  C_19 
REMARK   12  A    between atoms: C_19  and  O_20 
ROOT
HETATM    1  C   UNL     1     -22.766  -6.078  -5.436  1.00  0.00     0.025 A 
HETATM    2  C   UNL     1     -23.097  -5.140  -6.426  1.00  0.00     0.028 A 
HETATM    3  C   UNL     1     -22.145  -4.627  -7.317  1.00  0.00     0.041 A 
HETATM    4  C   UNL     1     -20.833  -5.143  -7.171  1.00  0.00     0.125 A 
HETATM    5  C   UNL     1     -20.502  -6.087  -6.162  1.00  0.00     0.061 A 
HETATM    6  C   UNL     1     -21.472  -6.586  -5.290  1.00  0.00     0.013 A 
ENDROOT
BRANCH   6   7
HETATM    7  N   UNL     1     -21.235  -7.583  -4.316  1.00  0.00    -0.279 NA
BRANCH   7   8
HETATM    8  C   UNL     1     -20.819  -7.201  -2.938  1.00  0.00     0.121 C 
BRANCH   8   9
HETATM    9  C   UNL     1     -21.987  -7.091  -1.949  1.00  0.00     0.179 C 
BRANCH   9  10
HETATM   10  O   UNL     1     -22.524  -5.771  -1.906  1.00  0.00    -0.400 OA
HETATM   11  H   UNL     1     -21.913  -5.254  -1.353  1.00  0.00     0.209 HD
ENDBRANCH   9  10
ENDBRANCH   8   9
ENDBRANCH   7   8
BRANCH   7  12
HETATM   12  C   UNL     1     -20.377  -8.686  -4.872  1.00  0.00     0.121 C 
BRANCH  12  13
HETATM   13  C   UNL     1     -19.432  -9.234  -3.796  1.00  0.00     0.179 C 
BRANCH  13  14
HETATM   14  O   UNL     1     -18.100  -9.331  -4.297  1.00  0.00    -0.400 OA
HETATM   15  H   UNL     1     -17.537  -9.150  -3.522  1.00  0.00     0.209 HD
ENDBRANCH  13  14
ENDBRANCH  12  13
ENDBRANCH   7  12
ENDBRANCH   6   7
BRANCH   4  16
HETATM   16  N   UNL     1     -19.744  -4.708  -8.064  1.00  0.00    -0.114 N 
HETATM   17  O   UNL     1     -19.929  -4.750  -9.291  1.00  0.00    -0.532 OA
HETATM   18  O   UNL     1     -18.695  -4.303  -7.539  1.00  0.00    -0.532 OA
ENDBRANCH   4  16
BRANCH   3  19
HETATM   19  N   UNL     1     -22.533  -3.791  -8.384  1.00  0.00    -0.289 NA
HETATM   20  H   UNL     1     -22.879  -2.887  -8.029  1.00  0.00     0.127 HD
BRANCH  19  21
HETATM   21  C   UNL     1     -23.390  -4.318  -9.456  1.00  0.00     0.118 C 
BRANCH  21  22
HETATM   22  C   UNL     1     -24.576  -3.367  -9.681  1.00  0.00     0.178 C 
BRANCH  22  23
HETATM   23  O   UNL     1     -24.873  -3.256 -11.072  1.00  0.00    -0.400 OA
HETATM   24  H   UNL     1     -24.318  -3.925 -11.518  1.00  0.00     0.209 HD
ENDBRANCH  22  23
ENDBRANCH  21  22
ENDBRANCH  19  21
ENDBRANCH   3  19
TORSDOF 12
BEGIN_RES ARG D 557
REMARK  4 active torsions:
REMARK  status: ('A' for Active; 'I' for Inactive)
REMARK    1  A    between atoms: CA   and  CB  
REMARK    2  A    between atoms: CB   and  CG  
REMARK    3  A    between atoms: CG   and  CD  
REMARK    4  A    between atoms: CD   and  NE  
REMARK       I    between atoms: NE   and  CZ  
REMARK       I    between atoms: CZ   and  NH1 
REMARK       I    between atoms: CZ   and  NH2 
ROOT
ATOM      1  CA  ARG D 557     -26.217   2.705 -17.014  1.00 35.49     0.159 C 
ENDROOT
BRANCH   1   2
ATOM      2  CB  ARG D 557     -26.789   1.319 -17.183  1.00 35.49     0.034 C 
BRANCH   2   3
ATOM      3  CG  ARG D 557     -25.861   0.195 -17.008  1.00 35.49     0.027 C 
BRANCH   3   4
ATOM      4  CD  ARG D 557     -26.256  -0.695 -15.893  1.00 35.49     0.116 C 
BRANCH   4   5
ATOM      5  NE  ARG D 557     -25.188  -0.888 -14.948  1.00 35.49    -0.212 N 
ATOM      6  CZ  ARG D 557     -24.877  -2.023 -14.362  1.00 35.49     0.666 C 
ATOM      7  NH1 ARG D 557     -25.547  -3.140 -14.578  1.00 35.49    -0.235 N 
ATOM      8  NH2 ARG D 557     -23.861  -2.020 -13.548  1.00 35.49    -0.235 N 
ATOM      9  HH  ARG D 557     -26.217  -3.166 -15.112  1.00 35.49     0.174 HD
ATOM     10  HH  ARG D 557     -25.296  -3.850 -14.170  1.00 35.49     0.174 HD
ATOM     11  HH  ARG D 557     -23.443  -1.285 -13.434  1.00 35.49     0.174 HD
ATOM     12  HH  ARG D 557     -23.628  -2.733 -13.155  1.00 35.49     0.174 HD
ATOM     13  HE  ARG D 557     -24.749  -0.205 -14.696  1.00 35.49     0.178 HD
ENDBRANCH   4   5
ENDBRANCH   3   4
ENDBRANCH   2   3
ENDBRANCH   1   2
END_RES ARG D 557
BEGIN_RES GLU D 570
REMARK  3 active torsions:
REMARK  status: ('A' for Active; 'I' for Inactive)
REMARK    5  A    between atoms: CA   and  CB  
REMARK    6  A    between atoms: CB   and  CG  
REMARK    7  A    between atoms: CG   and  CD  
ROOT
ATOM     14  CA  GLU D 570     -18.033  -6.348 -13.375  1.00 32.92     0.160 C 
ENDROOT
BRANCH  14  15
ATOM     15  CB  GLU D 570     -19.500  -6.345 -13.794  1.00 32.92     0.043 C 
BRANCH  15  16
ATOM     16  CG  GLU D 570     -20.460  -5.624 -12.919  1.00 32.92     0.100 C 
BRANCH  16  17
ATOM     17  CD  GLU D 570     -21.676  -5.125 -13.665  1.00 32.92     0.185 C 
ATOM     18  OE1 GLU D 570     -21.648  -5.082 -14.909  1.00 32.92    -0.647 OA
ATOM     19  OE2 GLU D 570     -22.662  -4.757 -12.995  1.00 32.92    -0.647 OA
ENDBRANCH  16  17
ENDBRANCH  15  16
ENDBRANCH  14  15
END_RES GLU D 570
ENDMDL
MODEL 8
REMARK VINA RESULT:      -5.7      4.001      6.270
REMARK  12 active torsions:
REMARK  status: ('A' for Active; 'I' for Inactive)
REMARK    1  A    between atoms: C_3  and  N_17 
REMARK    2  A    between atoms: C_4  and  N_14 
REMARK    3  A    between atoms: C_6  and  N_7 
REMARK    4  A    between atoms: N_7  and  C_8 
REMARK    5  A    between atoms: N_7  and  C_11 
REMARK    6  A    between atoms: C_8  and  C_9 
REMARK    7  A    between atoms: C_9  and  O_10 
REMARK    8  A    between atoms: C_11  and  C_12 
REMARK    9  A    between atoms: C_12  and  O_13 
REMARK   10  A    between atoms: N_17  and  C_18 
REMARK   11  A    between atoms: C_18  and  C_19 
REMARK   12  A    between atoms: C_19  and  O_20 
ROOT
HETATM    1  C   UNL     1     -22.226  -6.332  -5.312  1.00  0.00     0.025 A 
HETATM    2  C   UNL     1     -22.756  -5.369  -6.184  1.00  0.00     0.028 A 
HETATM    3  C   UNL     1     -21.974  -4.734  -7.160  1.00  0.00     0.041 A 
HETATM    4  C   UNL     1     -20.622  -5.155  -7.225  1.00  0.00     0.125 A 
HETATM    5  C   UNL     1     -20.090  -6.125  -6.333  1.00  0.00     0.061 A 
HETATM    6  C   UNL     1     -20.893  -6.746  -5.374  1.00  0.00     0.013 A 
ENDROOT
BRANCH   6   7
HETATM    7  N   UNL     1     -20.454  -7.774  -4.509  1.00  0.00    -0.279 NA
BRANCH   7   8
HETATM    8  C   UNL     1     -20.080  -9.107  -5.058  1.00  0.00     0.121 C 
BRANCH   8   9
HETATM    9  C   UNL     1     -18.568  -9.369  -5.066  1.00  0.00     0.179 C 
BRANCH   9  10
HETATM   10  O   UNL     1     -18.065  -9.537  -6.389  1.00  0.00    -0.400 OA
HETATM   11  H   UNL     1     -17.177  -9.921  -6.289  1.00  0.00     0.209 HD
ENDBRANCH   9  10
ENDBRANCH   8   9
ENDBRANCH   7   8
BRANCH   7  12
HETATM   12  C   UNL     1     -21.360  -7.897  -3.315  1.00  0.00     0.121 C 
BRANCH  12  13
HETATM   13  C   UNL     1     -20.544  -7.959  -2.019  1.00  0.00     0.179 C 
BRANCH  13  14
HETATM   14  O   UNL     1     -20.836  -9.152  -1.295  1.00  0.00    -0.400 OA
HETATM   15  H   UNL     1     -21.076  -8.841  -0.403  1.00  0.00     0.209 HD
ENDBRANCH  13  14
ENDBRANCH  12  13
ENDBRANCH   7  12
ENDBRANCH   6   7
BRANCH   4  16
HETATM   16  N   UNL     1     -19.700  -4.587  -8.225  1.00  0.00    -0.114 N 
HETATM   17  O   UNL     1     -20.003  -4.669  -9.427  1.00  0.00    -0.532 OA
HETATM   18  O   UNL     1     -18.667  -4.038  -7.811  1.00  0.00    -0.532 OA
ENDBRANCH   4  16
BRANCH   3  19
HETATM   19  N   UNL     1     -22.563  -3.874  -8.107  1.00  0.00    -0.289 NA
HETATM   20  H   UNL     1     -22.978  -3.052  -7.642  1.00  0.00     0.127 HD
BRANCH  19  21
HETATM   21  C   UNL     1     -23.454  -4.419  -9.143  1.00  0.00     0.118 C 
BRANCH  21  22
HETATM   22  C   UNL     1     -24.501  -3.363  -9.529  1.00  0.00     0.178 C 
BRANCH  22  23
HETATM   23  O   UNL     1     -24.447  -3.093 -10.929  1.00  0.00    -0.400 OA
HETATM   24  H   UNL     1     -23.665  -2.524 -11.062  1.00  0.00     0.209 HD
ENDBRANCH  22  23
ENDBRANCH  21  22
ENDBRANCH  19  21
ENDBRANCH   3  19
TORSDOF 12
BEGIN_RES ARG D 557
REMARK  4 active torsions:
REMARK  status: ('A' for Active; 'I' for Inactive)
REMARK    1  A    between atoms: CA   and  CB  
REMARK    2  A    between atoms: CB   and  CG  
REMARK    3  A    between atoms: CG   and  CD  
REMARK    4  A    between atoms: CD   and  NE  
REMARK       I    between atoms: NE   and  CZ  
REMARK       I    between atoms: CZ   and  NH1 
REMARK       I    between atoms: CZ   and  NH2 
ROOT
ATOM      1  CA  ARG D 557     -26.217   2.705 -17.014  1.00 35.49     0.159 C 
ENDROOT
BRANCH   1   2
ATOM      2  CB  ARG D 557     -26.789   1.319 -17.183  1.00 35.49     0.034 C 
BRANCH   2   3
ATOM      3  CG  ARG D 557     -25.860   0.195 -17.012  1.00 35.49     0.027 C 
BRANCH   3   4
ATOM      4  CD  ARG D 557     -26.253  -0.697 -15.898  1.00 35.49     0.116 C 
BRANCH   4   5
ATOM      5  NE  ARG D 557     -25.181  -0.897 -14.959  1.00 35.49    -0.212 N 
ATOM      6  CZ  ARG D 557     -24.879  -2.031 -14.368  1.00 35.49     0.666 C 
ATOM      7  NH1 ARG D 557     -25.563  -3.142 -14.572  1.00 35.49    -0.235 N 
ATOM      8  NH2 ARG D 557     -23.858  -2.035 -13.560  1.00 35.49    -0.235 N 
ATOM      9  HH  ARG D 557     -26.237  -3.163 -15.101  1.00 35.49     0.174 HD
ATOM     10  HH  ARG D 557     -25.318  -3.852 -14.161  1.00 35.49     0.174 HD
ATOM     11  HH  ARG D 557     -23.430  -1.305 -13.453  1.00 35.49     0.174 HD
ATOM     12  HH  ARG D 557     -23.630  -2.749 -13.164  1.00 35.49     0.174 HD
ATOM     13  HE  ARG D 557     -24.733  -0.217 -14.714  1.00 35.49     0.178 HD
ENDBRANCH   4   5
ENDBRANCH   3   4
ENDBRANCH   2   3
ENDBRANCH   1   2
END_RES ARG D 557
BEGIN_RES GLU D 570
REMARK  3 active torsions:
REMARK  status: ('A' for Active; 'I' for Inactive)
REMARK    5  A    between atoms: CA   and  CB  
REMARK    6  A    between atoms: CB   and  CG  
REMARK    7  A    between atoms: CG   and  CD  
ROOT
ATOM     14  CA  GLU D 570     -18.033  -6.348 -13.375  1.00 32.92     0.160 C 
ENDROOT
BRANCH  14  15
ATOM     15  CB  GLU D 570     -19.500  -6.345 -13.794  1.00 32.92     0.043 C 
BRANCH  15  16
ATOM     16  CG  GLU D 570     -20.461  -5.627 -12.917  1.00 32.92     0.100 C 
BRANCH  16  17
ATOM     17  CD  GLU D 570     -21.660  -5.096 -13.668  1.00 32.92     0.185 C 
ATOM     18  OE1 GLU D 570     -21.613  -5.024 -14.911  1.00 32.92    -0.647 OA
ATOM     19  OE2 GLU D 570     -22.651  -4.733 -13.004  1.00 32.92    -0.647 OA
ENDBRANCH  16  17
ENDBRANCH  15  16
ENDBRANCH  14  15
END_RES GLU D 570
ENDMDL
MODEL 9
REMARK VINA RESULT:      -5.7      6.308      9.335
REMARK  12 active torsions:
REMARK  status: ('A' for Active; 'I' for Inactive)
REMARK    1  A    between atoms: C_3  and  N_17 
REMARK    2  A    between atoms: C_4  and  N_14 
REMARK    3  A    between atoms: C_6  and  N_7 
REMARK    4  A    between atoms: N_7  and  C_8 
REMARK    5  A    between atoms: N_7  and  C_11 
REMARK    6  A    between atoms: C_8  and  C_9 
REMARK    7  A    between atoms: C_9  and  O_10 
REMARK    8  A    between atoms: C_11  and  C_12 
REMARK    9  A    between atoms: C_12  and  O_13 
REMARK   10  A    between atoms: N_17  and  C_18 
REMARK   11  A    between atoms: C_18  and  C_19 
REMARK   12  A    between atoms: C_19  and  O_20 
ROOT
HETATM    1  C   UNL     1     -22.050  -6.996  -1.551  1.00  0.00     0.025 A 
HETATM    2  C   UNL     1     -21.911  -6.179  -2.683  1.00  0.00     0.028 A 
HETATM    3  C   UNL     1     -21.398  -6.662  -3.895  1.00  0.00     0.041 A 
HETATM    4  C   UNL     1     -21.059  -8.038  -3.907  1.00  0.00     0.125 A 
HETATM    5  C   UNL     1     -21.195  -8.860  -2.756  1.00  0.00     0.061 A 
HETATM    6  C   UNL     1     -21.715  -8.353  -1.562  1.00  0.00     0.013 A 
ENDROOT
BRANCH   6   7
HETATM    7  N   UNL     1     -21.953  -9.126  -0.403  1.00  0.00    -0.279 NA
BRANCH   7   8
HETATM    8  C   UNL     1     -23.335  -9.565  -0.065  1.00  0.00     0.121 C 
BRANCH   8   9
HETATM    9  C   UNL     1     -23.694 -10.952  -0.616  1.00  0.00     0.179 C 
BRANCH   9  10
HETATM   10  O   UNL     1     -22.574 -11.833  -0.607  1.00  0.00    -0.400 OA
HETATM   11  H   UNL     1     -22.797 -12.539   0.023  1.00  0.00     0.209 HD
ENDBRANCH   9  10
ENDBRANCH   8   9
ENDBRANCH   7   8
BRANCH   7  12
HETATM   12  C   UNL     1     -21.246  -8.542   0.789  1.00  0.00     0.121 C 
BRANCH  12  13
HETATM   13  C   UNL     1     -20.543  -9.640   1.595  1.00  0.00     0.179 C 
BRANCH  13  14
HETATM   14  O   UNL     1     -20.226 -10.753   0.762  1.00  0.00    -0.400 OA
HETATM   15  H   UNL     1     -19.442 -10.464   0.260  1.00  0.00     0.209 HD
ENDBRANCH  13  14
ENDBRANCH  12  13
ENDBRANCH   7  12
ENDBRANCH   6   7
BRANCH   4  16
HETATM   16  N   UNL     1     -20.536  -8.678  -5.128  1.00  0.00    -0.114 N 
HETATM   17  O   UNL     1     -19.424  -8.327  -5.554  1.00  0.00    -0.532 OA
HETATM   18  O   UNL     1     -21.233  -9.555  -5.662  1.00  0.00    -0.532 OA
ENDBRANCH   4  16
BRANCH   3  19
HETATM   19  N   UNL     1     -21.397  -5.854  -5.050  1.00  0.00    -0.289 NA
HETATM   20  H   UNL     1     -21.640  -6.412  -5.882  1.00  0.00     0.127 HD
BRANCH  19  21
HETATM   21  C   UNL     1     -20.269  -4.947  -5.312  1.00  0.00     0.118 C 
BRANCH  21  22
HETATM   22  C   UNL     1     -20.004  -4.881  -6.824  1.00  0.00     0.178 C 
BRANCH  22  23
HETATM   23  O   UNL     1     -19.918  -6.193  -7.376  1.00  0.00    -0.400 OA
HETATM   24  H   UNL     1     -20.006  -6.807  -6.621  1.00  0.00     0.209 HD
ENDBRANCH  22  23
ENDBRANCH  21  22
ENDBRANCH  19  21
ENDBRANCH   3  19
TORSDOF 12
BEGIN_RES ARG D 557
REMARK  4 active torsions:
REMARK  status: ('A' for Active; 'I' for Inactive)
REMARK    1  A    between atoms: CA   and  CB  
REMARK    2  A    between atoms: CB   and  CG  
REMARK    3  A    between atoms: CG   and  CD  
REMARK    4  A    between atoms: CD   and  NE  
REMARK       I    between atoms: NE   and  CZ  
REMARK       I    between atoms: CZ   and  NH1 
REMARK       I    between atoms: CZ   and  NH2 
ROOT
ATOM      1  CA  ARG D 557     -26.217   2.705 -17.014  1.00 35.49     0.159 C 
ENDROOT
BRANCH   1   2
ATOM      2  CB  ARG D 557     -26.789   1.319 -17.183  1.00 35.49     0.034 C 
BRANCH   2   3
ATOM      3  CG  ARG D 557     -25.864   0.195 -16.993  1.00 35.49     0.027 C 
BRANCH   3   4
ATOM      4  CD  ARG D 557     -26.293  -0.710 -15.902  1.00 35.49     0.116 C 
BRANCH   4   5
ATOM      5  NE  ARG D 557     -25.246  -0.933 -14.940  1.00 35.49    -0.212 N 
ATOM      6  CZ  ARG D 557     -24.971  -2.078 -14.356  1.00 35.49     0.666 C 
ATOM      7  NH1 ARG D 557     -25.662  -3.178 -14.591  1.00 35.49    -0.235 N 
ATOM      8  NH2 ARG D 557     -23.971  -2.102 -13.523  1.00 35.49    -0.235 N 
ATOM      9  HH  ARG D 557     -26.323  -3.186 -15.136  1.00 35.49     0.174 HD
ATOM     10  HH  ARG D 557     -25.435  -3.896 -14.183  1.00 35.49     0.174 HD
ATOM     11  HH  ARG D 557     -23.538  -1.378 -13.397  1.00 35.49     0.174 HD
ATOM     12  HH  ARG D 557     -23.761  -2.823 -13.130  1.00 35.49     0.174 HD
ATOM     13  HE  ARG D 557     -24.797  -0.261 -14.675  1.00 35.49     0.178 HD
ENDBRANCH   4   5
ENDBRANCH   3   4
ENDBRANCH   2   3
ENDBRANCH   1   2
END_RES ARG D 557
BEGIN_RES GLU D 570
REMARK  3 active torsions:
REMARK  status: ('A' for Active; 'I' for Inactive)
REMARK    5  A    between atoms: CA   and  CB  
REMARK    6  A    between atoms: CB   and  CG  
REMARK    7  A    between atoms: CG   and  CD  
ROOT
ATOM     14  CA  GLU D 570     -18.033  -6.348 -13.375  1.00 32.92     0.160 C 
ENDROOT
BRANCH  14  15
ATOM     15  CB  GLU D 570     -19.500  -6.345 -13.794  1.00 32.92     0.043 C 
BRANCH  15  16
ATOM     16  CG  GLU D 570     -20.448  -5.558 -12.963  1.00 32.92     0.100 C 
BRANCH  16  17
ATOM     17  CD  GLU D 570     -21.687  -5.139 -13.720  1.00 32.92     0.185 C 
ATOM     18  OE1 GLU D 570     -22.737  -4.921 -13.086  1.00 32.92    -0.647 OA
ATOM     19  OE2 GLU D 570     -21.611  -5.045 -14.960  1.00 32.92    -0.647 OA
ENDBRANCH  16  17
ENDBRANCH  15  16
ENDBRANCH  14  15
END_RES GLU D 570
ENDMDL
