MODEL 1
REMARK VINA RESULT:      -5.0      0.000      0.000
REMARK  12 active torsions:
REMARK  status: ('A' for Active; 'I' for Inactive)
REMARK    1  A    between atoms: O_2  and  C_3 
REMARK    2  A    between atoms: C_3  and  C_4 
REMARK    3  A    between atoms: C_5  and  O_30 
REMARK    4  A    between atoms: C_6  and  O_28 
REMARK    5  A    between atoms: C_7  and  O_26 
REMARK    6  A    between atoms: C_8  and  O_10 
REMARK    7  A    between atoms: O_10  and  C_11 
REMARK    8  A    between atoms: C_12  and  C_23 
REMARK    9  A    between atoms: C_14  and  O_21 
REMARK   10  A    between atoms: C_15  and  O_19 
REMARK   11  A    between atoms: C_16  and  O_17 
REMARK   12  A    between atoms: C_23  and  O_24 
ROOT
HETATM    1  O   UNL     1     -20.456  -9.833  -4.932  1.00  0.00    -0.348 OA
ENDROOT
BRANCH   1   2
HETATM    2  C   UNL     1     -19.250 -10.451  -5.454  1.00  0.00     0.292 C 
HETATM    3  C   UNL     1     -19.574 -11.628  -6.388  1.00  0.00     0.207 C 
HETATM    4  C   UNL     1     -18.327 -12.348  -6.916  1.00  0.00     0.186 C 
HETATM    5  C   UNL     1     -17.350 -12.718  -5.793  1.00  0.00     0.183 C 
HETATM    6  C   UNL     1     -17.240 -11.614  -4.701  1.00  0.00     0.180 C 
HETATM    7  O   UNL     1     -18.477 -10.960  -4.357  1.00  0.00    -0.348 OA
BRANCH   3   8
HETATM    8  O   UNL     1     -20.582 -12.534  -5.890  1.00  0.00    -0.383 OA
HETATM    9  C   UNL     1     -21.900 -12.466  -6.394  1.00  0.00     0.202 C 
ENDBRANCH   3   8
BRANCH   4  10
HETATM   10  O   UNL     1     -18.851 -13.503  -7.602  1.00  0.00    -0.385 OA
HETATM   11  C   UNL     1     -18.466 -13.708  -8.942  1.00  0.00     0.202 C 
ENDBRANCH   4  10
BRANCH   5  12
HETATM   12  O   UNL     1     -16.058 -13.012  -6.361  1.00  0.00    -0.385 OA
HETATM   13  C   UNL     1     -15.596 -14.321  -6.036  1.00  0.00     0.202 C 
ENDBRANCH   5  12
BRANCH   6  14
HETATM   14  C   UNL     1     -16.098 -10.606  -4.968  1.00  0.00     0.201 C 
BRANCH  14  15
HETATM   15  O   UNL     1     -15.918  -9.645  -3.922  1.00  0.00    -0.393 OA
HETATM   16  C   UNL     1     -15.721 -10.221  -2.636  1.00  0.00     0.201 C 
ENDBRANCH  14  15
ENDBRANCH   6  14
ENDBRANCH   1   2
BRANCH   1  17
HETATM   17  C   UNL     1     -20.454  -9.484  -3.527  1.00  0.00     0.187 C 
HETATM   18  C   UNL     1     -20.613  -7.952  -3.306  1.00  0.00     0.180 C 
HETATM   19  O   UNL     1     -20.714  -7.623  -1.924  1.00  0.00    -0.348 OA
HETATM   20  C   UNL     1     -21.862  -8.175  -1.288  1.00  0.00     0.291 C 
HETATM   21  C   UNL     1     -21.721  -9.713  -1.276  1.00  0.00     0.207 C 
HETATM   22  C   UNL     1     -21.602 -10.232  -2.753  1.00  0.00     0.186 C 
BRANCH  18  23
HETATM   23  C   UNL     1     -21.757  -7.279  -4.111  1.00  0.00     0.201 C 
BRANCH  23  24
HETATM   24  O   UNL     1     -21.613  -5.852  -4.178  1.00  0.00    -0.393 OA
HETATM   25  C   UNL     1     -20.745  -5.408  -5.214  1.00  0.00     0.201 C 
ENDBRANCH  23  24
ENDBRANCH  18  23
BRANCH  20  26
HETATM   26  O   UNL     1     -21.986  -7.614   0.013  1.00  0.00    -0.363 OA
HETATM   27  C   UNL     1     -23.227  -8.006   0.618  1.00  0.00     0.204 C 
ENDBRANCH  20  26
BRANCH  21  28
HETATM   28  O   UNL     1     -20.561 -10.054  -0.477  1.00  0.00    -0.383 OA
HETATM   29  C   UNL     1     -20.843 -10.878   0.649  1.00  0.00     0.202 C 
ENDBRANCH  21  28
BRANCH  22  30
HETATM   30  O   UNL     1     -21.395 -11.657  -2.671  1.00  0.00    -0.385 OA
HETATM   31  C   UNL     1     -22.545 -12.476  -2.615  1.00  0.00     0.202 C 
ENDBRANCH  22  30
ENDBRANCH   1  17
TORSDOF 12
BEGIN_RES ARG D 557
REMARK  4 active torsions:
REMARK  status: ('A' for Active; 'I' for Inactive)
REMARK    1  A    between atoms: CA   and  CB  
REMARK    2  A    between atoms: CB   and  CG  
REMARK    3  A    between atoms: CG   and  CD  
REMARK    4  A    between atoms: CD   and  NE  
REMARK       I    between atoms: NE   and  CZ  
REMARK       I    between atoms: CZ   and  NH1 
REMARK       I    between atoms: CZ   and  NH2 
ROOT
ATOM      1  CA  ARG D 557     -26.217   2.705 -17.014  1.00 35.49     0.159 C 
ENDROOT
BRANCH   1   2
ATOM      2  CB  ARG D 557     -26.789   1.319 -17.183  1.00 35.49     0.034 C 
BRANCH   2   3
ATOM      3  CG  ARG D 557     -25.836   0.203 -17.156  1.00 35.49     0.027 C 
BRANCH   3   4
ATOM      4  CD  ARG D 557     -24.753   0.410 -16.167  1.00 35.49     0.116 C 
BRANCH   4   5
ATOM      5  NE  ARG D 557     -24.902  -0.439 -15.014  1.00 35.49    -0.212 N 
ATOM      6  CZ  ARG D 557     -24.091  -1.412 -14.667  1.00 35.49     0.666 C 
ATOM      7  NH1 ARG D 557     -23.023  -1.733 -15.374  1.00 35.49    -0.235 N 
ATOM      8  NH2 ARG D 557     -24.370  -2.066 -13.576  1.00 35.49    -0.235 N 
ATOM      9  HH  ARG D 557     -22.820  -1.315 -16.094  1.00 35.49     0.174 HD
ATOM     10  HH  ARG D 557     -22.529  -2.375 -15.097  1.00 35.49     0.174 HD
ATOM     11  HH  ARG D 557     -25.062  -1.832 -13.135  1.00 35.49     0.174 HD
ATOM     12  HH  ARG D 557     -23.867  -2.698 -13.317  1.00 35.49     0.174 HD
ATOM     13  HE  ARG D 557     -25.604  -0.350 -14.541  1.00 35.49     0.178 HD
ENDBRANCH   4   5
ENDBRANCH   3   4
ENDBRANCH   2   3
ENDBRANCH   1   2
END_RES ARG D 557
BEGIN_RES GLU D 570
REMARK  3 active torsions:
REMARK  status: ('A' for Active; 'I' for Inactive)
REMARK    5  A    between atoms: CA   and  CB  
REMARK    6  A    between atoms: CB   and  CG  
REMARK    7  A    between atoms: CG   and  CD  
ROOT
ATOM     14  CA  GLU D 570     -18.033  -6.348 -13.375  1.00 32.92     0.160 C 
ENDROOT
BRANCH  14  15
ATOM     15  CB  GLU D 570     -19.500  -6.345 -13.794  1.00 32.92     0.043 C 
BRANCH  15  16
ATOM     16  CG  GLU D 570     -20.442  -5.533 -12.981  1.00 32.92     0.100 C 
BRANCH  16  17
ATOM     17  CD  GLU D 570     -21.738  -5.238 -13.700  1.00 32.92     0.185 C 
ATOM     18  OE1 GLU D 570     -22.302  -4.145 -13.507  1.00 32.92    -0.647 OA
ATOM     19  OE2 GLU D 570     -22.202  -6.117 -14.453  1.00 32.92    -0.647 OA
ENDBRANCH  16  17
ENDBRANCH  15  16
ENDBRANCH  14  15
END_RES GLU D 570
ENDMDL
MODEL 2
REMARK VINA RESULT:      -4.5      1.778      1.956
REMARK  12 active torsions:
REMARK  status: ('A' for Active; 'I' for Inactive)
REMARK    1  A    between atoms: O_2  and  C_3 
REMARK    2  A    between atoms: C_3  and  C_4 
REMARK    3  A    between atoms: C_5  and  O_30 
REMARK    4  A    between atoms: C_6  and  O_28 
REMARK    5  A    between atoms: C_7  and  O_26 
REMARK    6  A    between atoms: C_8  and  O_10 
REMARK    7  A    between atoms: O_10  and  C_11 
REMARK    8  A    between atoms: C_12  and  C_23 
REMARK    9  A    between atoms: C_14  and  O_21 
REMARK   10  A    between atoms: C_15  and  O_19 
REMARK   11  A    between atoms: C_16  and  O_17 
REMARK   12  A    between atoms: C_23  and  O_24 
ROOT
HETATM    1  O   UNL     1     -19.787 -10.348  -6.002  1.00  0.00    -0.348 OA
ENDROOT
BRANCH   1   2
HETATM    2  C   UNL     1     -18.593 -11.109  -6.326  1.00  0.00     0.292 C 
HETATM    3  C   UNL     1     -18.933 -12.402  -7.082  1.00  0.00     0.207 C 
HETATM    4  C   UNL     1     -17.705 -13.268  -7.393  1.00  0.00     0.186 C 
HETATM    5  C   UNL     1     -16.831 -13.503  -6.154  1.00  0.00     0.183 C 
HETATM    6  C   UNL     1     -16.720 -12.243  -5.246  1.00  0.00     0.180 C 
HETATM    7  O   UNL     1     -17.930 -11.473  -5.106  1.00  0.00    -0.348 OA
BRANCH   3   8
HETATM    8  O   UNL     1     -20.030 -13.158  -6.525  1.00  0.00    -0.383 OA
HETATM    9  C   UNL     1     -21.295 -13.129  -7.154  1.00  0.00     0.202 C 
ENDBRANCH   3   8
BRANCH   4  10
HETATM   10  O   UNL     1     -18.259 -14.488  -7.924  1.00  0.00    -0.385 OA
HETATM   11  C   UNL     1     -18.344 -14.621  -9.325  1.00  0.00     0.202 C 
ENDBRANCH   4  10
BRANCH   5  12
HETATM   12  O   UNL     1     -15.527 -13.957  -6.569  1.00  0.00    -0.385 OA
HETATM   13  C   UNL     1     -15.151 -15.190  -5.959  1.00  0.00     0.202 C 
ENDBRANCH   5  12
BRANCH   6  14
HETATM   14  C   UNL     1     -15.497 -11.357  -5.583  1.00  0.00     0.201 C 
BRANCH  14  15
HETATM   15  O   UNL     1     -14.479 -11.370  -4.576  1.00  0.00    -0.393 OA
HETATM   16  C   UNL     1     -14.754 -12.245  -3.488  1.00  0.00     0.201 C 
ENDBRANCH  14  15
ENDBRANCH   6  14
ENDBRANCH   1   2
BRANCH   1  17
HETATM   17  C   UNL     1     -19.892  -9.846  -4.648  1.00  0.00     0.187 C 
HETATM   18  C   UNL     1     -20.137  -8.310  -4.612  1.00  0.00     0.180 C 
HETATM   19  O   UNL     1     -20.342  -7.836  -3.285  1.00  0.00    -0.348 OA
HETATM   20  C   UNL     1     -21.503  -8.375  -2.660  1.00  0.00     0.291 C 
HETATM   21  C   UNL     1     -21.291  -9.892  -2.465  1.00  0.00     0.207 C 
HETATM   22  C   UNL     1     -21.052 -10.565  -3.864  1.00  0.00     0.186 C 
BRANCH  18  23
HETATM   23  C   UNL     1     -21.256  -7.792  -5.555  1.00  0.00     0.201 C 
BRANCH  23  24
HETATM   24  O   UNL     1     -20.740  -6.994  -6.631  1.00  0.00    -0.393 OA
HETATM   25  C   UNL     1     -20.180  -5.755  -6.213  1.00  0.00     0.201 C 
ENDBRANCH  23  24
ENDBRANCH  18  23
BRANCH  20  26
HETATM   26  O   UNL     1     -21.737  -7.681  -1.441  1.00  0.00    -0.363 OA
HETATM   27  C   UNL     1     -22.225  -6.356  -1.698  1.00  0.00     0.204 C 
ENDBRANCH  20  26
BRANCH  21  28
HETATM   28  O   UNL     1     -20.171 -10.080  -1.565  1.00  0.00    -0.383 OA
HETATM   29  C   UNL     1     -20.498 -10.742  -0.348  1.00  0.00     0.202 C 
ENDBRANCH  21  28
BRANCH  22  30
HETATM   30  O   UNL     1     -20.785 -11.958  -3.608  1.00  0.00    -0.385 OA
HETATM   31  C   UNL     1     -21.896 -12.799  -3.376  1.00  0.00     0.202 C 
ENDBRANCH  22  30
ENDBRANCH   1  17
TORSDOF 12
BEGIN_RES ARG D 557
REMARK  4 active torsions:
REMARK  status: ('A' for Active; 'I' for Inactive)
REMARK    1  A    between atoms: CA   and  CB  
REMARK    2  A    between atoms: CB   and  CG  
REMARK    3  A    between atoms: CG   and  CD  
REMARK    4  A    between atoms: CD   and  NE  
REMARK       I    between atoms: NE   and  CZ  
REMARK       I    between atoms: CZ   and  NH1 
REMARK       I    between atoms: CZ   and  NH2 
ROOT
ATOM      1  CA  ARG D 557     -26.217   2.705 -17.014  1.00 35.49     0.159 C 
ENDROOT
BRANCH   1   2
ATOM      2  CB  ARG D 557     -26.789   1.319 -17.183  1.00 35.49     0.034 C 
BRANCH   2   3
ATOM      3  CG  ARG D 557     -28.226   1.162 -16.927  1.00 35.49     0.027 C 
BRANCH   3   4
ATOM      4  CD  ARG D 557     -28.619  -0.257 -16.769  1.00 35.49     0.116 C 
BRANCH   4   5
ATOM      5  NE  ARG D 557     -27.620  -1.022 -16.069  1.00 35.49    -0.212 N 
ATOM      6  CZ  ARG D 557     -27.471  -2.326 -16.127  1.00 35.49     0.666 C 
ATOM      7  NH1 ARG D 557     -28.262  -3.099 -16.849  1.00 35.49    -0.235 N 
ATOM      8  NH2 ARG D 557     -26.496  -2.850 -15.443  1.00 35.49    -0.235 N 
ATOM      9  HH  ARG D 557     -28.908  -2.775 -17.309  1.00 35.49     0.174 HD
ATOM     10  HH  ARG D 557     -28.115  -3.943 -16.850  1.00 35.49     0.174 HD
ATOM     11  HH  ARG D 557     -25.997  -2.326 -14.992  1.00 35.49     0.174 HD
ATOM     12  HH  ARG D 557     -26.366  -3.688 -15.458  1.00 35.49     0.174 HD
ATOM     13  HE  ARG D 557     -27.113  -0.612 -15.524  1.00 35.49     0.178 HD
ENDBRANCH   4   5
ENDBRANCH   3   4
ENDBRANCH   2   3
ENDBRANCH   1   2
END_RES ARG D 557
BEGIN_RES GLU D 570
REMARK  3 active torsions:
REMARK  status: ('A' for Active; 'I' for Inactive)
REMARK    5  A    between atoms: CA   and  CB  
REMARK    6  A    between atoms: CB   and  CG  
REMARK    7  A    between atoms: CG   and  CD  
ROOT
ATOM     14  CA  GLU D 570     -18.033  -6.348 -13.375  1.00 32.92     0.160 C 
ENDROOT
BRANCH  14  15
ATOM     15  CB  GLU D 570     -19.500  -6.345 -13.794  1.00 32.92     0.043 C 
BRANCH  15  16
ATOM     16  CG  GLU D 570     -20.448  -5.561 -12.961  1.00 32.92     0.100 C 
BRANCH  16  17
ATOM     17  CD  GLU D 570     -21.705  -5.173 -13.705  1.00 32.92     0.185 C 
ATOM     18  OE1 GLU D 570     -22.735  -4.910 -13.057  1.00 32.92    -0.647 OA
ATOM     19  OE2 GLU D 570     -21.662  -5.148 -14.951  1.00 32.92    -0.647 OA
ENDBRANCH  16  17
ENDBRANCH  15  16
ENDBRANCH  14  15
END_RES GLU D 570
ENDMDL
MODEL 3
REMARK VINA RESULT:      -4.1      2.766      4.745
REMARK  12 active torsions:
REMARK  status: ('A' for Active; 'I' for Inactive)
REMARK    1  A    between atoms: O_2  and  C_3 
REMARK    2  A    between atoms: C_3  and  C_4 
REMARK    3  A    between atoms: C_5  and  O_30 
REMARK    4  A    between atoms: C_6  and  O_28 
REMARK    5  A    between atoms: C_7  and  O_26 
REMARK    6  A    between atoms: C_8  and  O_10 
REMARK    7  A    between atoms: O_10  and  C_11 
REMARK    8  A    between atoms: C_12  and  C_23 
REMARK    9  A    between atoms: C_14  and  O_21 
REMARK   10  A    between atoms: C_15  and  O_19 
REMARK   11  A    between atoms: C_16  and  O_17 
REMARK   12  A    between atoms: C_23  and  O_24 
ROOT
HETATM    1  O   UNL     1     -20.031 -11.662  -2.876  1.00  0.00    -0.348 OA
ENDROOT
BRANCH   1   2
HETATM    2  C   UNL     1     -18.726 -12.117  -2.430  1.00  0.00     0.292 C 
HETATM    3  C   UNL     1     -18.839 -13.087  -1.244  1.00  0.00     0.207 C 
HETATM    4  C   UNL     1     -17.480 -13.547  -0.701  1.00  0.00     0.186 C 
HETATM    5  C   UNL     1     -16.533 -12.370  -0.432  1.00  0.00     0.183 C 
HETATM    6  C   UNL     1     -16.632 -11.256  -1.516  1.00  0.00     0.180 C 
HETATM    7  O   UNL     1     -17.962 -10.981  -1.999  1.00  0.00    -0.348 OA
BRANCH   3   8
HETATM    8  O   UNL     1     -19.749 -12.668  -0.205  1.00  0.00    -0.383 OA
HETATM    9  C   UNL     1     -20.948 -13.385   0.013  1.00  0.00     0.202 C 
ENDBRANCH   3   8
BRANCH   4  10
HETATM   10  O   UNL     1     -17.808 -14.282   0.495  1.00  0.00    -0.385 OA
HETATM   11  C   UNL     1     -17.613 -15.677   0.489  1.00  0.00     0.202 C 
ENDBRANCH   4  10
BRANCH   5  12
HETATM   12  O   UNL     1     -15.182 -12.860  -0.319  1.00  0.00    -0.385 OA
HETATM   13  C   UNL     1     -14.737 -12.949   1.032  1.00  0.00     0.202 C 
ENDBRANCH   5  12
BRANCH   6  14
HETATM   14  C   UNL     1     -15.616 -11.436  -2.667  1.00  0.00     0.201 C 
BRANCH  14  15
HETATM   15  O   UNL     1     -15.646 -10.381  -3.635  1.00  0.00    -0.393 OA
HETATM   16  C   UNL     1     -16.016 -10.807  -4.942  1.00  0.00     0.201 C 
ENDBRANCH  14  15
ENDBRANCH   6  14
ENDBRANCH   1   2
BRANCH   1  17
HETATM   17  C   UNL     1     -20.147 -10.265  -3.237  1.00  0.00     0.187 C 
HETATM   18  C   UNL     1     -19.738 -10.008  -4.716  1.00  0.00     0.180 C 
HETATM   19  O   UNL     1     -19.950  -8.652  -5.097  1.00  0.00    -0.348 OA
HETATM   20  C   UNL     1     -21.316  -8.254  -5.053  1.00  0.00     0.291 C 
HETATM   21  C   UNL     1     -21.786  -8.286  -3.583  1.00  0.00     0.207 C 
HETATM   22  C   UNL     1     -21.613  -9.740  -3.016  1.00  0.00     0.186 C 
BRANCH  18  23
HETATM   23  C   UNL     1     -20.367 -10.972  -5.758  1.00  0.00     0.201 C 
BRANCH  23  24
HETATM   24  O   UNL     1     -19.449 -11.319  -6.806  1.00  0.00    -0.393 OA
HETATM   25  C   UNL     1     -18.882 -12.616  -6.671  1.00  0.00     0.201 C 
ENDBRANCH  23  24
ENDBRANCH  18  23
BRANCH  20  26
HETATM   26  O   UNL     1     -21.445  -6.973  -5.655  1.00  0.00    -0.363 OA
HETATM   27  C   UNL     1     -20.177  -6.512  -6.145  1.00  0.00     0.204 C 
ENDBRANCH  20  26
BRANCH  21  28
HETATM   28  O   UNL     1     -21.013  -7.310  -2.840  1.00  0.00    -0.383 OA
HETATM   29  C   UNL     1     -21.777  -6.229  -2.316  1.00  0.00     0.202 C 
ENDBRANCH  21  28
BRANCH  22  30
HETATM   30  O   UNL     1     -21.993  -9.685  -1.626  1.00  0.00    -0.385 OA
HETATM   31  C   UNL     1     -23.044 -10.531  -1.207  1.00  0.00     0.202 C 
ENDBRANCH  22  30
ENDBRANCH   1  17
TORSDOF 12
BEGIN_RES ARG D 557
REMARK  4 active torsions:
REMARK  status: ('A' for Active; 'I' for Inactive)
REMARK    1  A    between atoms: CA   and  CB  
REMARK    2  A    between atoms: CB   and  CG  
REMARK    3  A    between atoms: CG   and  CD  
REMARK    4  A    between atoms: CD   and  NE  
REMARK       I    between atoms: NE   and  CZ  
REMARK       I    between atoms: CZ   and  NH1 
REMARK       I    between atoms: CZ   and  NH2 
ROOT
ATOM      1  CA  ARG D 557     -26.217   2.705 -17.014  1.00 35.49     0.159 C 
ENDROOT
BRANCH   1   2
ATOM      2  CB  ARG D 557     -26.789   1.319 -17.183  1.00 35.49     0.034 C 
BRANCH   2   3
ATOM      3  CG  ARG D 557     -28.229   1.227 -17.452  1.00 35.49     0.027 C 
BRANCH   3   4
ATOM      4  CD  ARG D 557     -28.921   0.310 -16.517  1.00 35.49     0.116 C 
BRANCH   4   5
ATOM      5  NE  ARG D 557     -29.322  -0.915 -17.156  1.00 35.49    -0.212 N 
ATOM      6  CZ  ARG D 557     -28.704  -2.071 -17.057  1.00 35.49     0.666 C 
ATOM      7  NH1 ARG D 557     -27.603  -2.228 -16.347  1.00 35.49    -0.235 N 
ATOM      8  NH2 ARG D 557     -29.222  -3.084 -17.689  1.00 35.49    -0.235 N 
ATOM      9  HH  ARG D 557     -27.246  -1.575 -15.921  1.00 35.49     0.174 HD
ATOM     10  HH  ARG D 557     -27.245  -3.006 -16.317  1.00 35.49     0.174 HD
ATOM     11  HH  ARG D 557     -29.938  -2.955 -18.134  1.00 35.49     0.174 HD
ATOM     12  HH  ARG D 557     -28.854  -3.847 -17.646  1.00 35.49     0.174 HD
ATOM     13  HE  ARG D 557     -29.981  -0.889 -17.692  1.00 35.49     0.178 HD
ENDBRANCH   4   5
ENDBRANCH   3   4
ENDBRANCH   2   3
ENDBRANCH   1   2
END_RES ARG D 557
BEGIN_RES GLU D 570
REMARK  3 active torsions:
REMARK  status: ('A' for Active; 'I' for Inactive)
REMARK    5  A    between atoms: CA   and  CB  
REMARK    6  A    between atoms: CB   and  CG  
REMARK    7  A    between atoms: CG   and  CD  
ROOT
ATOM     14  CA  GLU D 570     -18.033  -6.348 -13.375  1.00 32.92     0.160 C 
ENDROOT
BRANCH  14  15
ATOM     15  CB  GLU D 570     -19.500  -6.345 -13.794  1.00 32.92     0.043 C 
BRANCH  15  16
ATOM     16  CG  GLU D 570     -20.439  -5.519 -12.992  1.00 32.92     0.100 C 
BRANCH  16  17
ATOM     17  CD  GLU D 570     -21.708  -5.177 -13.738  1.00 32.92     0.185 C 
ATOM     18  OE1 GLU D 570     -22.782  -5.119 -13.110  1.00 32.92    -0.647 OA
ATOM     19  OE2 GLU D 570     -21.629  -4.982 -14.967  1.00 32.92    -0.647 OA
ENDBRANCH  16  17
ENDBRANCH  15  16
ENDBRANCH  14  15
END_RES GLU D 570
ENDMDL
MODEL 4
REMARK VINA RESULT:      -4.0      2.021      2.529
REMARK  12 active torsions:
REMARK  status: ('A' for Active; 'I' for Inactive)
REMARK    1  A    between atoms: O_2  and  C_3 
REMARK    2  A    between atoms: C_3  and  C_4 
REMARK    3  A    between atoms: C_5  and  O_30 
REMARK    4  A    between atoms: C_6  and  O_28 
REMARK    5  A    between atoms: C_7  and  O_26 
REMARK    6  A    between atoms: C_8  and  O_10 
REMARK    7  A    between atoms: O_10  and  C_11 
REMARK    8  A    between atoms: C_12  and  C_23 
REMARK    9  A    between atoms: C_14  and  O_21 
REMARK   10  A    between atoms: C_15  and  O_19 
REMARK   11  A    between atoms: C_16  and  O_17 
REMARK   12  A    between atoms: C_23  and  O_24 
ROOT
HETATM    1  O   UNL     1     -19.397 -10.849  -3.545  1.00  0.00    -0.348 OA
ENDROOT
BRANCH   1   2
HETATM    2  C   UNL     1     -17.999 -11.225  -3.432  1.00  0.00     0.292 C 
HETATM    3  C   UNL     1     -17.423 -11.678  -4.782  1.00  0.00     0.207 C 
HETATM    4  C   UNL     1     -15.963 -12.142  -4.697  1.00  0.00     0.186 C 
HETATM    5  C   UNL     1     -15.741 -13.160  -3.572  1.00  0.00     0.183 C 
HETATM    6  C   UNL     1     -16.556 -12.827  -2.287  1.00  0.00     0.180 C 
HETATM    7  O   UNL     1     -17.887 -12.322  -2.514  1.00  0.00    -0.348 OA
BRANCH   3   8
HETATM    8  O   UNL     1     -18.263 -12.590  -5.522  1.00  0.00    -0.383 OA
HETATM    9  C   UNL     1     -18.950 -12.139  -6.671  1.00  0.00     0.202 C 
ENDBRANCH   3   8
BRANCH   4  10
HETATM   10  O   UNL     1     -15.689 -12.686  -6.004  1.00  0.00    -0.385 OA
HETATM   11  C   UNL     1     -14.926 -11.910  -6.898  1.00  0.00     0.202 C 
ENDBRANCH   4  10
BRANCH   5  12
HETATM   12  O   UNL     1     -14.332 -13.249  -3.280  1.00  0.00    -0.385 OA
HETATM   13  C   UNL     1     -13.781 -14.526  -3.594  1.00  0.00     0.202 C 
ENDBRANCH   5  12
BRANCH   6  14
HETATM   14  C   UNL     1     -15.767 -11.968  -1.272  1.00  0.00     0.201 C 
BRANCH  14  15
HETATM   15  O   UNL     1     -15.265 -12.709  -0.155  1.00  0.00    -0.393 OA
HETATM   16  C   UNL     1     -15.752 -12.257   1.104  1.00  0.00     0.201 C 
ENDBRANCH  14  15
ENDBRANCH   6  14
ENDBRANCH   1   2
BRANCH   1  17
HETATM   17  C   UNL     1     -20.136 -10.707  -2.309  1.00  0.00     0.187 C 
HETATM   18  C   UNL     1     -20.545  -9.231  -2.038  1.00  0.00     0.180 C 
HETATM   19  O   UNL     1     -21.359  -9.111  -0.875  1.00  0.00    -0.348 OA
HETATM   20  C   UNL     1     -22.606  -9.789  -0.979  1.00  0.00     0.291 C 
HETATM   21  C   UNL     1     -22.330 -11.306  -1.062  1.00  0.00     0.207 C 
HETATM   22  C   UNL     1     -21.432 -11.601  -2.316  1.00  0.00     0.186 C 
BRANCH  18  23
HETATM   23  C   UNL     1     -21.194  -8.489  -3.237  1.00  0.00     0.201 C 
BRANCH  23  24
HETATM   24  O   UNL     1     -21.600  -7.154  -2.899  1.00  0.00    -0.393 OA
HETATM   25  C   UNL     1     -21.334  -6.195  -3.916  1.00  0.00     0.201 C 
ENDBRANCH  23  24
ENDBRANCH  18  23
BRANCH  20  26
HETATM   26  O   UNL     1     -23.424  -9.428   0.127  1.00  0.00    -0.363 OA
HETATM   27  C   UNL     1     -23.169  -8.073   0.525  1.00  0.00     0.204 C 
ENDBRANCH  20  26
BRANCH  21  28
HETATM   28  O   UNL     1     -21.699 -11.719   0.176  1.00  0.00    -0.383 OA
HETATM   29  C   UNL     1     -22.417 -12.712   0.901  1.00  0.00     0.202 C 
ENDBRANCH  21  28
BRANCH  22  30
HETATM   30  O   UNL     1     -21.147 -13.014  -2.292  1.00  0.00    -0.385 OA
HETATM   31  C   UNL     1     -22.091 -13.876  -2.895  1.00  0.00     0.202 C 
ENDBRANCH  22  30
ENDBRANCH   1  17
TORSDOF 12
BEGIN_RES ARG D 557
REMARK  4 active torsions:
REMARK  status: ('A' for Active; 'I' for Inactive)
REMARK    1  A    between atoms: CA   and  CB  
REMARK    2  A    between atoms: CB   and  CG  
REMARK    3  A    between atoms: CG   and  CD  
REMARK    4  A    between atoms: CD   and  NE  
REMARK       I    between atoms: NE   and  CZ  
REMARK       I    between atoms: CZ   and  NH1 
REMARK       I    between atoms: CZ   and  NH2 
ROOT
ATOM      1  CA  ARG D 557     -26.217   2.705 -17.014  1.00 35.49     0.159 C 
ENDROOT
BRANCH   1   2
ATOM      2  CB  ARG D 557     -26.789   1.319 -17.183  1.00 35.49     0.034 C 
BRANCH   2   3
ATOM      3  CG  ARG D 557     -25.924   0.196 -16.802  1.00 35.49     0.027 C 
BRANCH   3   4
ATOM      4  CD  ARG D 557     -26.663  -0.870 -16.088  1.00 35.49     0.116 C 
BRANCH   4   5
ATOM      5  NE  ARG D 557     -25.859  -1.505 -15.078  1.00 35.49    -0.212 N 
ATOM      6  CZ  ARG D 557     -25.895  -2.778 -14.755  1.00 35.49     0.666 C 
ATOM      7  NH1 ARG D 557     -26.715  -3.634 -15.337  1.00 35.49    -0.235 N 
ATOM      8  NH2 ARG D 557     -25.078  -3.186 -13.828  1.00 35.49    -0.235 N 
ATOM      9  HH  ARG D 557     -27.260  -3.388 -15.951  1.00 35.49     0.174 HD
ATOM     10  HH  ARG D 557     -26.692  -4.453 -15.087  1.00 35.49     0.174 HD
ATOM     11  HH  ARG D 557     -24.555  -2.613 -13.475  1.00 35.49     0.174 HD
ATOM     12  HH  ARG D 557     -25.069  -4.002 -13.596  1.00 35.49     0.174 HD
ATOM     13  HE  ARG D 557     -25.353  -1.013 -14.602  1.00 35.49     0.178 HD
ENDBRANCH   4   5
ENDBRANCH   3   4
ENDBRANCH   2   3
ENDBRANCH   1   2
END_RES ARG D 557
BEGIN_RES GLU D 570
REMARK  3 active torsions:
REMARK  status: ('A' for Active; 'I' for Inactive)
REMARK    5  A    between atoms: CA   and  CB  
REMARK    6  A    between atoms: CB   and  CG  
REMARK    7  A    between atoms: CG   and  CD  
ROOT
ATOM     14  CA  GLU D 570     -18.033  -6.348 -13.375  1.00 32.92     0.160 C 
ENDROOT
BRANCH  14  15
ATOM     15  CB  GLU D 570     -19.500  -6.345 -13.794  1.00 32.92     0.043 C 
BRANCH  15  16
ATOM     16  CG  GLU D 570     -20.452  -5.580 -12.948  1.00 32.92     0.100 C 
BRANCH  16  17
ATOM     17  CD  GLU D 570     -21.700  -5.166 -13.692  1.00 32.92     0.185 C 
ATOM     18  OE1 GLU D 570     -21.682  -5.140 -14.938  1.00 32.92    -0.647 OA
ATOM     19  OE2 GLU D 570     -22.702  -4.847 -13.022  1.00 32.92    -0.647 OA
ENDBRANCH  16  17
ENDBRANCH  15  16
ENDBRANCH  14  15
END_RES GLU D 570
ENDMDL
MODEL 5
REMARK VINA RESULT:      -3.9      2.846      4.414
REMARK  12 active torsions:
REMARK  status: ('A' for Active; 'I' for Inactive)
REMARK    1  A    between atoms: O_2  and  C_3 
REMARK    2  A    between atoms: C_3  and  C_4 
REMARK    3  A    between atoms: C_5  and  O_30 
REMARK    4  A    between atoms: C_6  and  O_28 
REMARK    5  A    between atoms: C_7  and  O_26 
REMARK    6  A    between atoms: C_8  and  O_10 
REMARK    7  A    between atoms: O_10  and  C_11 
REMARK    8  A    between atoms: C_12  and  C_23 
REMARK    9  A    between atoms: C_14  and  O_21 
REMARK   10  A    between atoms: C_15  and  O_19 
REMARK   11  A    between atoms: C_16  and  O_17 
REMARK   12  A    between atoms: C_23  and  O_24 
ROOT
HETATM    1  O   UNL     1     -19.816 -12.046  -2.387  1.00  0.00    -0.348 OA
ENDROOT
BRANCH   1   2
HETATM    2  C   UNL     1     -18.707 -12.672  -1.688  1.00  0.00     0.292 C 
HETATM    3  C   UNL     1     -19.120 -14.008  -1.050  1.00  0.00     0.207 C 
HETATM    4  C   UNL     1     -17.994 -14.675  -0.250  1.00  0.00     0.186 C 
HETATM    5  C   UNL     1     -17.336 -13.709   0.743  1.00  0.00     0.183 C 
HETATM    6  C   UNL     1     -17.172 -12.271   0.167  1.00  0.00     0.180 C 
HETATM    7  O   UNL     1     -18.271 -11.799  -0.636  1.00  0.00    -0.348 OA
BRANCH   3   8
HETATM    8  O   UNL     1     -20.376 -13.976  -0.339  1.00  0.00    -0.383 OA
HETATM    9  C   UNL     1     -21.511 -14.617  -0.885  1.00  0.00     0.202 C 
ENDBRANCH   3   8
BRANCH   4  10
HETATM   10  O   UNL     1     -18.637 -15.790   0.400  1.00  0.00    -0.385 OA
HETATM   11  C   UNL     1     -18.777 -15.747   1.802  1.00  0.00     0.202 C 
ENDBRANCH   4  10
BRANCH   5  12
HETATM   12  O   UNL     1     -16.064 -14.246   1.159  1.00  0.00    -0.385 OA
HETATM   13  C   UNL     1     -15.745 -13.928   2.512  1.00  0.00     0.202 C 
ENDBRANCH   5  12
BRANCH   6  14
HETATM   14  C   UNL     1     -15.804 -12.043  -0.517  1.00  0.00     0.201 C 
BRANCH  14  15
HETATM   15  O   UNL     1     -15.798 -10.955  -1.448  1.00  0.00    -0.393 OA
HETATM   16  C   UNL     1     -15.415 -11.326  -2.768  1.00  0.00     0.201 C 
ENDBRANCH  14  15
ENDBRANCH   6  14
ENDBRANCH   1   2
BRANCH   1  17
HETATM   17  C   UNL     1     -20.083 -10.658  -2.076  1.00  0.00     0.187 C 
HETATM   18  C   UNL     1     -19.788  -9.722  -3.283  1.00  0.00     0.180 C 
HETATM   19  O   UNL     1     -20.149  -8.372  -3.007  1.00  0.00    -0.348 OA
HETATM   20  C   UNL     1     -21.541  -8.189  -2.774  1.00  0.00     0.291 C 
HETATM   21  C   UNL     1     -21.919  -8.929  -1.472  1.00  0.00     0.207 C 
HETATM   22  C   UNL     1     -21.577 -10.453  -1.626  1.00  0.00     0.186 C 
BRANCH  18  23
HETATM   23  C   UNL     1     -20.384 -10.179  -4.641  1.00  0.00     0.201 C 
BRANCH  23  24
HETATM   24  O   UNL     1     -19.442 -10.067  -5.718  1.00  0.00    -0.393 OA
HETATM   25  C   UNL     1     -18.082 -10.070  -5.297  1.00  0.00     0.201 C 
ENDBRANCH  23  24
ENDBRANCH  18  23
BRANCH  20  26
HETATM   26  O   UNL     1     -21.825  -6.797  -2.730  1.00  0.00    -0.363 OA
HETATM   27  C   UNL     1     -21.338  -6.142  -3.911  1.00  0.00     0.204 C 
ENDBRANCH  20  26
BRANCH  21  28
HETATM   28  O   UNL     1     -21.198  -8.311  -0.377  1.00  0.00    -0.383 OA
HETATM   29  C   UNL     1     -22.022  -7.876   0.700  1.00  0.00     0.202 C 
ENDBRANCH  21  28
BRANCH  22  30
HETATM   30  O   UNL     1     -21.878 -11.070  -0.357  1.00  0.00    -0.385 OA
HETATM   31  C   UNL     1     -23.228 -11.396  -0.099  1.00  0.00     0.202 C 
ENDBRANCH  22  30
ENDBRANCH   1  17
TORSDOF 12
BEGIN_RES ARG D 557
REMARK  4 active torsions:
REMARK  status: ('A' for Active; 'I' for Inactive)
REMARK    1  A    between atoms: CA   and  CB  
REMARK    2  A    between atoms: CB   and  CG  
REMARK    3  A    between atoms: CG   and  CD  
REMARK    4  A    between atoms: CD   and  NE  
REMARK       I    between atoms: NE   and  CZ  
REMARK       I    between atoms: CZ   and  NH1 
REMARK       I    between atoms: CZ   and  NH2 
ROOT
ATOM      1  CA  ARG D 557     -26.217   2.705 -17.014  1.00 35.49     0.159 C 
ENDROOT
BRANCH   1   2
ATOM      2  CB  ARG D 557     -26.789   1.319 -17.183  1.00 35.49     0.034 C 
BRANCH   2   3
ATOM      3  CG  ARG D 557     -25.924   0.196 -16.802  1.00 35.49     0.027 C 
BRANCH   3   4
ATOM      4  CD  ARG D 557     -26.665  -0.872 -16.092  1.00 35.49     0.116 C 
BRANCH   4   5
ATOM      5  NE  ARG D 557     -25.856  -1.524 -15.096  1.00 35.49    -0.212 N 
ATOM      6  CZ  ARG D 557     -25.919  -2.794 -14.767  1.00 35.49     0.666 C 
ATOM      7  NH1 ARG D 557     -26.773  -3.630 -15.327  1.00 35.49    -0.235 N 
ATOM      8  NH2 ARG D 557     -25.092  -3.220 -13.856  1.00 35.49    -0.235 N 
ATOM      9  HH  ARG D 557     -27.324  -3.372 -15.930  1.00 35.49     0.174 HD
ATOM     10  HH  ARG D 557     -26.767  -4.449 -15.074  1.00 35.49     0.174 HD
ATOM     11  HH  ARG D 557     -24.547  -2.659 -13.517  1.00 35.49     0.174 HD
ATOM     12  HH  ARG D 557     -25.101  -4.034 -13.620  1.00 35.49     0.174 HD
ATOM     13  HE  ARG D 557     -25.327  -1.043 -14.634  1.00 35.49     0.178 HD
ENDBRANCH   4   5
ENDBRANCH   3   4
ENDBRANCH   2   3
ENDBRANCH   1   2
END_RES ARG D 557
BEGIN_RES GLU D 570
REMARK  3 active torsions:
REMARK  status: ('A' for Active; 'I' for Inactive)
REMARK    5  A    between atoms: CA   and  CB  
REMARK    6  A    between atoms: CB   and  CG  
REMARK    7  A    between atoms: CG   and  CD  
ROOT
ATOM     14  CA  GLU D 570     -18.033  -6.348 -13.375  1.00 32.92     0.160 C 
ENDROOT
BRANCH  14  15
ATOM     15  CB  GLU D 570     -19.500  -6.345 -13.794  1.00 32.92     0.043 C 
BRANCH  15  16
ATOM     16  CG  GLU D 570     -20.454  -5.588 -12.943  1.00 32.92     0.100 C 
BRANCH  16  17
ATOM     17  CD  GLU D 570     -21.697  -5.161 -13.687  1.00 32.92     0.185 C 
ATOM     18  OE1 GLU D 570     -21.693  -5.177 -14.933  1.00 32.92    -0.647 OA
ATOM     19  OE2 GLU D 570     -22.682  -4.791 -13.017  1.00 32.92    -0.647 OA
ENDBRANCH  16  17
ENDBRANCH  15  16
ENDBRANCH  14  15
END_RES GLU D 570
ENDMDL
MODEL 6
REMARK VINA RESULT:      -3.8      2.506      4.004
REMARK  12 active torsions:
REMARK  status: ('A' for Active; 'I' for Inactive)
REMARK    1  A    between atoms: O_2  and  C_3 
REMARK    2  A    between atoms: C_3  and  C_4 
REMARK    3  A    between atoms: C_5  and  O_30 
REMARK    4  A    between atoms: C_6  and  O_28 
REMARK    5  A    between atoms: C_7  and  O_26 
REMARK    6  A    between atoms: C_8  and  O_10 
REMARK    7  A    between atoms: O_10  and  C_11 
REMARK    8  A    between atoms: C_12  and  C_23 
REMARK    9  A    between atoms: C_14  and  O_21 
REMARK   10  A    between atoms: C_15  and  O_19 
REMARK   11  A    between atoms: C_16  and  O_17 
REMARK   12  A    between atoms: C_23  and  O_24 
ROOT
HETATM    1  O   UNL     1     -20.248 -11.175  -1.861  1.00  0.00    -0.348 OA
ENDROOT
BRANCH   1   2
HETATM    2  C   UNL     1     -18.810 -11.100  -2.053  1.00  0.00     0.292 C 
HETATM    3  C   UNL     1     -18.445 -10.905  -3.533  1.00  0.00     0.207 C 
HETATM    4  C   UNL     1     -16.933 -10.879  -3.790  1.00  0.00     0.186 C 
HETATM    5  C   UNL     1     -16.214 -12.069  -3.141  1.00  0.00     0.183 C 
HETATM    6  C   UNL     1     -16.786 -12.428  -1.738  1.00  0.00     0.180 C 
HETATM    7  O   UNL     1     -18.218 -12.330  -1.612  1.00  0.00    -0.348 OA
BRANCH   3   8
HETATM    8  O   UNL     1     -19.160 -11.762  -4.449  1.00  0.00    -0.383 OA
HETATM    9  C   UNL     1     -20.197 -11.229  -5.248  1.00  0.00     0.202 C 
ENDBRANCH   3   8
BRANCH   4  10
HETATM   10  O   UNL     1     -16.820 -10.877  -5.227  1.00  0.00    -0.385 OA
HETATM   11  C   UNL     1     -16.021  -9.882  -5.826  1.00  0.00     0.202 C 
ENDBRANCH   4  10
BRANCH   5  12
HETATM   12  O   UNL     1     -14.801 -11.788  -3.065  1.00  0.00    -0.385 OA
HETATM   13  C   UNL     1     -14.019 -12.664  -3.874  1.00  0.00     0.202 C 
ENDBRANCH   5  12
BRANCH   6  14
HETATM   14  C   UNL     1     -16.046 -11.719  -0.580  1.00  0.00     0.201 C 
BRANCH  14  15
HETATM   15  O   UNL     1     -16.639 -11.937   0.705  1.00  0.00    -0.393 OA
HETATM   16  C   UNL     1     -15.861 -12.758   1.569  1.00  0.00     0.201 C 
ENDBRANCH  14  15
ENDBRANCH   6  14
ENDBRANCH   1   2
BRANCH   1  17
HETATM   17  C   UNL     1     -20.738 -12.251  -1.027  1.00  0.00     0.187 C 
HETATM   18  C   UNL     1     -21.577 -11.725   0.173  1.00  0.00     0.180 C 
HETATM   19  O   UNL     1     -22.143 -12.790   0.932  1.00  0.00    -0.348 OA
HETATM   20  C   UNL     1     -23.069 -13.584   0.198  1.00  0.00     0.291 C 
HETATM   21  C   UNL     1     -22.302 -14.317  -0.923  1.00  0.00     0.207 C 
HETATM   22  C   UNL     1     -21.616 -13.259  -1.858  1.00  0.00     0.186 C 
BRANCH  18  23
HETATM   23  C   UNL     1     -22.661 -10.673  -0.183  1.00  0.00     0.201 C 
BRANCH  23  24
HETATM   24  O   UNL     1     -22.236  -9.332   0.104  1.00  0.00    -0.393 OA
HETATM   25  C   UNL     1     -21.137  -9.255   1.005  1.00  0.00     0.201 C 
ENDBRANCH  23  24
ENDBRANCH  18  23
BRANCH  20  26
HETATM   26  O   UNL     1     -23.734 -14.467   1.093  1.00  0.00    -0.363 OA
HETATM   27  C   UNL     1     -23.449 -14.117   2.455  1.00  0.00     0.204 C 
ENDBRANCH  20  26
BRANCH  21  28
HETATM   28  O   UNL     1     -21.342 -15.210  -0.304  1.00  0.00    -0.383 OA
HETATM   29  C   UNL     1     -21.549 -16.589  -0.591  1.00  0.00     0.202 C 
ENDBRANCH  21  28
BRANCH  22  30
HETATM   30  O   UNL     1     -20.856 -14.005  -2.831  1.00  0.00    -0.385 OA
HETATM   31  C   UNL     1     -21.554 -14.507  -3.952  1.00  0.00     0.202 C 
ENDBRANCH  22  30
ENDBRANCH   1  17
TORSDOF 12
BEGIN_RES ARG D 557
REMARK  4 active torsions:
REMARK  status: ('A' for Active; 'I' for Inactive)
REMARK    1  A    between atoms: CA   and  CB  
REMARK    2  A    between atoms: CB   and  CG  
REMARK    3  A    between atoms: CG   and  CD  
REMARK    4  A    between atoms: CD   and  NE  
REMARK       I    between atoms: NE   and  CZ  
REMARK       I    between atoms: CZ   and  NH1 
REMARK       I    between atoms: CZ   and  NH2 
ROOT
ATOM      1  CA  ARG D 557     -26.217   2.705 -17.014  1.00 35.49     0.159 C 
ENDROOT
BRANCH   1   2
ATOM      2  CB  ARG D 557     -26.789   1.319 -17.183  1.00 35.49     0.034 C 
BRANCH   2   3
ATOM      3  CG  ARG D 557     -25.839   0.201 -17.126  1.00 35.49     0.027 C 
BRANCH   3   4
ATOM      4  CD  ARG D 557     -24.759   0.428 -16.140  1.00 35.49     0.116 C 
BRANCH   4   5
ATOM      5  NE  ARG D 557     -24.868  -0.450 -15.004  1.00 35.49    -0.212 N 
ATOM      6  CZ  ARG D 557     -24.029  -1.412 -14.694  1.00 35.49     0.666 C 
ATOM      7  NH1 ARG D 557     -22.967  -1.691 -15.427  1.00 35.49    -0.235 N 
ATOM      8  NH2 ARG D 557     -24.273  -2.097 -13.614  1.00 35.49    -0.235 N 
ATOM      9  HH  ARG D 557     -22.786  -1.252 -16.141  1.00 35.49     0.174 HD
ATOM     10  HH  ARG D 557     -22.453  -2.329 -15.174  1.00 35.49     0.174 HD
ATOM     11  HH  ARG D 557     -24.962  -1.889 -13.156  1.00 35.49     0.174 HD
ATOM     12  HH  ARG D 557     -23.752  -2.723 -13.379  1.00 35.49     0.174 HD
ATOM     13  HE  ARG D 557     -25.563  -0.388 -14.517  1.00 35.49     0.178 HD
ENDBRANCH   4   5
ENDBRANCH   3   4
ENDBRANCH   2   3
ENDBRANCH   1   2
END_RES ARG D 557
BEGIN_RES GLU D 570
REMARK  3 active torsions:
REMARK  status: ('A' for Active; 'I' for Inactive)
REMARK    5  A    between atoms: CA   and  CB  
REMARK    6  A    between atoms: CB   and  CG  
REMARK    7  A    between atoms: CG   and  CD  
ROOT
ATOM     14  CA  GLU D 570     -18.033  -6.348 -13.375  1.00 32.92     0.160 C 
ENDROOT
BRANCH  14  15
ATOM     15  CB  GLU D 570     -19.500  -6.345 -13.794  1.00 32.92     0.043 C 
BRANCH  15  16
ATOM     16  CG  GLU D 570     -20.448  -5.560 -12.962  1.00 32.92     0.100 C 
BRANCH  16  17
ATOM     17  CD  GLU D 570     -21.639  -5.055 -13.742  1.00 32.92     0.185 C 
ATOM     18  OE1 GLU D 570     -21.582  -5.034 -14.987  1.00 32.92    -0.647 OA
ATOM     19  OE2 GLU D 570     -22.634  -4.661 -13.102  1.00 32.92    -0.647 OA
ENDBRANCH  16  17
ENDBRANCH  15  16
ENDBRANCH  14  15
END_RES GLU D 570
ENDMDL
MODEL 7
REMARK VINA RESULT:      -3.8      1.317      6.326
REMARK  12 active torsions:
REMARK  status: ('A' for Active; 'I' for Inactive)
REMARK    1  A    between atoms: O_2  and  C_3 
REMARK    2  A    between atoms: C_3  and  C_4 
REMARK    3  A    between atoms: C_5  and  O_30 
REMARK    4  A    between atoms: C_6  and  O_28 
REMARK    5  A    between atoms: C_7  and  O_26 
REMARK    6  A    between atoms: C_8  and  O_10 
REMARK    7  A    between atoms: O_10  and  C_11 
REMARK    8  A    between atoms: C_12  and  C_23 
REMARK    9  A    between atoms: C_14  and  O_21 
REMARK   10  A    between atoms: C_15  and  O_19 
REMARK   11  A    between atoms: C_16  and  O_17 
REMARK   12  A    between atoms: C_23  and  O_24 
ROOT
HETATM    1  O   UNL     1     -18.971 -10.039  -5.277  1.00  0.00    -0.348 OA
ENDROOT
BRANCH   1   2
HETATM    2  C   UNL     1     -19.924  -9.908  -4.189  1.00  0.00     0.292 C 
HETATM    3  C   UNL     1     -20.727  -8.601  -4.293  1.00  0.00     0.207 C 
HETATM    4  C   UNL     1     -21.706  -8.393  -3.130  1.00  0.00     0.186 C 
HETATM    5  C   UNL     1     -21.034  -8.584  -1.764  1.00  0.00     0.183 C 
HETATM    6  C   UNL     1     -20.009  -9.757  -1.754  1.00  0.00     0.180 C 
HETATM    7  O   UNL     1     -19.209  -9.888  -2.945  1.00  0.00    -0.348 OA
BRANCH   3   8
HETATM    8  O   UNL     1     -19.937  -7.429  -4.583  1.00  0.00    -0.383 OA
HETATM    9  C   UNL     1     -20.079  -6.775  -5.828  1.00  0.00     0.202 C 
ENDBRANCH   3   8
BRANCH   4  10
HETATM   10  O   UNL     1     -22.203  -7.054  -3.324  1.00  0.00    -0.385 OA
HETATM   11  C   UNL     1     -21.885  -6.083  -2.354  1.00  0.00     0.202 C 
ENDBRANCH   4  10
BRANCH   5  12
HETATM   12  O   UNL     1     -22.047  -8.776  -0.757  1.00  0.00    -0.385 OA
HETATM   13  C   UNL     1     -21.688  -8.213   0.503  1.00  0.00     0.202 C 
ENDBRANCH   5  12
BRANCH   6  14
HETATM   14  C   UNL     1     -20.630 -11.103  -1.314  1.00  0.00     0.201 C 
BRANCH  14  15
HETATM   15  O   UNL     1     -21.228 -11.842  -2.384  1.00  0.00    -0.393 OA
HETATM   16  C   UNL     1     -22.644 -11.954  -2.289  1.00  0.00     0.201 C 
ENDBRANCH  14  15
ENDBRANCH   6  14
ENDBRANCH   1   2
BRANCH   1  17
HETATM   17  C   UNL     1     -18.103 -11.197  -5.247  1.00  0.00     0.187 C 
HETATM   18  C   UNL     1     -18.793 -12.460  -5.836  1.00  0.00     0.180 C 
HETATM   19  O   UNL     1     -17.903 -13.570  -5.899  1.00  0.00    -0.348 OA
HETATM   20  C   UNL     1     -16.791 -13.362  -6.764  1.00  0.00     0.291 C 
HETATM   21  C   UNL     1     -15.915 -12.239  -6.169  1.00  0.00     0.207 C 
HETATM   22  C   UNL     1     -16.770 -10.929  -6.040  1.00  0.00     0.186 C 
BRANCH  18  23
HETATM   23  C   UNL     1     -19.506 -12.255  -7.200  1.00  0.00     0.201 C 
BRANCH  23  24
HETATM   24  O   UNL     1     -20.803 -12.868  -7.237  1.00  0.00    -0.393 OA
HETATM   25  C   UNL     1     -21.643 -12.508  -6.147  1.00  0.00     0.201 C 
ENDBRANCH  23  24
ENDBRANCH  18  23
BRANCH  20  26
HETATM   26  O   UNL     1     -16.094 -14.590  -6.927  1.00  0.00    -0.363 OA
HETATM   27  C   UNL     1     -16.806 -15.665  -6.297  1.00  0.00     0.204 C 
ENDBRANCH  20  26
BRANCH  21  28
HETATM   28  O   UNL     1     -15.406 -12.693  -4.890  1.00  0.00    -0.383 OA
HETATM   29  C   UNL     1     -13.990 -12.837  -4.837  1.00  0.00     0.202 C 
ENDBRANCH  21  28
BRANCH  22  30
HETATM   30  O   UNL     1     -15.922  -9.947  -5.409  1.00  0.00    -0.385 OA
HETATM   31  C   UNL     1     -16.024  -9.808  -4.007  1.00  0.00     0.202 C 
ENDBRANCH  22  30
ENDBRANCH   1  17
TORSDOF 12
BEGIN_RES ARG D 557
REMARK  4 active torsions:
REMARK  status: ('A' for Active; 'I' for Inactive)
REMARK    1  A    between atoms: CA   and  CB  
REMARK    2  A    between atoms: CB   and  CG  
REMARK    3  A    between atoms: CG   and  CD  
REMARK    4  A    between atoms: CD   and  NE  
REMARK       I    between atoms: NE   and  CZ  
REMARK       I    between atoms: CZ   and  NH1 
REMARK       I    between atoms: CZ   and  NH2 
ROOT
ATOM      1  CA  ARG D 557     -26.217   2.705 -17.014  1.00 35.49     0.159 C 
ENDROOT
BRANCH   1   2
ATOM      2  CB  ARG D 557     -26.789   1.319 -17.183  1.00 35.49     0.034 C 
BRANCH   2   3
ATOM      3  CG  ARG D 557     -25.836   0.203 -17.149  1.00 35.49     0.027 C 
BRANCH   3   4
ATOM      4  CD  ARG D 557     -24.753   0.414 -16.162  1.00 35.49     0.116 C 
BRANCH   4   5
ATOM      5  NE  ARG D 557     -24.888  -0.446 -15.016  1.00 35.49    -0.212 N 
ATOM      6  CZ  ARG D 557     -24.053  -1.399 -14.669  1.00 35.49     0.666 C 
ATOM      7  NH1 ARG D 557     -22.971  -1.684 -15.370  1.00 35.49    -0.235 N 
ATOM      8  NH2 ARG D 557     -24.322  -2.068 -13.585  1.00 35.49    -0.235 N 
ATOM      9  HH  ARG D 557     -22.773  -1.256 -16.085  1.00 35.49     0.174 HD
ATOM     10  HH  ARG D 557     -22.461  -2.315 -15.093  1.00 35.49     0.174 HD
ATOM     11  HH  ARG D 557     -25.023  -1.857 -13.148  1.00 35.49     0.174 HD
ATOM     12  HH  ARG D 557     -23.804  -2.687 -13.327  1.00 35.49     0.174 HD
ATOM     13  HE  ARG D 557     -25.595  -0.380 -14.548  1.00 35.49     0.178 HD
ENDBRANCH   4   5
ENDBRANCH   3   4
ENDBRANCH   2   3
ENDBRANCH   1   2
END_RES ARG D 557
BEGIN_RES GLU D 570
REMARK  3 active torsions:
REMARK  status: ('A' for Active; 'I' for Inactive)
REMARK    5  A    between atoms: CA   and  CB  
REMARK    6  A    between atoms: CB   and  CG  
REMARK    7  A    between atoms: CG   and  CD  
ROOT
ATOM     14  CA  GLU D 570     -18.033  -6.348 -13.375  1.00 32.92     0.160 C 
ENDROOT
BRANCH  14  15
ATOM     15  CB  GLU D 570     -19.500  -6.345 -13.794  1.00 32.92     0.043 C 
BRANCH  15  16
ATOM     16  CG  GLU D 570     -20.441  -5.525 -12.987  1.00 32.92     0.100 C 
BRANCH  16  17
ATOM     17  CD  GLU D 570     -21.724  -5.209 -13.720  1.00 32.92     0.185 C 
ATOM     18  OE1 GLU D 570     -22.291  -4.121 -13.503  1.00 32.92    -0.647 OA
ATOM     19  OE2 GLU D 570     -22.175  -6.064 -14.506  1.00 32.92    -0.647 OA
ENDBRANCH  16  17
ENDBRANCH  15  16
ENDBRANCH  14  15
END_RES GLU D 570
ENDMDL
MODEL 8
REMARK VINA RESULT:      -3.8      1.945      3.689
REMARK  12 active torsions:
REMARK  status: ('A' for Active; 'I' for Inactive)
REMARK    1  A    between atoms: O_2  and  C_3 
REMARK    2  A    between atoms: C_3  and  C_4 
REMARK    3  A    between atoms: C_5  and  O_30 
REMARK    4  A    between atoms: C_6  and  O_28 
REMARK    5  A    between atoms: C_7  and  O_26 
REMARK    6  A    between atoms: C_8  and  O_10 
REMARK    7  A    between atoms: O_10  and  C_11 
REMARK    8  A    between atoms: C_12  and  C_23 
REMARK    9  A    between atoms: C_14  and  O_21 
REMARK   10  A    between atoms: C_15  and  O_19 
REMARK   11  A    between atoms: C_16  and  O_17 
REMARK   12  A    between atoms: C_23  and  O_24 
ROOT
HETATM    1  O   UNL     1     -19.776 -11.758  -3.887  1.00  0.00    -0.348 OA
ENDROOT
BRANCH   1   2
HETATM    2  C   UNL     1     -18.345 -11.702  -3.648  1.00  0.00     0.292 C 
HETATM    3  C   UNL     1     -17.551 -12.301  -4.820  1.00  0.00     0.207 C 
HETATM    4  C   UNL     1     -16.035 -12.317  -4.585  1.00  0.00     0.186 C 
HETATM    5  C   UNL     1     -15.665 -12.930  -3.228  1.00  0.00     0.183 C 
HETATM    6  C   UNL     1     -16.651 -12.524  -2.093  1.00  0.00     0.180 C 
HETATM    7  O   UNL     1     -18.040 -12.469  -2.474  1.00  0.00    -0.348 OA
BRANCH   3   8
HETATM    8  O   UNL     1     -18.059 -13.558  -5.315  1.00  0.00    -0.383 OA
HETATM    9  C   UNL     1     -18.748 -13.603  -6.548  1.00  0.00     0.202 C 
ENDBRANCH   3   8
BRANCH   4  10
HETATM   10  O   UNL     1     -15.514 -13.072  -5.697  1.00  0.00    -0.385 OA
HETATM   11  C   UNL     1     -14.771 -12.381  -6.675  1.00  0.00     0.202 C 
ENDBRANCH   4  10
BRANCH   5  12
HETATM   12  O   UNL     1     -14.312 -12.560  -2.891  1.00  0.00    -0.385 OA
HETATM   13  C   UNL     1     -13.414 -13.667  -2.917  1.00  0.00     0.202 C 
ENDBRANCH   5  12
BRANCH   6  14
HETATM   14  C   UNL     1     -16.204 -11.262  -1.321  1.00  0.00     0.201 C 
BRANCH  14  15
HETATM   15  O   UNL     1     -15.776 -11.526   0.020  1.00  0.00    -0.393 OA
HETATM   16  C   UNL     1     -16.097 -12.833   0.482  1.00  0.00     0.201 C 
ENDBRANCH  14  15
ENDBRANCH   6  14
ENDBRANCH   1   2
BRANCH   1  17
HETATM   17  C   UNL     1     -20.466 -10.491  -4.008  1.00  0.00     0.187 C 
HETATM   18  C   UNL     1     -21.106 -10.044  -2.662  1.00  0.00     0.180 C 
HETATM   19  O   UNL     1     -21.695  -8.750  -2.759  1.00  0.00    -0.348 OA
HETATM   20  C   UNL     1     -20.758  -7.717  -3.045  1.00  0.00     0.291 C 
HETATM   21  C   UNL     1     -20.188  -7.953  -4.460  1.00  0.00     0.207 C 
HETATM   22  C   UNL     1     -19.494  -9.360  -4.510  1.00  0.00     0.186 C 
BRANCH  18  23
HETATM   23  C   UNL     1     -20.176 -10.128  -1.422  1.00  0.00     0.201 C 
BRANCH  23  24
HETATM   24  O   UNL     1     -20.711 -10.973  -0.393  1.00  0.00    -0.393 OA
HETATM   25  C   UNL     1     -19.720 -11.641   0.379  1.00  0.00     0.201 C 
ENDBRANCH  23  24
ENDBRANCH  18  23
BRANCH  20  26
HETATM   26  O   UNL     1     -21.401  -6.456  -2.903  1.00  0.00    -0.363 OA
HETATM   27  C   UNL     1     -22.208  -6.430  -1.716  1.00  0.00     0.204 C 
ENDBRANCH  20  26
BRANCH  21  28
HETATM   28  O   UNL     1     -21.278  -7.843  -5.410  1.00  0.00    -0.383 OA
HETATM   29  C   UNL     1     -21.191  -6.718  -6.279  1.00  0.00     0.202 C 
ENDBRANCH  21  28
BRANCH  22  30
HETATM   30  O   UNL     1     -19.055  -9.552  -5.870  1.00  0.00    -0.385 OA
HETATM   31  C   UNL     1     -17.746  -9.128  -6.195  1.00  0.00     0.202 C 
ENDBRANCH  22  30
ENDBRANCH   1  17
TORSDOF 12
BEGIN_RES ARG D 557
REMARK  4 active torsions:
REMARK  status: ('A' for Active; 'I' for Inactive)
REMARK    1  A    between atoms: CA   and  CB  
REMARK    2  A    between atoms: CB   and  CG  
REMARK    3  A    between atoms: CG   and  CD  
REMARK    4  A    between atoms: CD   and  NE  
REMARK       I    between atoms: NE   and  CZ  
REMARK       I    between atoms: CZ   and  NH1 
REMARK       I    between atoms: CZ   and  NH2 
ROOT
ATOM      1  CA  ARG D 557     -26.217   2.705 -17.014  1.00 35.49     0.159 C 
ENDROOT
BRANCH   1   2
ATOM      2  CB  ARG D 557     -26.789   1.319 -17.183  1.00 35.49     0.034 C 
BRANCH   2   3
ATOM      3  CG  ARG D 557     -25.836   0.203 -17.150  1.00 35.49     0.027 C 
BRANCH   3   4
ATOM      4  CD  ARG D 557     -24.766   0.404 -16.147  1.00 35.49     0.116 C 
BRANCH   4   5
ATOM      5  NE  ARG D 557     -24.917  -0.467 -15.011  1.00 35.49    -0.212 N 
ATOM      6  CZ  ARG D 557     -24.101  -1.441 -14.676  1.00 35.49     0.666 C 
ATOM      7  NH1 ARG D 557     -23.026  -1.741 -15.382  1.00 35.49    -0.235 N 
ATOM      8  NH2 ARG D 557     -24.382  -2.116 -13.599  1.00 35.49    -0.235 N 
ATOM      9  HH  ARG D 557     -22.821  -1.308 -16.092  1.00 35.49     0.174 HD
ATOM     10  HH  ARG D 557     -22.529  -2.385 -15.113  1.00 35.49     0.174 HD
ATOM     11  HH  ARG D 557     -25.079  -1.896 -13.159  1.00 35.49     0.174 HD
ATOM     12  HH  ARG D 557     -23.877  -2.750 -13.349  1.00 35.49     0.174 HD
ATOM     13  HE  ARG D 557     -25.622  -0.392 -14.541  1.00 35.49     0.178 HD
ENDBRANCH   4   5
ENDBRANCH   3   4
ENDBRANCH   2   3
ENDBRANCH   1   2
END_RES ARG D 557
BEGIN_RES GLU D 570
REMARK  3 active torsions:
REMARK  status: ('A' for Active; 'I' for Inactive)
REMARK    5  A    between atoms: CA   and  CB  
REMARK    6  A    between atoms: CB   and  CG  
REMARK    7  A    between atoms: CG   and  CD  
ROOT
ATOM     14  CA  GLU D 570     -18.033  -6.348 -13.375  1.00 32.92     0.160 C 
ENDROOT
BRANCH  14  15
ATOM     15  CB  GLU D 570     -19.500  -6.345 -13.794  1.00 32.92     0.043 C 
BRANCH  15  16
ATOM     16  CG  GLU D 570     -19.805  -6.043 -15.216  1.00 32.92     0.100 C 
BRANCH  16  17
ATOM     17  CD  GLU D 570     -21.118  -5.317 -15.396  1.00 32.92     0.185 C 
ATOM     18  OE1 GLU D 570     -21.648  -5.296 -16.524  1.00 32.92    -0.647 OA
ATOM     19  OE2 GLU D 570     -21.613  -4.749 -14.403  1.00 32.92    -0.647 OA
ENDBRANCH  16  17
ENDBRANCH  15  16
ENDBRANCH  14  15
END_RES GLU D 570
ENDMDL
MODEL 9
REMARK VINA RESULT:      -3.7      3.029      4.291
REMARK  12 active torsions:
REMARK  status: ('A' for Active; 'I' for Inactive)
REMARK    1  A    between atoms: O_2  and  C_3 
REMARK    2  A    between atoms: C_3  and  C_4 
REMARK    3  A    between atoms: C_5  and  O_30 
REMARK    4  A    between atoms: C_6  and  O_28 
REMARK    5  A    between atoms: C_7  and  O_26 
REMARK    6  A    between atoms: C_8  and  O_10 
REMARK    7  A    between atoms: O_10  and  C_11 
REMARK    8  A    between atoms: C_12  and  C_23 
REMARK    9  A    between atoms: C_14  and  O_21 
REMARK   10  A    between atoms: C_15  and  O_19 
REMARK   11  A    between atoms: C_16  and  O_17 
REMARK   12  A    between atoms: C_23  and  O_24 
ROOT
HETATM    1  O   UNL     1     -19.092 -11.655  -2.732  1.00  0.00    -0.348 OA
ENDROOT
BRANCH   1   2
HETATM    2  C   UNL     1     -17.755 -11.967  -2.257  1.00  0.00     0.292 C 
HETATM    3  C   UNL     1     -16.897 -12.607  -3.359  1.00  0.00     0.207 C 
HETATM    4  C   UNL     1     -15.494 -13.008  -2.885  1.00  0.00     0.186 C 
HETATM    5  C   UNL     1     -15.533 -13.833  -1.592  1.00  0.00     0.183 C 
HETATM    6  C   UNL     1     -16.610 -13.329  -0.586  1.00  0.00     0.180 C 
HETATM    7  O   UNL     1     -17.854 -12.905  -1.175  1.00  0.00    -0.348 OA
BRANCH   3   8
HETATM    8  O   UNL     1     -17.558 -13.647  -4.112  1.00  0.00    -0.383 OA
HETATM    9  C   UNL     1     -17.861 -13.444  -5.477  1.00  0.00     0.202 C 
ENDBRANCH   3   8
BRANCH   4  10
HETATM   10  O   UNL     1     -14.942 -13.741  -3.997  1.00  0.00    -0.385 OA
HETATM   11  C   UNL     1     -13.708 -13.312  -4.524  1.00  0.00     0.202 C 
ENDBRANCH   4  10
BRANCH   5  12
HETATM   12  O   UNL     1     -14.223 -13.834  -0.987  1.00  0.00    -0.385 OA
HETATM   13  C   UNL     1     -13.713 -15.148  -0.775  1.00  0.00     0.202 C 
ENDBRANCH   5  12
BRANCH   6  14
HETATM   14  C   UNL     1     -16.060 -12.300   0.428  1.00  0.00     0.201 C 
BRANCH  14  15
HETATM   15  O   UNL     1     -16.356 -12.617   1.793  1.00  0.00    -0.393 OA
HETATM   16  C   UNL     1     -15.465 -13.563   2.373  1.00  0.00     0.201 C 
ENDBRANCH  14  15
ENDBRANCH   6  14
ENDBRANCH   1   2
BRANCH   1  17
HETATM   17  C   UNL     1     -19.509 -10.272  -2.641  1.00  0.00     0.187 C 
HETATM   18  C   UNL     1     -19.003  -9.429  -3.847  1.00  0.00     0.180 C 
HETATM   19  O   UNL     1     -19.501  -8.095  -3.808  1.00  0.00    -0.348 OA
HETATM   20  C   UNL     1     -20.919  -8.011  -3.911  1.00  0.00     0.291 C 
HETATM   21  C   UNL     1     -21.538  -8.657  -2.653  1.00  0.00     0.207 C 
HETATM   22  C   UNL     1     -21.076 -10.155  -2.560  1.00  0.00     0.186 C 
BRANCH  18  23
HETATM   23  C   UNL     1     -19.242 -10.059  -5.246  1.00  0.00     0.201 C 
BRANCH  23  24
HETATM   24  O   UNL     1     -18.293  -9.601  -6.221  1.00  0.00    -0.393 OA
HETATM   25  C   UNL     1     -16.939  -9.882  -5.885  1.00  0.00     0.201 C 
ENDBRANCH  23  24
ENDBRANCH  18  23
BRANCH  20  26
HETATM   26  O   UNL     1     -21.292  -6.650  -4.084  1.00  0.00    -0.363 OA
HETATM   27  C   UNL     1     -22.362  -6.534  -5.032  1.00  0.00     0.204 C 
ENDBRANCH  20  26
BRANCH  21  28
HETATM   28  O   UNL     1     -21.128  -7.882  -1.499  1.00  0.00    -0.383 OA
HETATM   29  C   UNL     1     -22.199  -7.259  -0.797  1.00  0.00     0.202 C 
ENDBRANCH  21  28
BRANCH  22  30
HETATM   30  O   UNL     1     -21.621 -10.675  -1.330  1.00  0.00    -0.385 OA
HETATM   31  C   UNL     1     -22.952 -11.149  -1.360  1.00  0.00     0.202 C 
ENDBRANCH  22  30
ENDBRANCH   1  17
TORSDOF 12
BEGIN_RES ARG D 557
REMARK  4 active torsions:
REMARK  status: ('A' for Active; 'I' for Inactive)
REMARK    1  A    between atoms: CA   and  CB  
REMARK    2  A    between atoms: CB   and  CG  
REMARK    3  A    between atoms: CG   and  CD  
REMARK    4  A    between atoms: CD   and  NE  
REMARK       I    between atoms: NE   and  CZ  
REMARK       I    between atoms: CZ   and  NH1 
REMARK       I    between atoms: CZ   and  NH2 
ROOT
ATOM      1  CA  ARG D 557     -26.217   2.705 -17.014  1.00 35.49     0.159 C 
ENDROOT
BRANCH   1   2
ATOM      2  CB  ARG D 557     -26.789   1.319 -17.183  1.00 35.49     0.034 C 
BRANCH   2   3
ATOM      3  CG  ARG D 557     -28.183   1.124 -16.766  1.00 35.49     0.027 C 
BRANCH   3   4
ATOM      4  CD  ARG D 557     -28.718  -0.192 -17.184  1.00 35.49     0.116 C 
BRANCH   4   5
ATOM      5  NE  ARG D 557     -27.980  -1.285 -16.608  1.00 35.49    -0.212 N 
ATOM      6  CZ  ARG D 557     -28.235  -2.562 -16.787  1.00 35.49     0.666 C 
ATOM      7  NH1 ARG D 557     -29.241  -2.987 -17.529  1.00 35.49    -0.235 N 
ATOM      8  NH2 ARG D 557     -27.447  -3.419 -16.205  1.00 35.49    -0.235 N 
ATOM      9  HH  ARG D 557     -29.770  -2.441 -17.924  1.00 35.49     0.174 HD
ATOM     10  HH  ARG D 557     -29.357  -3.832 -17.612  1.00 35.49     0.174 HD
ATOM     11  HH  ARG D 557     -26.802  -3.115 -15.737  1.00 35.49     0.174 HD
ATOM     12  HH  ARG D 557     -27.578  -4.251 -16.300  1.00 35.49     0.174 HD
ATOM     13  HE  ARG D 557     -27.359  -1.102 -16.057  1.00 35.49     0.178 HD
ENDBRANCH   4   5
ENDBRANCH   3   4
ENDBRANCH   2   3
ENDBRANCH   1   2
END_RES ARG D 557
BEGIN_RES GLU D 570
REMARK  3 active torsions:
REMARK  status: ('A' for Active; 'I' for Inactive)
REMARK    5  A    between atoms: CA   and  CB  
REMARK    6  A    between atoms: CB   and  CG  
REMARK    7  A    between atoms: CG   and  CD  
ROOT
ATOM     14  CA  GLU D 570     -18.033  -6.348 -13.375  1.00 32.92     0.160 C 
ENDROOT
BRANCH  14  15
ATOM     15  CB  GLU D 570     -19.500  -6.345 -13.794  1.00 32.92     0.043 C 
BRANCH  15  16
ATOM     16  CG  GLU D 570     -20.058  -7.608 -14.343  1.00 32.92     0.100 C 
BRANCH  16  17
ATOM     17  CD  GLU D 570     -20.774  -7.413 -15.659  1.00 32.92     0.185 C 
ATOM     18  OE1 GLU D 570     -21.619  -8.254 -16.019  1.00 32.92    -0.647 OA
ATOM     19  OE2 GLU D 570     -20.474  -6.416 -16.346  1.00 32.92    -0.647 OA
ENDBRANCH  16  17
ENDBRANCH  15  16
ENDBRANCH  14  15
END_RES GLU D 570
ENDMDL
