MODEL 1
REMARK VINA RESULT:      -6.2      0.000      0.000
REMARK  10 active torsions:
REMARK  status: ('A' for Active; 'I' for Inactive)
REMARK    1  A    between atoms: C_2  and  C_4 
REMARK    2  A    between atoms: C_4  and  C_5 
REMARK    3  A    between atoms: C_5  and  C_6 
REMARK    4  A    between atoms: C_6  and  C_7 
REMARK    5  A    between atoms: C_7  and  C_8 
REMARK    6  A    between atoms: C_8  and  C_9 
REMARK    7  A    between atoms: C_9  and  C_10 
REMARK    8  A    between atoms: C_10  and  O_11 
REMARK    9  A    between atoms: O_11  and  C_12 
REMARK   10  A    between atoms: C_12  and  C_14 
ROOT
HETATM    1  C   UNL     1     -36.294  -0.862 -10.565  1.00  0.00     0.027 C 
ENDROOT
BRANCH   1   2
HETATM    2  C   UNL     1     -35.694  -2.192 -11.010  1.00  0.00     0.002 C 
BRANCH   2   3
HETATM    3  C   UNL     1     -34.327  -2.020 -11.671  1.00  0.00     0.000 C 
BRANCH   3   4
HETATM    4  C   UNL     1     -33.232  -2.840 -10.986  1.00  0.00     0.000 C 
BRANCH   4   5
HETATM    5  C   UNL     1     -32.733  -3.952 -11.900  1.00  0.00     0.000 C 
BRANCH   5   6
HETATM    6  C   UNL     1     -32.916  -5.322 -11.245  1.00  0.00     0.004 C 
BRANCH   6   7
HETATM    7  C   UNL     1     -34.394  -5.678 -11.011  1.00  0.00    -0.023 C 
HETATM    8  C   UNL     1     -35.116  -5.801 -12.353  1.00  0.00     0.009 C 
HETATM    9  C   UNL     1     -34.559  -6.973 -10.213  1.00  0.00     0.009 C 
ENDBRANCH   6   7
ENDBRANCH   5   6
ENDBRANCH   4   5
ENDBRANCH   3   4
ENDBRANCH   2   3
ENDBRANCH   1   2
BRANCH   1  10
HETATM   10  C   UNL     1     -37.373  -0.374 -11.521  1.00  0.00     0.178 C 
BRANCH  10  11
HETATM   11  O   UNL     1     -36.768   0.385 -12.577  1.00  0.00    -0.321 OA
BRANCH  11  12
HETATM   12  C   UNL     1     -36.972  -0.100 -13.838  1.00  0.00     0.266 C 
HETATM   13  O   UNL     1     -37.943  -0.774 -14.171  1.00  0.00    -0.264 OA
BRANCH  12  14
HETATM   14  C   UNL     1     -35.841   0.311 -14.778  1.00  0.00     0.037 C 
HETATM   15  C   UNL     1     -34.660   0.825 -13.944  1.00  0.00     0.025 C 
HETATM   16  C   UNL     1     -35.394  -0.914 -15.592  1.00  0.00     0.025 C 
HETATM   17  C   UNL     1     -36.324   1.401 -15.744  1.00  0.00     0.025 C 
ENDBRANCH  12  14
ENDBRANCH  11  12
ENDBRANCH  10  11
ENDBRANCH   1  10
TORSDOF 10
BEGIN_RES ARG D 557
REMARK  4 active torsions:
REMARK  status: ('A' for Active; 'I' for Inactive)
REMARK    1  A    between atoms: CA   and  CB  
REMARK    2  A    between atoms: CB   and  CG  
REMARK    3  A    between atoms: CG   and  CD  
REMARK    4  A    between atoms: CD   and  NE  
REMARK       I    between atoms: NE   and  CZ  
REMARK       I    between atoms: CZ   and  NH1 
REMARK       I    between atoms: CZ   and  NH2 
ROOT
ATOM      1  CA  ARG D 557     -26.217   2.705 -17.014  1.00 35.49     0.159 C 
ENDROOT
BRANCH   1   2
ATOM      2  CB  ARG D 557     -26.789   1.319 -17.183  1.00 35.49     0.034 C 
BRANCH   2   3
ATOM      3  CG  ARG D 557     -28.231   1.226 -17.439  1.00 35.49     0.027 C 
BRANCH   3   4
ATOM      4  CD  ARG D 557     -28.914   0.308 -16.499  1.00 35.49     0.116 C 
BRANCH   4   5
ATOM      5  NE  ARG D 557     -29.312  -0.921 -17.134  1.00 35.49    -0.212 N 
ATOM      6  CZ  ARG D 557     -28.685  -2.072 -17.041  1.00 35.49     0.666 C 
ATOM      7  NH1 ARG D 557     -27.576  -2.221 -16.340  1.00 35.49    -0.235 N 
ATOM      8  NH2 ARG D 557     -29.201  -3.089 -17.668  1.00 35.49    -0.235 N 
ATOM      9  HH  ARG D 557     -27.220  -1.566 -15.918  1.00 35.49     0.174 HD
ATOM     10  HH  ARG D 557     -27.213  -2.996 -16.314  1.00 35.49     0.174 HD
ATOM     11  HH  ARG D 557     -29.922  -2.965 -18.106  1.00 35.49     0.174 HD
ATOM     12  HH  ARG D 557     -28.827  -3.849 -17.628  1.00 35.49     0.174 HD
ATOM     13  HE  ARG D 557     -29.977  -0.899 -17.665  1.00 35.49     0.178 HD
ENDBRANCH   4   5
ENDBRANCH   3   4
ENDBRANCH   2   3
ENDBRANCH   1   2
END_RES ARG D 557
BEGIN_RES GLU D 570
REMARK  3 active torsions:
REMARK  status: ('A' for Active; 'I' for Inactive)
REMARK    5  A    between atoms: CA   and  CB  
REMARK    6  A    between atoms: CB   and  CG  
REMARK    7  A    between atoms: CG   and  CD  
ROOT
ATOM     14  CA  GLU D 570     -18.033  -6.348 -13.375  1.00 32.92     0.160 C 
ENDROOT
BRANCH  14  15
ATOM     15  CB  GLU D 570     -19.500  -6.345 -13.794  1.00 32.92     0.043 C 
BRANCH  15  16
ATOM     16  CG  GLU D 570     -20.440  -5.520 -12.991  1.00 32.92     0.100 C 
BRANCH  16  17
ATOM     17  CD  GLU D 570     -21.737  -5.236 -13.711  1.00 32.92     0.185 C 
ATOM     18  OE1 GLU D 570     -22.335  -4.167 -13.482  1.00 32.92    -0.647 OA
ATOM     19  OE2 GLU D 570     -22.169  -6.099 -14.500  1.00 32.92    -0.647 OA
ENDBRANCH  16  17
ENDBRANCH  15  16
ENDBRANCH  14  15
END_RES GLU D 570
ENDMDL
MODEL 2
REMARK VINA RESULT:      -6.2      8.454     12.542
REMARK  10 active torsions:
REMARK  status: ('A' for Active; 'I' for Inactive)
REMARK    1  A    between atoms: C_2  and  C_4 
REMARK    2  A    between atoms: C_4  and  C_5 
REMARK    3  A    between atoms: C_5  and  C_6 
REMARK    4  A    between atoms: C_6  and  C_7 
REMARK    5  A    between atoms: C_7  and  C_8 
REMARK    6  A    between atoms: C_8  and  C_9 
REMARK    7  A    between atoms: C_9  and  C_10 
REMARK    8  A    between atoms: C_10  and  O_11 
REMARK    9  A    between atoms: O_11  and  C_12 
REMARK   10  A    between atoms: C_12  and  C_14 
ROOT
HETATM    1  C   UNL     1     -19.868  -4.821  -6.781  1.00  0.00     0.027 C 
ENDROOT
BRANCH   1   2
HETATM    2  C   UNL     1     -20.337  -4.992  -5.340  1.00  0.00     0.002 C 
BRANCH   2   3
HETATM    3  C   UNL     1     -20.889  -6.392  -5.072  1.00  0.00     0.000 C 
BRANCH   3   4
HETATM    4  C   UNL     1     -21.922  -6.412  -3.942  1.00  0.00     0.000 C 
BRANCH   4   5
HETATM    5  C   UNL     1     -21.265  -6.760  -2.613  1.00  0.00     0.000 C 
BRANCH   5   6
HETATM    6  C   UNL     1     -22.266  -6.646  -1.462  1.00  0.00     0.004 C 
BRANCH   6   7
HETATM    7  C   UNL     1     -21.917  -7.561  -0.276  1.00  0.00    -0.023 C 
HETATM    8  C   UNL     1     -23.199  -8.030   0.411  1.00  0.00     0.009 C 
HETATM    9  C   UNL     1     -21.084  -8.771  -0.702  1.00  0.00     0.009 C 
ENDBRANCH   6   7
ENDBRANCH   5   6
ENDBRANCH   4   5
ENDBRANCH   3   4
ENDBRANCH   2   3
ENDBRANCH   1   2
BRANCH   1  10
HETATM   10  C   UNL     1     -20.668  -3.756  -7.520  1.00  0.00     0.178 C 
BRANCH  10  11
HETATM   11  O   UNL     1     -21.405  -4.368  -8.586  1.00  0.00    -0.321 OA
BRANCH  11  12
HETATM   12  C   UNL     1     -22.765  -4.279  -8.484  1.00  0.00     0.266 C 
HETATM   13  O   UNL     1     -23.390  -4.420  -7.437  1.00  0.00    -0.264 OA
BRANCH  12  14
HETATM   14  C   UNL     1     -23.402  -3.976  -9.839  1.00  0.00     0.037 C 
HETATM   15  C   UNL     1     -23.721  -5.298 -10.549  1.00  0.00     0.025 C 
HETATM   16  C   UNL     1     -24.704  -3.189  -9.616  1.00  0.00     0.025 C 
HETATM   17  C   UNL     1     -22.450  -3.129 -10.694  1.00  0.00     0.025 C 
ENDBRANCH  12  14
ENDBRANCH  11  12
ENDBRANCH  10  11
ENDBRANCH   1  10
TORSDOF 10
BEGIN_RES ARG D 557
REMARK  4 active torsions:
REMARK  status: ('A' for Active; 'I' for Inactive)
REMARK    1  A    between atoms: CA   and  CB  
REMARK    2  A    between atoms: CB   and  CG  
REMARK    3  A    between atoms: CG   and  CD  
REMARK    4  A    between atoms: CD   and  NE  
REMARK       I    between atoms: NE   and  CZ  
REMARK       I    between atoms: CZ   and  NH1 
REMARK       I    between atoms: CZ   and  NH2 
ROOT
ATOM      1  CA  ARG D 557     -26.217   2.705 -17.014  1.00 35.49     0.159 C 
ENDROOT
BRANCH   1   2
ATOM      2  CB  ARG D 557     -26.789   1.319 -17.183  1.00 35.49     0.034 C 
BRANCH   2   3
ATOM      3  CG  ARG D 557     -25.925   0.196 -16.798  1.00 35.49     0.027 C 
BRANCH   3   4
ATOM      4  CD  ARG D 557     -26.662  -0.857 -16.063  1.00 35.49     0.116 C 
BRANCH   4   5
ATOM      5  NE  ARG D 557     -25.900  -1.385 -14.963  1.00 35.49    -0.212 N 
ATOM      6  CZ  ARG D 557     -25.866  -2.644 -14.586  1.00 35.49     0.666 C 
ATOM      7  NH1 ARG D 557     -26.566  -3.585 -15.193  1.00 35.49    -0.235 N 
ATOM      8  NH2 ARG D 557     -25.102  -2.948 -13.578  1.00 35.49    -0.235 N 
ATOM      9  HH  ARG D 557     -27.074  -3.407 -15.860  1.00 35.49     0.174 HD
ATOM     10  HH  ARG D 557     -26.502  -4.389 -14.905  1.00 35.49     0.174 HD
ATOM     11  HH  ARG D 557     -24.656  -2.321 -13.210  1.00 35.49     0.174 HD
ATOM     12  HH  ARG D 557     -25.051  -3.750 -13.308  1.00 35.49     0.174 HD
ATOM     13  HE  ARG D 557     -25.476  -0.836 -14.471  1.00 35.49     0.178 HD
ENDBRANCH   4   5
ENDBRANCH   3   4
ENDBRANCH   2   3
ENDBRANCH   1   2
END_RES ARG D 557
BEGIN_RES GLU D 570
REMARK  3 active torsions:
REMARK  status: ('A' for Active; 'I' for Inactive)
REMARK    5  A    between atoms: CA   and  CB  
REMARK    6  A    between atoms: CB   and  CG  
REMARK    7  A    between atoms: CG   and  CD  
ROOT
ATOM     14  CA  GLU D 570     -18.033  -6.348 -13.375  1.00 32.92     0.160 C 
ENDROOT
BRANCH  14  15
ATOM     15  CB  GLU D 570     -19.500  -6.345 -13.794  1.00 32.92     0.043 C 
BRANCH  15  16
ATOM     16  CG  GLU D 570     -20.411  -5.406 -13.090  1.00 32.92     0.100 C 
BRANCH  16  17
ATOM     17  CD  GLU D 570     -21.738  -5.234 -13.792  1.00 32.92     0.185 C 
ATOM     18  OE1 GLU D 570     -22.282  -4.114 -13.791  1.00 32.92    -0.647 OA
ATOM     19  OE2 GLU D 570     -22.246  -6.235 -14.334  1.00 32.92    -0.647 OA
ENDBRANCH  16  17
ENDBRANCH  15  16
ENDBRANCH  14  15
END_RES GLU D 570
ENDMDL
MODEL 3
REMARK VINA RESULT:      -6.1      7.168     11.388
REMARK  10 active torsions:
REMARK  status: ('A' for Active; 'I' for Inactive)
REMARK    1  A    between atoms: C_2  and  C_4 
REMARK    2  A    between atoms: C_4  and  C_5 
REMARK    3  A    between atoms: C_5  and  C_6 
REMARK    4  A    between atoms: C_6  and  C_7 
REMARK    5  A    between atoms: C_7  and  C_8 
REMARK    6  A    between atoms: C_8  and  C_9 
REMARK    7  A    between atoms: C_9  and  C_10 
REMARK    8  A    between atoms: C_10  and  O_11 
REMARK    9  A    between atoms: O_11  and  C_12 
REMARK   10  A    between atoms: C_12  and  C_14 
ROOT
HETATM    1  C   UNL     1     -21.680  -4.009  -8.407  1.00  0.00     0.027 C 
ENDROOT
BRANCH   1   2
HETATM    2  C   UNL     1     -21.265  -3.723  -6.968  1.00  0.00     0.002 C 
BRANCH   2   3
HETATM    3  C   UNL     1     -20.407  -4.842  -6.378  1.00  0.00     0.000 C 
BRANCH   3   4
HETATM    4  C   UNL     1     -20.971  -6.235  -6.669  1.00  0.00     0.000 C 
BRANCH   4   5
HETATM    5  C   UNL     1     -21.234  -6.996  -5.376  1.00  0.00     0.000 C 
BRANCH   5   6
HETATM    6  C   UNL     1     -21.309  -6.040  -4.184  1.00  0.00     0.004 C 
BRANCH   6   7
HETATM    7  C   UNL     1     -21.187  -6.762  -2.833  1.00  0.00    -0.023 C 
HETATM    8  C   UNL     1     -22.221  -6.207  -1.854  1.00  0.00     0.009 C 
HETATM    9  C   UNL     1     -21.359  -8.276  -2.966  1.00  0.00     0.009 C 
ENDBRANCH   6   7
ENDBRANCH   5   6
ENDBRANCH   4   5
ENDBRANCH   3   4
ENDBRANCH   2   3
ENDBRANCH   1   2
BRANCH   1  10
HETATM   10  C   UNL     1     -23.194  -4.039  -8.570  1.00  0.00     0.178 C 
BRANCH  10  11
HETATM   11  O   UNL     1     -23.523  -4.558  -9.865  1.00  0.00    -0.321 OA
BRANCH  11  12
HETATM   12  C   UNL     1     -24.293  -3.742 -10.645  1.00  0.00     0.266 C 
HETATM   13  O   UNL     1     -25.318  -3.186 -10.261  1.00  0.00    -0.264 OA
BRANCH  12  14
HETATM   14  C   UNL     1     -23.709  -3.606 -12.049  1.00  0.00     0.037 C 
HETATM   15  C   UNL     1     -24.729  -2.896 -12.949  1.00  0.00     0.025 C 
HETATM   16  C   UNL     1     -22.422  -2.768 -11.978  1.00  0.00     0.025 C 
HETATM   17  C   UNL     1     -23.370  -4.991 -12.618  1.00  0.00     0.025 C 
ENDBRANCH  12  14
ENDBRANCH  11  12
ENDBRANCH  10  11
ENDBRANCH   1  10
TORSDOF 10
BEGIN_RES ARG D 557
REMARK  4 active torsions:
REMARK  status: ('A' for Active; 'I' for Inactive)
REMARK    1  A    between atoms: CA   and  CB  
REMARK    2  A    between atoms: CB   and  CG  
REMARK    3  A    between atoms: CG   and  CD  
REMARK    4  A    between atoms: CD   and  NE  
REMARK       I    between atoms: NE   and  CZ  
REMARK       I    between atoms: CZ   and  NH1 
REMARK       I    between atoms: CZ   and  NH2 
ROOT
ATOM      1  CA  ARG D 557     -26.217   2.705 -17.014  1.00 35.49     0.159 C 
ENDROOT
BRANCH   1   2
ATOM      2  CB  ARG D 557     -26.789   1.319 -17.183  1.00 35.49     0.034 C 
BRANCH   2   3
ATOM      3  CG  ARG D 557     -28.226   1.228 -17.471  1.00 35.49     0.027 C 
BRANCH   3   4
ATOM      4  CD  ARG D 557     -28.913   0.243 -16.605  1.00 35.49     0.116 C 
BRANCH   4   5
ATOM      5  NE  ARG D 557     -28.032  -0.811 -16.176  1.00 35.49    -0.212 N 
ATOM      6  CZ  ARG D 557     -28.094  -2.067 -16.556  1.00 35.49     0.666 C 
ATOM      7  NH1 ARG D 557     -29.015  -2.511 -17.391  1.00 35.49    -0.235 N 
ATOM      8  NH2 ARG D 557     -27.198  -2.883 -16.081  1.00 35.49    -0.235 N 
ATOM      9  HH  ARG D 557     -29.613  -1.991 -17.717  1.00 35.49     0.174 HD
ATOM     10  HH  ARG D 557     -29.005  -3.340 -17.605  1.00 35.49     0.174 HD
ATOM     11  HH  ARG D 557     -26.611  -2.567 -15.550  1.00 35.49     0.174 HD
ATOM     12  HH  ARG D 557     -27.204  -3.700 -16.306  1.00 35.49     0.174 HD
ATOM     13  HE  ARG D 557     -27.452  -0.629 -15.580  1.00 35.49     0.178 HD
ENDBRANCH   4   5
ENDBRANCH   3   4
ENDBRANCH   2   3
ENDBRANCH   1   2
END_RES ARG D 557
BEGIN_RES GLU D 570
REMARK  3 active torsions:
REMARK  status: ('A' for Active; 'I' for Inactive)
REMARK    5  A    between atoms: CA   and  CB  
REMARK    6  A    between atoms: CB   and  CG  
REMARK    7  A    between atoms: CG   and  CD  
ROOT
ATOM     14  CA  GLU D 570     -18.033  -6.348 -13.375  1.00 32.92     0.160 C 
ENDROOT
BRANCH  14  15
ATOM     15  CB  GLU D 570     -19.500  -6.345 -13.794  1.00 32.92     0.043 C 
BRANCH  15  16
ATOM     16  CG  GLU D 570     -19.798  -6.208 -15.243  1.00 32.92     0.100 C 
BRANCH  16  17
ATOM     17  CD  GLU D 570     -21.258  -5.938 -15.522  1.00 32.92     0.185 C 
ATOM     18  OE1 GLU D 570     -22.078  -6.869 -15.410  1.00 32.92    -0.647 OA
ATOM     19  OE2 GLU D 570     -21.582  -4.786 -15.873  1.00 32.92    -0.647 OA
ENDBRANCH  16  17
ENDBRANCH  15  16
ENDBRANCH  14  15
END_RES GLU D 570
ENDMDL
MODEL 4
REMARK VINA RESULT:      -6.1      1.537      2.039
REMARK  10 active torsions:
REMARK  status: ('A' for Active; 'I' for Inactive)
REMARK    1  A    between atoms: C_2  and  C_4 
REMARK    2  A    between atoms: C_4  and  C_5 
REMARK    3  A    between atoms: C_5  and  C_6 
REMARK    4  A    between atoms: C_6  and  C_7 
REMARK    5  A    between atoms: C_7  and  C_8 
REMARK    6  A    between atoms: C_8  and  C_9 
REMARK    7  A    between atoms: C_9  and  C_10 
REMARK    8  A    between atoms: C_10  and  O_11 
REMARK    9  A    between atoms: O_11  and  C_12 
REMARK   10  A    between atoms: C_12  and  C_14 
ROOT
HETATM    1  C   UNL     1     -36.987  -0.121 -10.209  1.00  0.00     0.027 C 
ENDROOT
BRANCH   1   2
HETATM    2  C   UNL     1     -36.213  -1.358  -9.767  1.00  0.00     0.002 C 
BRANCH   2   3
HETATM    3  C   UNL     1     -35.566  -2.089 -10.943  1.00  0.00     0.000 C 
BRANCH   3   4
HETATM    4  C   UNL     1     -34.060  -1.835 -11.039  1.00  0.00     0.000 C 
BRANCH   4   5
HETATM    5  C   UNL     1     -33.305  -3.135 -11.283  1.00  0.00     0.000 C 
BRANCH   5   6
HETATM    6  C   UNL     1     -33.855  -4.261 -10.406  1.00  0.00     0.004 C 
BRANCH   6   7
HETATM    7  C   UNL     1     -33.975  -5.597 -11.158  1.00  0.00    -0.023 C 
HETATM    8  C   UNL     1     -34.544  -6.666 -10.226  1.00  0.00     0.009 C 
HETATM    9  C   UNL     1     -34.846  -5.483 -12.410  1.00  0.00     0.009 C 
ENDBRANCH   6   7
ENDBRANCH   5   6
ENDBRANCH   4   5
ENDBRANCH   3   4
ENDBRANCH   2   3
ENDBRANCH   1   2
BRANCH   1  10
HETATM   10  C   UNL     1     -37.737  -0.352 -11.515  1.00  0.00     0.178 C 
BRANCH  10  11
HETATM   11  O   UNL     1     -37.158   0.457 -12.547  1.00  0.00    -0.321 OA
BRANCH  11  12
HETATM   12  C   UNL     1     -37.152  -0.100 -13.795  1.00  0.00     0.266 C 
HETATM   13  O   UNL     1     -38.074  -0.764 -14.259  1.00  0.00    -0.264 OA
BRANCH  12  14
HETATM   14  C   UNL     1     -35.854   0.216 -14.534  1.00  0.00     0.037 C 
HETATM   15  C   UNL     1     -34.856   0.840 -13.549  1.00  0.00     0.025 C 
HETATM   16  C   UNL     1     -35.265  -1.089 -15.097  1.00  0.00     0.025 C 
HETATM   17  C   UNL     1     -36.127   1.180 -15.697  1.00  0.00     0.025 C 
ENDBRANCH  12  14
ENDBRANCH  11  12
ENDBRANCH  10  11
ENDBRANCH   1  10
TORSDOF 10
BEGIN_RES ARG D 557
REMARK  4 active torsions:
REMARK  status: ('A' for Active; 'I' for Inactive)
REMARK    1  A    between atoms: CA   and  CB  
REMARK    2  A    between atoms: CB   and  CG  
REMARK    3  A    between atoms: CG   and  CD  
REMARK    4  A    between atoms: CD   and  NE  
REMARK       I    between atoms: NE   and  CZ  
REMARK       I    between atoms: CZ   and  NH1 
REMARK       I    between atoms: CZ   and  NH2 
ROOT
ATOM      1  CA  ARG D 557     -26.217   2.705 -17.014  1.00 35.49     0.159 C 
ENDROOT
BRANCH   1   2
ATOM      2  CB  ARG D 557     -26.789   1.319 -17.183  1.00 35.49     0.034 C 
BRANCH   2   3
ATOM      3  CG  ARG D 557     -25.908   0.195 -16.845  1.00 35.49     0.027 C 
BRANCH   3   4
ATOM      4  CD  ARG D 557     -26.605  -0.854 -16.065  1.00 35.49     0.116 C 
BRANCH   4   5
ATOM      5  NE  ARG D 557     -25.782  -1.382 -15.009  1.00 35.49    -0.212 N 
ATOM      6  CZ  ARG D 557     -25.745  -2.636 -14.618  1.00 35.49     0.666 C 
ATOM      7  NH1 ARG D 557     -26.499  -3.572 -15.165  1.00 35.49    -0.235 N 
ATOM      8  NH2 ARG D 557     -24.922  -2.942 -13.658  1.00 35.49    -0.235 N 
ATOM      9  HH  ARG D 557     -27.047  -3.393 -15.800  1.00 35.49     0.174 HD
ATOM     10  HH  ARG D 557     -26.431  -4.373 -14.871  1.00 35.49     0.174 HD
ATOM     11  HH  ARG D 557     -24.442  -2.319 -13.329  1.00 35.49     0.174 HD
ATOM     12  HH  ARG D 557     -24.868  -3.742 -13.381  1.00 35.49     0.174 HD
ATOM     13  HE  ARG D 557     -25.317  -0.835 -14.554  1.00 35.49     0.178 HD
ENDBRANCH   4   5
ENDBRANCH   3   4
ENDBRANCH   2   3
ENDBRANCH   1   2
END_RES ARG D 557
BEGIN_RES GLU D 570
REMARK  3 active torsions:
REMARK  status: ('A' for Active; 'I' for Inactive)
REMARK    5  A    between atoms: CA   and  CB  
REMARK    6  A    between atoms: CB   and  CG  
REMARK    7  A    between atoms: CG   and  CD  
ROOT
ATOM     14  CA  GLU D 570     -18.033  -6.348 -13.375  1.00 32.92     0.160 C 
ENDROOT
BRANCH  14  15
ATOM     15  CB  GLU D 570     -19.500  -6.345 -13.794  1.00 32.92     0.043 C 
BRANCH  15  16
ATOM     16  CG  GLU D 570     -20.448  -5.558 -12.963  1.00 32.92     0.100 C 
BRANCH  16  17
ATOM     17  CD  GLU D 570     -21.717  -5.198 -13.699  1.00 32.92     0.185 C 
ATOM     18  OE1 GLU D 570     -22.751  -4.964 -13.043  1.00 32.92    -0.647 OA
ATOM     19  OE2 GLU D 570     -21.682  -5.166 -14.944  1.00 32.92    -0.647 OA
ENDBRANCH  16  17
ENDBRANCH  15  16
ENDBRANCH  14  15
END_RES GLU D 570
ENDMDL
MODEL 5
REMARK VINA RESULT:      -6.0      7.384      9.945
REMARK  10 active torsions:
REMARK  status: ('A' for Active; 'I' for Inactive)
REMARK    1  A    between atoms: C_2  and  C_4 
REMARK    2  A    between atoms: C_4  and  C_5 
REMARK    3  A    between atoms: C_5  and  C_6 
REMARK    4  A    between atoms: C_6  and  C_7 
REMARK    5  A    between atoms: C_7  and  C_8 
REMARK    6  A    between atoms: C_8  and  C_9 
REMARK    7  A    between atoms: C_9  and  C_10 
REMARK    8  A    between atoms: C_10  and  O_11 
REMARK    9  A    between atoms: O_11  and  C_12 
REMARK   10  A    between atoms: C_12  and  C_14 
ROOT
HETATM    1  C   UNL     1     -23.943  -5.602 -14.941  1.00  0.00     0.027 C 
ENDROOT
BRANCH   1   2
HETATM    2  C   UNL     1     -23.436  -6.059 -13.578  1.00  0.00     0.002 C 
BRANCH   2   3
HETATM    3  C   UNL     1     -22.803  -4.919 -12.781  1.00  0.00     0.000 C 
BRANCH   3   4
HETATM    4  C   UNL     1     -23.445  -4.732 -11.405  1.00  0.00     0.000 C 
BRANCH   4   5
HETATM    5  C   UNL     1     -22.653  -3.738 -10.566  1.00  0.00     0.000 C 
BRANCH   5   6
HETATM    6  C   UNL     1     -22.806  -4.037  -9.074  1.00  0.00     0.004 C 
BRANCH   6   7
HETATM    7  C   UNL     1     -21.485  -4.465  -8.413  1.00  0.00    -0.023 C 
HETATM    8  C   UNL     1     -20.334  -4.306  -9.405  1.00  0.00     0.009 C 
HETATM    9  C   UNL     1     -21.188  -3.667  -7.141  1.00  0.00     0.009 C 
ENDBRANCH   6   7
ENDBRANCH   5   6
ENDBRANCH   4   5
ENDBRANCH   3   4
ENDBRANCH   2   3
ENDBRANCH   1   2
BRANCH   1  10
HETATM   10  C   UNL     1     -24.610  -6.733 -15.712  1.00  0.00     0.178 C 
BRANCH  10  11
HETATM   11  O   UNL     1     -25.706  -6.209 -16.473  1.00  0.00    -0.321 OA
BRANCH  11  12
HETATM   12  C   UNL     1     -26.950  -6.562 -16.028  1.00  0.00     0.266 C 
HETATM   13  O   UNL     1     -27.168  -7.484 -15.248  1.00  0.00    -0.264 OA
BRANCH  12  14
HETATM   14  C   UNL     1     -28.027  -5.657 -16.623  1.00  0.00     0.037 C 
HETATM   15  C   UNL     1     -29.347  -5.896 -15.878  1.00  0.00     0.025 C 
HETATM   16  C   UNL     1     -27.602  -4.190 -16.447  1.00  0.00     0.025 C 
HETATM   17  C   UNL     1     -28.199  -5.950 -18.119  1.00  0.00     0.025 C 
ENDBRANCH  12  14
ENDBRANCH  11  12
ENDBRANCH  10  11
ENDBRANCH   1  10
TORSDOF 10
BEGIN_RES ARG D 557
REMARK  4 active torsions:
REMARK  status: ('A' for Active; 'I' for Inactive)
REMARK    1  A    between atoms: CA   and  CB  
REMARK    2  A    between atoms: CB   and  CG  
REMARK    3  A    between atoms: CG   and  CD  
REMARK    4  A    between atoms: CD   and  NE  
REMARK       I    between atoms: NE   and  CZ  
REMARK       I    between atoms: CZ   and  NH1 
REMARK       I    between atoms: CZ   and  NH2 
ROOT
ATOM      1  CA  ARG D 557     -26.217   2.705 -17.014  1.00 35.49     0.159 C 
ENDROOT
BRANCH   1   2
ATOM      2  CB  ARG D 557     -26.789   1.319 -17.183  1.00 35.49     0.034 C 
BRANCH   2   3
ATOM      3  CG  ARG D 557     -25.852   0.197 -17.051  1.00 35.49     0.027 C 
BRANCH   3   4
ATOM      4  CD  ARG D 557     -26.147  -0.649 -15.872  1.00 35.49     0.116 C 
BRANCH   4   5
ATOM      5  NE  ARG D 557     -24.994  -0.825 -15.028  1.00 35.49    -0.212 N 
ATOM      6  CZ  ARG D 557     -24.808  -1.809 -14.178  1.00 35.49     0.666 C 
ATOM      7  NH1 ARG D 557     -25.699  -2.765 -13.993  1.00 35.49    -0.235 N 
ATOM      8  NH2 ARG D 557     -23.691  -1.821 -13.509  1.00 35.49    -0.235 N 
ATOM      9  HH  ARG D 557     -26.439  -2.778 -14.424  1.00 35.49     0.174 HD
ATOM     10  HH  ARG D 557     -25.521  -3.383 -13.427  1.00 35.49     0.174 HD
ATOM     11  HH  ARG D 557     -23.131  -1.195 -13.654  1.00 35.49     0.174 HD
ATOM     12  HH  ARG D 557     -23.533  -2.443 -12.954  1.00 35.49     0.174 HD
ATOM     13  HE  ARG D 557     -24.402  -0.214 -15.029  1.00 35.49     0.178 HD
ENDBRANCH   4   5
ENDBRANCH   3   4
ENDBRANCH   2   3
ENDBRANCH   1   2
END_RES ARG D 557
BEGIN_RES GLU D 570
REMARK  3 active torsions:
REMARK  status: ('A' for Active; 'I' for Inactive)
REMARK    5  A    between atoms: CA   and  CB  
REMARK    6  A    between atoms: CB   and  CG  
REMARK    7  A    between atoms: CG   and  CD  
ROOT
ATOM     14  CA  GLU D 570     -18.033  -6.348 -13.375  1.00 32.92     0.160 C 
ENDROOT
BRANCH  14  15
ATOM     15  CB  GLU D 570     -19.500  -6.345 -13.794  1.00 32.92     0.043 C 
BRANCH  15  16
ATOM     16  CG  GLU D 570     -20.069  -7.619 -14.305  1.00 32.92     0.100 C 
BRANCH  16  17
ATOM     17  CD  GLU D 570     -20.750  -7.465 -15.645  1.00 32.92     0.185 C 
ATOM     18  OE1 GLU D 570     -20.596  -6.406 -16.284  1.00 32.92    -0.647 OA
ATOM     19  OE2 GLU D 570     -21.459  -8.406 -16.052  1.00 32.92    -0.647 OA
ENDBRANCH  16  17
ENDBRANCH  15  16
ENDBRANCH  14  15
END_RES GLU D 570
ENDMDL
MODEL 6
REMARK VINA RESULT:      -6.0      8.827     14.627
REMARK  10 active torsions:
REMARK  status: ('A' for Active; 'I' for Inactive)
REMARK    1  A    between atoms: C_2  and  C_4 
REMARK    2  A    between atoms: C_4  and  C_5 
REMARK    3  A    between atoms: C_5  and  C_6 
REMARK    4  A    between atoms: C_6  and  C_7 
REMARK    5  A    between atoms: C_7  and  C_8 
REMARK    6  A    between atoms: C_8  and  C_9 
REMARK    7  A    between atoms: C_9  and  C_10 
REMARK    8  A    between atoms: C_10  and  O_11 
REMARK    9  A    between atoms: O_11  and  C_12 
REMARK   10  A    between atoms: C_12  and  C_14 
ROOT
HETATM    1  C   UNL     1     -21.985  -6.574  -3.919  1.00  0.00     0.027 C 
ENDROOT
BRANCH   1   2
HETATM    2  C   UNL     1     -20.823  -7.303  -4.587  1.00  0.00     0.002 C 
BRANCH   2   3
HETATM    3  C   UNL     1     -20.337  -6.588  -5.847  1.00  0.00     0.000 C 
BRANCH   3   4
HETATM    4  C   UNL     1     -20.247  -5.070  -5.667  1.00  0.00     0.000 C 
BRANCH   4   5
HETATM    5  C   UNL     1     -19.967  -4.381  -6.996  1.00  0.00     0.000 C 
BRANCH   5   6
HETATM    6  C   UNL     1     -21.198  -3.615  -7.485  1.00  0.00     0.004 C 
BRANCH   6   7
HETATM    7  C   UNL     1     -21.932  -4.333  -8.629  1.00  0.00    -0.023 C 
HETATM    8  C   UNL     1     -23.441  -4.155  -8.468  1.00  0.00     0.009 C 
HETATM    9  C   UNL     1     -21.494  -3.830 -10.005  1.00  0.00     0.009 C 
ENDBRANCH   6   7
ENDBRANCH   5   6
ENDBRANCH   4   5
ENDBRANCH   3   4
ENDBRANCH   2   3
ENDBRANCH   1   2
BRANCH   1  10
HETATM   10  C   UNL     1     -21.661  -6.177  -2.485  1.00  0.00     0.178 C 
BRANCH  10  11
HETATM   11  O   UNL     1     -22.241  -7.130  -1.585  1.00  0.00    -0.321 OA
BRANCH  11  12
HETATM   12  C   UNL     1     -21.353  -7.951  -0.949  1.00  0.00     0.266 C 
HETATM   13  O   UNL     1     -20.178  -8.084  -1.277  1.00  0.00    -0.264 OA
BRANCH  12  14
HETATM   14  C   UNL     1     -22.011  -8.674   0.225  1.00  0.00     0.037 C 
HETATM   15  C   UNL     1     -23.298  -7.932   0.610  1.00  0.00     0.025 C 
HETATM   16  C   UNL     1     -22.359 -10.110  -0.202  1.00  0.00     0.025 C 
HETATM   17  C   UNL     1     -21.051  -8.729   1.420  1.00  0.00     0.025 C 
ENDBRANCH  12  14
ENDBRANCH  11  12
ENDBRANCH  10  11
ENDBRANCH   1  10
TORSDOF 10
BEGIN_RES ARG D 557
REMARK  4 active torsions:
REMARK  status: ('A' for Active; 'I' for Inactive)
REMARK    1  A    between atoms: CA   and  CB  
REMARK    2  A    between atoms: CB   and  CG  
REMARK    3  A    between atoms: CG   and  CD  
REMARK    4  A    between atoms: CD   and  NE  
REMARK       I    between atoms: NE   and  CZ  
REMARK       I    between atoms: CZ   and  NH1 
REMARK       I    between atoms: CZ   and  NH2 
ROOT
ATOM      1  CA  ARG D 557     -26.217   2.705 -17.014  1.00 35.49     0.159 C 
ENDROOT
BRANCH   1   2
ATOM      2  CB  ARG D 557     -26.789   1.319 -17.183  1.00 35.49     0.034 C 
BRANCH   2   3
ATOM      3  CG  ARG D 557     -25.862   0.195 -17.004  1.00 35.49     0.027 C 
BRANCH   3   4
ATOM      4  CD  ARG D 557     -26.256  -0.689 -15.883  1.00 35.49     0.116 C 
BRANCH   4   5
ATOM      5  NE  ARG D 557     -25.185  -0.884 -14.943  1.00 35.49    -0.212 N 
ATOM      6  CZ  ARG D 557     -24.868  -2.020 -14.364  1.00 35.49     0.666 C 
ATOM      7  NH1 ARG D 557     -25.536  -3.138 -14.583  1.00 35.49    -0.235 N 
ATOM      8  NH2 ARG D 557     -23.851  -2.018 -13.552  1.00 35.49    -0.235 N 
ATOM      9  HH  ARG D 557     -26.207  -3.163 -15.115  1.00 35.49     0.174 HD
ATOM     10  HH  ARG D 557     -25.282  -3.850 -14.179  1.00 35.49     0.174 HD
ATOM     11  HH  ARG D 557     -23.434  -1.283 -13.435  1.00 35.49     0.174 HD
ATOM     12  HH  ARG D 557     -23.614  -2.733 -13.163  1.00 35.49     0.174 HD
ATOM     13  HE  ARG D 557     -24.748  -0.200 -14.688  1.00 35.49     0.178 HD
ENDBRANCH   4   5
ENDBRANCH   3   4
ENDBRANCH   2   3
ENDBRANCH   1   2
END_RES ARG D 557
BEGIN_RES GLU D 570
REMARK  3 active torsions:
REMARK  status: ('A' for Active; 'I' for Inactive)
REMARK    5  A    between atoms: CA   and  CB  
REMARK    6  A    between atoms: CB   and  CG  
REMARK    7  A    between atoms: CG   and  CD  
ROOT
ATOM     14  CA  GLU D 570     -18.033  -6.348 -13.375  1.00 32.92     0.160 C 
ENDROOT
BRANCH  14  15
ATOM     15  CB  GLU D 570     -19.500  -6.345 -13.794  1.00 32.92     0.043 C 
BRANCH  15  16
ATOM     16  CG  GLU D 570     -20.443  -5.534 -12.981  1.00 32.92     0.100 C 
BRANCH  16  17
ATOM     17  CD  GLU D 570     -21.677  -5.120 -13.748  1.00 32.92     0.185 C 
ATOM     18  OE1 GLU D 570     -21.621  -5.046 -14.990  1.00 32.92    -0.647 OA
ATOM     19  OE2 GLU D 570     -22.706  -4.851 -13.097  1.00 32.92    -0.647 OA
ENDBRANCH  16  17
ENDBRANCH  15  16
ENDBRANCH  14  15
END_RES GLU D 570
ENDMDL
MODEL 7
REMARK VINA RESULT:      -6.0      2.410      4.930
REMARK  10 active torsions:
REMARK  status: ('A' for Active; 'I' for Inactive)
REMARK    1  A    between atoms: C_2  and  C_4 
REMARK    2  A    between atoms: C_4  and  C_5 
REMARK    3  A    between atoms: C_5  and  C_6 
REMARK    4  A    between atoms: C_6  and  C_7 
REMARK    5  A    between atoms: C_7  and  C_8 
REMARK    6  A    between atoms: C_8  and  C_9 
REMARK    7  A    between atoms: C_9  and  C_10 
REMARK    8  A    between atoms: C_10  and  O_11 
REMARK    9  A    between atoms: O_11  and  C_12 
REMARK   10  A    between atoms: C_12  and  C_14 
ROOT
HETATM    1  C   UNL     1     -36.838   0.338 -10.560  1.00  0.00     0.027 C 
ENDROOT
BRANCH   1   2
HETATM    2  C   UNL     1     -37.707  -0.039 -11.755  1.00  0.00     0.002 C 
BRANCH   2   3
HETATM    3  C   UNL     1     -36.878  -0.375 -12.994  1.00  0.00     0.000 C 
BRANCH   3   4
HETATM    4  C   UNL     1     -35.496   0.283 -12.975  1.00  0.00     0.000 C 
BRANCH   4   5
HETATM    5  C   UNL     1     -34.987   0.517 -14.391  1.00  0.00     0.000 C 
BRANCH   5   6
HETATM    6  C   UNL     1     -36.142   0.835 -15.342  1.00  0.00     0.004 C 
BRANCH   6   7
HETATM    7  C   UNL     1     -36.339  -0.243 -16.421  1.00  0.00    -0.023 C 
HETATM    8  C   UNL     1     -35.271  -1.325 -16.274  1.00  0.00     0.009 C 
HETATM    9  C   UNL     1     -37.731  -0.875 -16.361  1.00  0.00     0.009 C 
ENDBRANCH   6   7
ENDBRANCH   5   6
ENDBRANCH   4   5
ENDBRANCH   3   4
ENDBRANCH   2   3
ENDBRANCH   1   2
BRANCH   1  10
HETATM   10  C   UNL     1     -36.582  -0.850  -9.642  1.00  0.00     0.178 C 
BRANCH  10  11
HETATM   11  O   UNL     1     -35.364  -1.498 -10.029  1.00  0.00    -0.321 OA
BRANCH  11  12
HETATM   12  C   UNL     1     -35.513  -2.723 -10.617  1.00  0.00     0.266 C 
HETATM   13  O   UNL     1     -36.570  -3.346 -10.655  1.00  0.00    -0.264 OA
BRANCH  12  14
HETATM   14  C   UNL     1     -34.199  -3.208 -11.225  1.00  0.00     0.037 C 
HETATM   15  C   UNL     1     -33.890  -4.613 -10.691  1.00  0.00     0.025 C 
HETATM   16  C   UNL     1     -34.344  -3.265 -12.755  1.00  0.00     0.025 C 
HETATM   17  C   UNL     1     -33.061  -2.241 -10.869  1.00  0.00     0.025 C 
ENDBRANCH  12  14
ENDBRANCH  11  12
ENDBRANCH  10  11
ENDBRANCH   1  10
TORSDOF 10
BEGIN_RES ARG D 557
REMARK  4 active torsions:
REMARK  status: ('A' for Active; 'I' for Inactive)
REMARK    1  A    between atoms: CA   and  CB  
REMARK    2  A    between atoms: CB   and  CG  
REMARK    3  A    between atoms: CG   and  CD  
REMARK    4  A    between atoms: CD   and  NE  
REMARK       I    between atoms: NE   and  CZ  
REMARK       I    between atoms: CZ   and  NH1 
REMARK       I    between atoms: CZ   and  NH2 
ROOT
ATOM      1  CA  ARG D 557     -26.217   2.705 -17.014  1.00 35.49     0.159 C 
ENDROOT
BRANCH   1   2
ATOM      2  CB  ARG D 557     -26.789   1.319 -17.183  1.00 35.49     0.034 C 
BRANCH   2   3
ATOM      3  CG  ARG D 557     -25.835   0.203 -17.162  1.00 35.49     0.027 C 
BRANCH   3   4
ATOM      4  CD  ARG D 557     -24.750   0.408 -16.175  1.00 35.49     0.116 C 
BRANCH   4   5
ATOM      5  NE  ARG D 557     -24.898  -0.440 -15.022  1.00 35.49    -0.212 N 
ATOM      6  CZ  ARG D 557     -24.082  -1.408 -14.670  1.00 35.49     0.666 C 
ATOM      7  NH1 ARG D 557     -23.010  -1.723 -15.374  1.00 35.49    -0.235 N 
ATOM      8  NH2 ARG D 557     -24.361  -2.062 -13.580  1.00 35.49    -0.235 N 
ATOM      9  HH  ARG D 557     -22.807  -1.305 -16.094  1.00 35.49     0.174 HD
ATOM     10  HH  ARG D 557     -22.513  -2.363 -15.095  1.00 35.49     0.174 HD
ATOM     11  HH  ARG D 557     -25.055  -1.832 -13.142  1.00 35.49     0.174 HD
ATOM     12  HH  ARG D 557     -23.856  -2.691 -13.319  1.00 35.49     0.174 HD
ATOM     13  HE  ARG D 557     -25.601  -0.355 -14.551  1.00 35.49     0.178 HD
ENDBRANCH   4   5
ENDBRANCH   3   4
ENDBRANCH   2   3
ENDBRANCH   1   2
END_RES ARG D 557
BEGIN_RES GLU D 570
REMARK  3 active torsions:
REMARK  status: ('A' for Active; 'I' for Inactive)
REMARK    5  A    between atoms: CA   and  CB  
REMARK    6  A    between atoms: CB   and  CG  
REMARK    7  A    between atoms: CG   and  CD  
ROOT
ATOM     14  CA  GLU D 570     -18.033  -6.348 -13.375  1.00 32.92     0.160 C 
ENDROOT
BRANCH  14  15
ATOM     15  CB  GLU D 570     -19.500  -6.345 -13.794  1.00 32.92     0.043 C 
BRANCH  15  16
ATOM     16  CG  GLU D 570     -20.443  -5.537 -12.979  1.00 32.92     0.100 C 
BRANCH  16  17
ATOM     17  CD  GLU D 570     -21.725  -5.212 -13.709  1.00 32.92     0.185 C 
ATOM     18  OE1 GLU D 570     -22.172  -6.028 -14.539  1.00 32.92    -0.647 OA
ATOM     19  OE2 GLU D 570     -22.280  -4.124 -13.461  1.00 32.92    -0.647 OA
ENDBRANCH  16  17
ENDBRANCH  15  16
ENDBRANCH  14  15
END_RES GLU D 570
ENDMDL
MODEL 8
REMARK VINA RESULT:      -5.8      2.662      4.959
REMARK  10 active torsions:
REMARK  status: ('A' for Active; 'I' for Inactive)
REMARK    1  A    between atoms: C_2  and  C_4 
REMARK    2  A    between atoms: C_4  and  C_5 
REMARK    3  A    between atoms: C_5  and  C_6 
REMARK    4  A    between atoms: C_6  and  C_7 
REMARK    5  A    between atoms: C_7  and  C_8 
REMARK    6  A    between atoms: C_8  and  C_9 
REMARK    7  A    between atoms: C_9  and  C_10 
REMARK    8  A    between atoms: C_10  and  O_11 
REMARK    9  A    between atoms: O_11  and  C_12 
REMARK   10  A    between atoms: C_12  and  C_14 
ROOT
HETATM    1  C   UNL     1     -35.912   0.324 -12.319  1.00  0.00     0.027 C 
ENDROOT
BRANCH   1   2
HETATM    2  C   UNL     1     -37.088  -0.350 -11.621  1.00  0.00     0.002 C 
BRANCH   2   3
HETATM    3  C   UNL     1     -36.837  -0.553 -10.127  1.00  0.00     0.000 C 
BRANCH   3   4
HETATM    4  C   UNL     1     -36.883   0.757  -9.337  1.00  0.00     0.000 C 
BRANCH   4   5
HETATM    5  C   UNL     1     -36.388   0.551  -7.912  1.00  0.00     0.000 C 
BRANCH   5   6
HETATM    6  C   UNL     1     -37.191   1.400  -6.926  1.00  0.00     0.004 C 
BRANCH   6   7
HETATM    7  C   UNL     1     -38.027   0.553  -5.952  1.00  0.00    -0.023 C 
HETATM    8  C   UNL     1     -38.074  -0.896  -6.436  1.00  0.00     0.009 C 
HETATM    9  C   UNL     1     -37.484   0.606  -4.523  1.00  0.00     0.009 C 
ENDBRANCH   6   7
ENDBRANCH   5   6
ENDBRANCH   4   5
ENDBRANCH   3   4
ENDBRANCH   2   3
ENDBRANCH   1   2
BRANCH   1  10
HETATM   10  C   UNL     1     -35.183  -0.627 -13.259  1.00  0.00     0.178 C 
BRANCH  10  11
HETATM   11  O   UNL     1     -34.269  -1.435 -12.506  1.00  0.00    -0.321 OA
BRANCH  11  12
HETATM   12  C   UNL     1     -34.303  -2.772 -12.785  1.00  0.00     0.266 C 
HETATM   13  O   UNL     1     -34.604  -3.242 -13.878  1.00  0.00    -0.264 OA
BRANCH  12  14
HETATM   14  C   UNL     1     -33.911  -3.601 -11.564  1.00  0.00     0.037 C 
HETATM   15  C   UNL     1     -33.566  -2.654 -10.407  1.00  0.00     0.025 C 
HETATM   16  C   UNL     1     -35.098  -4.490 -11.158  1.00  0.00     0.025 C 
HETATM   17  C   UNL     1     -32.709  -4.496 -11.894  1.00  0.00     0.025 C 
ENDBRANCH  12  14
ENDBRANCH  11  12
ENDBRANCH  10  11
ENDBRANCH   1  10
TORSDOF 10
BEGIN_RES ARG D 557
REMARK  4 active torsions:
REMARK  status: ('A' for Active; 'I' for Inactive)
REMARK    1  A    between atoms: CA   and  CB  
REMARK    2  A    between atoms: CB   and  CG  
REMARK    3  A    between atoms: CG   and  CD  
REMARK    4  A    between atoms: CD   and  NE  
REMARK       I    between atoms: NE   and  CZ  
REMARK       I    between atoms: CZ   and  NH1 
REMARK       I    between atoms: CZ   and  NH2 
ROOT
ATOM      1  CA  ARG D 557     -26.217   2.705 -17.014  1.00 35.49     0.159 C 
ENDROOT
BRANCH   1   2
ATOM      2  CB  ARG D 557     -26.789   1.319 -17.183  1.00 35.49     0.034 C 
BRANCH   2   3
ATOM      3  CG  ARG D 557     -25.919   0.196 -16.814  1.00 35.49     0.027 C 
BRANCH   3   4
ATOM      4  CD  ARG D 557     -26.649  -0.868 -16.086  1.00 35.49     0.116 C 
BRANCH   4   5
ATOM      5  NE  ARG D 557     -27.886  -1.217 -16.734  1.00 35.49    -0.212 N 
ATOM      6  CZ  ARG D 557     -28.362  -2.433 -16.876  1.00 35.49     0.666 C 
ATOM      7  NH1 ARG D 557     -27.723  -3.501 -16.435  1.00 35.49    -0.235 N 
ATOM      8  NH2 ARG D 557     -29.512  -2.562 -17.471  1.00 35.49    -0.235 N 
ATOM      9  HH  ARG D 557     -26.966  -3.439 -16.039  1.00 35.49     0.174 HD
ATOM     10  HH  ARG D 557     -28.083  -4.269 -16.554  1.00 35.49     0.174 HD
ATOM     11  HH  ARG D 557     -29.906  -1.854 -17.739  1.00 35.49     0.174 HD
ATOM     12  HH  ARG D 557     -29.853  -3.331 -17.578  1.00 35.49     0.174 HD
ATOM     13  HE  ARG D 557     -28.328  -0.596 -17.111  1.00 35.49     0.178 HD
ENDBRANCH   4   5
ENDBRANCH   3   4
ENDBRANCH   2   3
ENDBRANCH   1   2
END_RES ARG D 557
BEGIN_RES GLU D 570
REMARK  3 active torsions:
REMARK  status: ('A' for Active; 'I' for Inactive)
REMARK    5  A    between atoms: CA   and  CB  
REMARK    6  A    between atoms: CB   and  CG  
REMARK    7  A    between atoms: CG   and  CD  
ROOT
ATOM     14  CA  GLU D 570     -18.033  -6.348 -13.375  1.00 32.92     0.160 C 
ENDROOT
BRANCH  14  15
ATOM     15  CB  GLU D 570     -19.500  -6.345 -13.794  1.00 32.92     0.043 C 
BRANCH  15  16
ATOM     16  CG  GLU D 570     -19.796  -6.273 -15.248  1.00 32.92     0.100 C 
BRANCH  16  17
ATOM     17  CD  GLU D 570     -21.259  -6.028 -15.540  1.00 32.92     0.185 C 
ATOM     18  OE1 GLU D 570     -21.589  -4.991 -16.148  1.00 32.92    -0.647 OA
ATOM     19  OE2 GLU D 570     -22.084  -6.873 -15.142  1.00 32.92    -0.647 OA
ENDBRANCH  16  17
ENDBRANCH  15  16
ENDBRANCH  14  15
END_RES GLU D 570
ENDMDL
MODEL 9
REMARK VINA RESULT:      -5.5      3.242      6.005
REMARK  10 active torsions:
REMARK  status: ('A' for Active; 'I' for Inactive)
REMARK    1  A    between atoms: C_2  and  C_4 
REMARK    2  A    between atoms: C_4  and  C_5 
REMARK    3  A    between atoms: C_5  and  C_6 
REMARK    4  A    between atoms: C_6  and  C_7 
REMARK    5  A    between atoms: C_7  and  C_8 
REMARK    6  A    between atoms: C_8  and  C_9 
REMARK    7  A    between atoms: C_9  and  C_10 
REMARK    8  A    between atoms: C_10  and  O_11 
REMARK    9  A    between atoms: O_11  and  C_12 
REMARK   10  A    between atoms: C_12  and  C_14 
ROOT
HETATM    1  C   UNL     1     -33.466  -3.807 -16.439  1.00  0.00     0.027 C 
ENDROOT
BRANCH   1   2
HETATM    2  C   UNL     1     -32.079  -4.436 -16.522  1.00  0.00     0.002 C 
BRANCH   2   3
HETATM    3  C   UNL     1     -31.237  -3.837 -17.648  1.00  0.00     0.000 C 
BRANCH   3   4
HETATM    4  C   UNL     1     -29.733  -3.988 -17.405  1.00  0.00     0.000 C 
BRANCH   4   5
HETATM    5  C   UNL     1     -29.083  -4.805 -18.513  1.00  0.00     0.000 C 
BRANCH   5   6
HETATM    6  C   UNL     1     -28.572  -6.144 -17.979  1.00  0.00     0.004 C 
BRANCH   6   7
HETATM    7  C   UNL     1     -27.752  -5.996 -16.687  1.00  0.00    -0.023 C 
HETATM    8  C   UNL     1     -28.323  -6.908 -15.602  1.00  0.00     0.009 C 
HETATM    9  C   UNL     1     -26.270  -6.310 -16.901  1.00  0.00     0.009 C 
ENDBRANCH   6   7
ENDBRANCH   5   6
ENDBRANCH   4   5
ENDBRANCH   3   4
ENDBRANCH   2   3
ENDBRANCH   1   2
BRANCH   1  10
HETATM   10  C   UNL     1     -34.324  -4.455 -15.361  1.00  0.00     0.178 C 
BRANCH  10  11
HETATM   11  O   UNL     1     -34.095  -3.797 -14.109  1.00  0.00    -0.321 OA
BRANCH  11  12
HETATM   12  C   UNL     1     -34.392  -4.534 -12.997  1.00  0.00     0.266 C 
HETATM   13  O   UNL     1     -35.229  -5.431 -12.966  1.00  0.00    -0.264 OA
BRANCH  12  14
HETATM   14  C   UNL     1     -33.544  -4.099 -11.804  1.00  0.00     0.037 C 
HETATM   15  C   UNL     1     -32.073  -4.433 -12.088  1.00  0.00     0.025 C 
HETATM   16  C   UNL     1     -33.693  -2.582 -11.608  1.00  0.00     0.025 C 
HETATM   17  C   UNL     1     -34.015  -4.814 -10.530  1.00  0.00     0.025 C 
ENDBRANCH  12  14
ENDBRANCH  11  12
ENDBRANCH  10  11
ENDBRANCH   1  10
TORSDOF 10
BEGIN_RES ARG D 557
REMARK  4 active torsions:
REMARK  status: ('A' for Active; 'I' for Inactive)
REMARK    1  A    between atoms: CA   and  CB  
REMARK    2  A    between atoms: CB   and  CG  
REMARK    3  A    between atoms: CG   and  CD  
REMARK    4  A    between atoms: CD   and  NE  
REMARK       I    between atoms: NE   and  CZ  
REMARK       I    between atoms: CZ   and  NH1 
REMARK       I    between atoms: CZ   and  NH2 
ROOT
ATOM      1  CA  ARG D 557     -26.217   2.705 -17.014  1.00 35.49     0.159 C 
ENDROOT
BRANCH   1   2
ATOM      2  CB  ARG D 557     -26.789   1.319 -17.183  1.00 35.49     0.034 C 
BRANCH   2   3
ATOM      3  CG  ARG D 557     -25.875   0.194 -16.949  1.00 35.49     0.027 C 
BRANCH   3   4
ATOM      4  CD  ARG D 557     -26.343  -0.696 -15.862  1.00 35.49     0.116 C 
BRANCH   4   5
ATOM      5  NE  ARG D 557     -25.310  -0.963 -14.896  1.00 35.49    -0.212 N 
ATOM      6  CZ  ARG D 557     -25.047  -2.132 -14.356  1.00 35.49     0.666 C 
ATOM      7  NH1 ARG D 557     -25.739  -3.218 -14.645  1.00 35.49    -0.235 N 
ATOM      8  NH2 ARG D 557     -24.057  -2.194 -13.514  1.00 35.49    -0.235 N 
ATOM      9  HH  ARG D 557     -26.393  -3.201 -15.198  1.00 35.49     0.174 HD
ATOM     10  HH  ARG D 557     -25.520  -3.954 -14.264  1.00 35.49     0.174 HD
ATOM     11  HH  ARG D 557     -23.623  -1.478 -13.352  1.00 35.49     0.174 HD
ATOM     12  HH  ARG D 557     -23.855  -2.932 -13.148  1.00 35.49     0.174 HD
ATOM     13  HE  ARG D 557     -24.862  -0.304 -14.599  1.00 35.49     0.178 HD
ENDBRANCH   4   5
ENDBRANCH   3   4
ENDBRANCH   2   3
ENDBRANCH   1   2
END_RES ARG D 557
BEGIN_RES GLU D 570
REMARK  3 active torsions:
REMARK  status: ('A' for Active; 'I' for Inactive)
REMARK    5  A    between atoms: CA   and  CB  
REMARK    6  A    between atoms: CB   and  CG  
REMARK    7  A    between atoms: CG   and  CD  
ROOT
ATOM     14  CA  GLU D 570     -18.033  -6.348 -13.375  1.00 32.92     0.160 C 
ENDROOT
BRANCH  14  15
ATOM     15  CB  GLU D 570     -19.500  -6.345 -13.794  1.00 32.92     0.043 C 
BRANCH  15  16
ATOM     16  CG  GLU D 570     -20.448  -5.560 -12.962  1.00 32.92     0.100 C 
BRANCH  16  17
ATOM     17  CD  GLU D 570     -21.709  -5.181 -13.703  1.00 32.92     0.185 C 
ATOM     18  OE1 GLU D 570     -22.738  -4.918 -13.052  1.00 32.92    -0.647 OA
ATOM     19  OE2 GLU D 570     -21.672  -5.164 -14.950  1.00 32.92    -0.647 OA
ENDBRANCH  16  17
ENDBRANCH  15  16
ENDBRANCH  14  15
END_RES GLU D 570
ENDMDL
