MODEL 1
REMARK VINA RESULT:      -8.4      0.000      0.000
REMARK  5 active torsions:
REMARK  status: ('A' for Active; 'I' for Inactive)
REMARK    1  A    between atoms: C_3  and  O_17 
REMARK    2  A    between atoms: C_6  and  C_7 
REMARK    3  A    between atoms: C_8  and  C_9 
REMARK    4  A    between atoms: C_11  and  O_16 
REMARK    5  A    between atoms: C_13  and  O_15 
ROOT
HETATM    1  C   UNL     1     -20.921  -6.627  -5.615  1.00  0.00    -0.031 A 
HETATM    2  C   UNL     1     -21.711  -5.997  -4.642  1.00  0.00     0.048 A 
HETATM    3  C   UNL     1     -21.704  -6.462  -3.328  1.00  0.00     0.069 A 
HETATM    4  C   UNL     1     -20.935  -7.559  -2.958  1.00  0.00     0.073 A 
HETATM    5  C   UNL     1     -20.170  -8.195  -3.927  1.00  0.00     0.069 A 
HETATM    6  C   UNL     1     -20.159  -7.743  -5.245  1.00  0.00     0.048 A 
ENDROOT
BRANCH   1   7
HETATM    7  C   UNL     1     -20.915  -6.200  -7.025  1.00  0.00     0.012 C 
HETATM    8  C   UNL     1     -21.458  -5.052  -7.468  1.00  0.00     0.012 C 
BRANCH   8   9
HETATM    9  C   UNL     1     -21.487  -4.625  -8.874  1.00  0.00    -0.036 A 
HETATM   10  C   UNL     1     -20.325  -4.434  -9.633  1.00  0.00     0.014 A 
HETATM   11  C   UNL     1     -20.401  -4.008 -10.963  1.00  0.00     0.037 A 
HETATM   12  C   UNL     1     -21.645  -3.761 -11.533  1.00  0.00     0.065 A 
HETATM   13  C   UNL     1     -22.809  -3.924 -10.794  1.00  0.00     0.037 A 
HETATM   14  C   UNL     1     -22.729  -4.350  -9.466  1.00  0.00     0.014 A 
BRANCH  12  15
HETATM   15  O   UNL     1     -21.764  -3.351 -12.828  1.00  0.00    -0.361 OA
HETATM   16  H   UNL     1     -21.284  -2.514 -12.931  1.00  0.00     0.217 HD
ENDBRANCH  12  15
ENDBRANCH   8   9
ENDBRANCH   1   7
BRANCH   3  17
HETATM   17  O   UNL     1     -22.457  -5.862  -2.361  1.00  0.00    -0.361 OA
HETATM   18  H   UNL     1     -23.119  -5.292  -2.790  1.00  0.00     0.217 HD
ENDBRANCH   3  17
BRANCH   5  19
HETATM   19  O   UNL     1     -19.405  -9.286  -3.626  1.00  0.00    -0.361 OA
HETATM   20  H   UNL     1     -19.447  -9.434  -2.666  1.00  0.00     0.217 HD
ENDBRANCH   5  19
TORSDOF 5
BEGIN_RES ARG D 557
REMARK  4 active torsions:
REMARK  status: ('A' for Active; 'I' for Inactive)
REMARK    1  A    between atoms: CA   and  CB  
REMARK    2  A    between atoms: CB   and  CG  
REMARK    3  A    between atoms: CG   and  CD  
REMARK    4  A    between atoms: CD   and  NE  
REMARK       I    between atoms: NE   and  CZ  
REMARK       I    between atoms: CZ   and  NH1 
REMARK       I    between atoms: CZ   and  NH2 
ROOT
ATOM      1  CA  ARG D 557     -26.217   2.705 -17.014  1.00 35.49     0.159 C 
ENDROOT
BRANCH   1   2
ATOM      2  CB  ARG D 557     -26.789   1.319 -17.183  1.00 35.49     0.034 C 
BRANCH   2   3
ATOM      3  CG  ARG D 557     -25.837   0.202 -17.147  1.00 35.49     0.027 C 
BRANCH   3   4
ATOM      4  CD  ARG D 557     -24.761   0.410 -16.151  1.00 35.49     0.116 C 
BRANCH   4   5
ATOM      5  NE  ARG D 557     -24.903  -0.456 -15.011  1.00 35.49    -0.212 N 
ATOM      6  CZ  ARG D 557     -24.073  -1.416 -14.667  1.00 35.49     0.666 C 
ATOM      7  NH1 ARG D 557     -22.992  -1.703 -15.367  1.00 35.49    -0.235 N 
ATOM      8  NH2 ARG D 557     -24.348  -2.089 -13.588  1.00 35.49    -0.235 N 
ATOM      9  HH  ARG D 557     -22.790  -1.271 -16.080  1.00 35.49     0.174 HD
ATOM     10  HH  ARG D 557     -22.486  -2.338 -15.093  1.00 35.49     0.174 HD
ATOM     11  HH  ARG D 557     -25.050  -1.877 -13.151  1.00 35.49     0.174 HD
ATOM     12  HH  ARG D 557     -23.835  -2.713 -13.332  1.00 35.49     0.174 HD
ATOM     13  HE  ARG D 557     -25.611  -0.389 -14.544  1.00 35.49     0.178 HD
ENDBRANCH   4   5
ENDBRANCH   3   4
ENDBRANCH   2   3
ENDBRANCH   1   2
END_RES ARG D 557
BEGIN_RES GLU D 570
REMARK  3 active torsions:
REMARK  status: ('A' for Active; 'I' for Inactive)
REMARK    5  A    between atoms: CA   and  CB  
REMARK    6  A    between atoms: CB   and  CG  
REMARK    7  A    between atoms: CG   and  CD  
ROOT
ATOM     14  CA  GLU D 570     -18.033  -6.348 -13.375  1.00 32.92     0.160 C 
ENDROOT
BRANCH  14  15
ATOM     15  CB  GLU D 570     -19.500  -6.345 -13.794  1.00 32.92     0.043 C 
BRANCH  15  16
ATOM     16  CG  GLU D 570     -19.816  -5.909 -15.179  1.00 32.92     0.100 C 
BRANCH  16  17
ATOM     17  CD  GLU D 570     -21.288  -5.645 -15.393  1.00 32.92     0.185 C 
ATOM     18  OE1 GLU D 570     -21.658  -4.498 -15.708  1.00 32.92    -0.647 OA
ATOM     19  OE2 GLU D 570     -22.081  -6.593 -15.226  1.00 32.92    -0.647 OA
ENDBRANCH  16  17
ENDBRANCH  15  16
ENDBRANCH  14  15
END_RES GLU D 570
ENDMDL
MODEL 2
REMARK VINA RESULT:      -8.4      2.660      6.991
REMARK  5 active torsions:
REMARK  status: ('A' for Active; 'I' for Inactive)
REMARK    1  A    between atoms: C_3  and  O_17 
REMARK    2  A    between atoms: C_6  and  C_7 
REMARK    3  A    between atoms: C_8  and  C_9 
REMARK    4  A    between atoms: C_11  and  O_16 
REMARK    5  A    between atoms: C_13  and  O_15 
ROOT
HETATM    1  C   UNL     1     -23.116  -3.636 -12.137  1.00  0.00    -0.031 A 
HETATM    2  C   UNL     1     -24.185  -2.780 -12.444  1.00  0.00     0.048 A 
HETATM    3  C   UNL     1     -24.433  -2.421 -13.769  1.00  0.00     0.069 A 
HETATM    4  C   UNL     1     -23.627  -2.883 -14.802  1.00  0.00     0.073 A 
HETATM    5  C   UNL     1     -22.557  -3.712 -14.494  1.00  0.00     0.069 A 
HETATM    6  C   UNL     1     -22.294  -4.088 -13.178  1.00  0.00     0.048 A 
ENDROOT
BRANCH   1   7
HETATM    7  C   UNL     1     -22.787  -4.021 -10.754  1.00  0.00     0.012 C 
HETATM    8  C   UNL     1     -21.602  -3.784 -10.166  1.00  0.00     0.012 C 
BRANCH   8   9
HETATM    9  C   UNL     1     -21.247  -4.188  -8.797  1.00  0.00    -0.036 A 
HETATM   10  C   UNL     1     -19.922  -4.261  -8.348  1.00  0.00     0.014 A 
HETATM   11  C   UNL     1     -19.631  -4.670  -7.042  1.00  0.00     0.037 A 
HETATM   12  C   UNL     1     -20.670  -5.017  -6.186  1.00  0.00     0.065 A 
HETATM   13  C   UNL     1     -21.989  -4.971  -6.615  1.00  0.00     0.037 A 
HETATM   14  C   UNL     1     -22.276  -4.563  -7.920  1.00  0.00     0.014 A 
BRANCH  12  15
HETATM   15  O   UNL     1     -20.431  -5.413  -4.903  1.00  0.00    -0.361 OA
HETATM   16  H   UNL     1     -20.226  -4.628  -4.371  1.00  0.00     0.217 HD
ENDBRANCH  12  15
ENDBRANCH   8   9
ENDBRANCH   1   7
BRANCH   3  17
HETATM   17  O   UNL     1     -25.471  -1.596 -14.094  1.00  0.00    -0.361 OA
HETATM   18  H   UNL     1     -26.282  -1.934 -13.676  1.00  0.00     0.217 HD
ENDBRANCH   3  17
BRANCH   5  19
HETATM   19  O   UNL     1     -21.723  -4.187 -15.465  1.00  0.00    -0.361 OA
HETATM   20  H   UNL     1     -21.616  -3.496 -16.141  1.00  0.00     0.217 HD
ENDBRANCH   5  19
TORSDOF 5
BEGIN_RES ARG D 557
REMARK  4 active torsions:
REMARK  status: ('A' for Active; 'I' for Inactive)
REMARK    1  A    between atoms: CA   and  CB  
REMARK    2  A    between atoms: CB   and  CG  
REMARK    3  A    between atoms: CG   and  CD  
REMARK    4  A    between atoms: CD   and  NE  
REMARK       I    between atoms: NE   and  CZ  
REMARK       I    between atoms: CZ   and  NH1 
REMARK       I    between atoms: CZ   and  NH2 
ROOT
ATOM      1  CA  ARG D 557     -26.217   2.705 -17.014  1.00 35.49     0.159 C 
ENDROOT
BRANCH   1   2
ATOM      2  CB  ARG D 557     -26.789   1.319 -17.183  1.00 35.49     0.034 C 
BRANCH   2   3
ATOM      3  CG  ARG D 557     -28.231   1.226 -17.444  1.00 35.49     0.027 C 
BRANCH   3   4
ATOM      4  CD  ARG D 557     -28.916   0.307 -16.507  1.00 35.49     0.116 C 
BRANCH   4   5
ATOM      5  NE  ARG D 557     -29.264  -0.943 -17.131  1.00 35.49    -0.212 N 
ATOM      6  CZ  ARG D 557     -28.605  -2.073 -17.007  1.00 35.49     0.666 C 
ATOM      7  NH1 ARG D 557     -27.507  -2.178 -16.281  1.00 35.49    -0.235 N 
ATOM      8  NH2 ARG D 557     -29.077  -3.115 -17.629  1.00 35.49    -0.235 N 
ATOM      9  HH  ARG D 557     -27.179  -1.506 -15.862  1.00 35.49     0.174 HD
ATOM     10  HH  ARG D 557     -27.121  -2.942 -16.235  1.00 35.49     0.174 HD
ATOM     11  HH  ARG D 557     -29.792  -3.019 -18.084  1.00 35.49     0.174 HD
ATOM     12  HH  ARG D 557     -28.681  -3.862 -17.569  1.00 35.49     0.174 HD
ATOM     13  HE  ARG D 557     -29.917  -0.949 -17.675  1.00 35.49     0.178 HD
ENDBRANCH   4   5
ENDBRANCH   3   4
ENDBRANCH   2   3
ENDBRANCH   1   2
END_RES ARG D 557
BEGIN_RES GLU D 570
REMARK  3 active torsions:
REMARK  status: ('A' for Active; 'I' for Inactive)
REMARK    5  A    between atoms: CA   and  CB  
REMARK    6  A    between atoms: CB   and  CG  
REMARK    7  A    between atoms: CG   and  CD  
ROOT
ATOM     14  CA  GLU D 570     -18.033  -6.348 -13.375  1.00 32.92     0.160 C 
ENDROOT
BRANCH  14  15
ATOM     15  CB  GLU D 570     -19.500  -6.345 -13.794  1.00 32.92     0.043 C 
BRANCH  15  16
ATOM     16  CG  GLU D 570     -20.100  -7.644 -14.194  1.00 32.92     0.100 C 
BRANCH  16  17
ATOM     17  CD  GLU D 570     -20.540  -7.670 -15.639  1.00 32.92     0.185 C 
ATOM     18  OE1 GLU D 570     -20.696  -6.592 -16.244  1.00 32.92    -0.647 OA
ATOM     19  OE2 GLU D 570     -20.747  -8.780 -16.167  1.00 32.92    -0.647 OA
ENDBRANCH  16  17
ENDBRANCH  15  16
ENDBRANCH  14  15
END_RES GLU D 570
ENDMDL
MODEL 3
REMARK VINA RESULT:      -8.3      0.419      1.915
REMARK  5 active torsions:
REMARK  status: ('A' for Active; 'I' for Inactive)
REMARK    1  A    between atoms: C_3  and  O_17 
REMARK    2  A    between atoms: C_6  and  C_7 
REMARK    3  A    between atoms: C_8  and  C_9 
REMARK    4  A    between atoms: C_11  and  O_16 
REMARK    5  A    between atoms: C_13  and  O_15 
ROOT
HETATM    1  C   UNL     1     -21.005  -6.695  -5.578  1.00  0.00    -0.031 A 
HETATM    2  C   UNL     1     -20.190  -7.776  -5.209  1.00  0.00     0.048 A 
HETATM    3  C   UNL     1     -20.162  -8.208  -3.884  1.00  0.00     0.069 A 
HETATM    4  C   UNL     1     -20.920  -7.576  -2.905  1.00  0.00     0.073 A 
HETATM    5  C   UNL     1     -21.709  -6.493  -3.268  1.00  0.00     0.069 A 
HETATM    6  C   UNL     1     -21.756  -6.048  -4.588  1.00  0.00     0.048 A 
ENDROOT
BRANCH   1   7
HETATM    7  C   UNL     1     -21.049  -6.175  -6.956  1.00  0.00     0.012 C 
HETATM    8  C   UNL     1     -21.579  -4.988  -7.298  1.00  0.00     0.012 C 
BRANCH   8   9
HETATM    9  C   UNL     1     -21.657  -4.468  -8.671  1.00  0.00    -0.036 A 
HETATM   10  C   UNL     1     -22.853  -4.011  -9.241  1.00  0.00     0.014 A 
HETATM   11  C   UNL     1     -22.883  -3.541 -10.559  1.00  0.00     0.037 A 
HETATM   12  C   UNL     1     -21.714  -3.539 -11.312  1.00  0.00     0.065 A 
HETATM   13  C   UNL     1     -20.523  -4.006 -10.774  1.00  0.00     0.037 A 
HETATM   14  C   UNL     1     -20.496  -4.474  -9.458  1.00  0.00     0.014 A 
BRANCH  12  15
HETATM   15  O   UNL     1     -21.698  -3.084 -12.597  1.00  0.00    -0.361 OA
HETATM   16  H   UNL     1     -20.798  -3.182 -12.948  1.00  0.00     0.217 HD
ENDBRANCH  12  15
ENDBRANCH   8   9
ENDBRANCH   1   7
BRANCH   3  17
HETATM   17  O   UNL     1     -19.384  -9.262  -3.500  1.00  0.00    -0.361 OA
HETATM   18  H   UNL     1     -19.930  -9.885  -2.991  1.00  0.00     0.217 HD
ENDBRANCH   3  17
BRANCH   5  19
HETATM   19  O   UNL     1     -22.464  -5.823  -2.349  1.00  0.00    -0.361 OA
HETATM   20  H   UNL     1     -22.303  -4.871  -2.454  1.00  0.00     0.217 HD
ENDBRANCH   5  19
TORSDOF 5
BEGIN_RES ARG D 557
REMARK  4 active torsions:
REMARK  status: ('A' for Active; 'I' for Inactive)
REMARK    1  A    between atoms: CA   and  CB  
REMARK    2  A    between atoms: CB   and  CG  
REMARK    3  A    between atoms: CG   and  CD  
REMARK    4  A    between atoms: CD   and  NE  
REMARK       I    between atoms: NE   and  CZ  
REMARK       I    between atoms: CZ   and  NH1 
REMARK       I    between atoms: CZ   and  NH2 
ROOT
ATOM      1  CA  ARG D 557     -26.217   2.705 -17.014  1.00 35.49     0.159 C 
ENDROOT
BRANCH   1   2
ATOM      2  CB  ARG D 557     -26.789   1.319 -17.183  1.00 35.49     0.034 C 
BRANCH   2   3
ATOM      3  CG  ARG D 557     -25.836   0.203 -17.152  1.00 35.49     0.027 C 
BRANCH   3   4
ATOM      4  CD  ARG D 557     -24.777   0.393 -16.135  1.00 35.49     0.116 C 
BRANCH   4   5
ATOM      5  NE  ARG D 557     -24.942  -0.488 -15.009  1.00 35.49    -0.212 N 
ATOM      6  CZ  ARG D 557     -24.118  -1.450 -14.659  1.00 35.49     0.666 C 
ATOM      7  NH1 ARG D 557     -23.021  -1.726 -15.338  1.00 35.49    -0.235 N 
ATOM      8  NH2 ARG D 557     -24.415  -2.137 -13.594  1.00 35.49    -0.235 N 
ATOM      9  HH  ARG D 557     -22.804  -1.285 -16.041  1.00 35.49     0.174 HD
ATOM     10  HH  ARG D 557     -22.520  -2.363 -15.061  1.00 35.49     0.174 HD
ATOM     11  HH  ARG D 557     -25.127  -1.932 -13.171  1.00 35.49     0.174 HD
ATOM     12  HH  ARG D 557     -23.906  -2.763 -13.335  1.00 35.49     0.174 HD
ATOM     13  HE  ARG D 557     -25.660  -0.428 -14.557  1.00 35.49     0.178 HD
ENDBRANCH   4   5
ENDBRANCH   3   4
ENDBRANCH   2   3
ENDBRANCH   1   2
END_RES ARG D 557
BEGIN_RES GLU D 570
REMARK  3 active torsions:
REMARK  status: ('A' for Active; 'I' for Inactive)
REMARK    5  A    between atoms: CA   and  CB  
REMARK    6  A    between atoms: CB   and  CG  
REMARK    7  A    between atoms: CG   and  CD  
ROOT
ATOM     14  CA  GLU D 570     -18.033  -6.348 -13.375  1.00 32.92     0.160 C 
ENDROOT
BRANCH  14  15
ATOM     15  CB  GLU D 570     -19.500  -6.345 -13.794  1.00 32.92     0.043 C 
BRANCH  15  16
ATOM     16  CG  GLU D 570     -19.809  -5.987 -15.203  1.00 32.92     0.100 C 
BRANCH  16  17
ATOM     17  CD  GLU D 570     -21.179  -5.372 -15.367  1.00 32.92     0.185 C 
ATOM     18  OE1 GLU D 570     -21.895  -5.209 -14.360  1.00 32.92    -0.647 OA
ATOM     19  OE2 GLU D 570     -21.547  -5.064 -16.518  1.00 32.92    -0.647 OA
ENDBRANCH  16  17
ENDBRANCH  15  16
ENDBRANCH  14  15
END_RES GLU D 570
ENDMDL
MODEL 4
REMARK VINA RESULT:      -8.3      1.844      6.214
REMARK  5 active torsions:
REMARK  status: ('A' for Active; 'I' for Inactive)
REMARK    1  A    between atoms: C_3  and  O_17 
REMARK    2  A    between atoms: C_6  and  C_7 
REMARK    3  A    between atoms: C_8  and  C_9 
REMARK    4  A    between atoms: C_11  and  O_16 
REMARK    5  A    between atoms: C_13  and  O_15 
ROOT
HETATM    1  C   UNL     1     -21.353  -5.114  -6.628  1.00  0.00    -0.031 A 
HETATM    2  C   UNL     1     -20.386  -5.128  -7.644  1.00  0.00     0.048 A 
HETATM    3  C   UNL     1     -20.701  -4.648  -8.915  1.00  0.00     0.069 A 
HETATM    4  C   UNL     1     -21.971  -4.164  -9.205  1.00  0.00     0.073 A 
HETATM    5  C   UNL     1     -22.933  -4.171  -8.204  1.00  0.00     0.069 A 
HETATM    6  C   UNL     1     -22.638  -4.642  -6.927  1.00  0.00     0.048 A 
ENDROOT
BRANCH   1   7
HETATM    7  C   UNL     1     -21.085  -5.640  -5.278  1.00  0.00     0.012 C 
HETATM    8  C   UNL     1     -21.902  -6.482  -4.620  1.00  0.00     0.012 C 
BRANCH   8   9
HETATM    9  C   UNL     1     -21.665  -6.992  -3.262  1.00  0.00    -0.036 A 
HETATM   10  C   UNL     1     -20.800  -8.062  -2.994  1.00  0.00     0.014 A 
HETATM   11  C   UNL     1     -20.620  -8.526  -1.686  1.00  0.00     0.037 A 
HETATM   12  C   UNL     1     -21.317  -7.924  -0.645  1.00  0.00     0.065 A 
HETATM   13  C   UNL     1     -22.193  -6.876  -0.889  1.00  0.00     0.037 A 
HETATM   14  C   UNL     1     -22.371  -6.415  -2.196  1.00  0.00     0.014 A 
BRANCH  12  15
HETATM   15  O   UNL     1     -21.165  -8.341   0.645  1.00  0.00    -0.361 OA
HETATM   16  H   UNL     1     -22.032  -8.618   0.983  1.00  0.00     0.217 HD
ENDBRANCH  12  15
ENDBRANCH   8   9
ENDBRANCH   1   7
BRANCH   3  17
HETATM   17  O   UNL     1     -19.776  -4.643  -9.918  1.00  0.00    -0.361 OA
HETATM   18  H   UNL     1     -19.650  -5.555 -10.232  1.00  0.00     0.217 HD
ENDBRANCH   3  17
BRANCH   5  19
HETATM   19  O   UNL     1     -24.202  -3.722  -8.434  1.00  0.00    -0.361 OA
HETATM   20  H   UNL     1     -24.204  -3.223  -9.269  1.00  0.00     0.217 HD
ENDBRANCH   5  19
TORSDOF 5
BEGIN_RES ARG D 557
REMARK  4 active torsions:
REMARK  status: ('A' for Active; 'I' for Inactive)
REMARK    1  A    between atoms: CA   and  CB  
REMARK    2  A    between atoms: CB   and  CG  
REMARK    3  A    between atoms: CG   and  CD  
REMARK    4  A    between atoms: CD   and  NE  
REMARK       I    between atoms: NE   and  CZ  
REMARK       I    between atoms: CZ   and  NH1 
REMARK       I    between atoms: CZ   and  NH2 
ROOT
ATOM      1  CA  ARG D 557     -26.217   2.705 -17.014  1.00 35.49     0.159 C 
ENDROOT
BRANCH   1   2
ATOM      2  CB  ARG D 557     -26.789   1.319 -17.183  1.00 35.49     0.034 C 
BRANCH   2   3
ATOM      3  CG  ARG D 557     -25.835   0.203 -17.161  1.00 35.49     0.027 C 
BRANCH   3   4
ATOM      4  CD  ARG D 557     -24.757   0.402 -16.167  1.00 35.49     0.116 C 
BRANCH   4   5
ATOM      5  NE  ARG D 557     -24.918  -0.446 -15.015  1.00 35.49    -0.212 N 
ATOM      6  CZ  ARG D 557     -24.114  -1.424 -14.663  1.00 35.49     0.666 C 
ATOM      7  NH1 ARG D 557     -23.044  -1.750 -15.365  1.00 35.49    -0.235 N 
ATOM      8  NH2 ARG D 557     -24.403  -2.077 -13.575  1.00 35.49    -0.235 N 
ATOM      9  HH  ARG D 557     -22.834  -1.333 -16.084  1.00 35.49     0.174 HD
ATOM     10  HH  ARG D 557     -22.555  -2.396 -15.086  1.00 35.49     0.174 HD
ATOM     11  HH  ARG D 557     -25.096  -1.839 -13.138  1.00 35.49     0.174 HD
ATOM     12  HH  ARG D 557     -23.906  -2.712 -13.314  1.00 35.49     0.174 HD
ATOM     13  HE  ARG D 557     -25.621  -0.353 -14.546  1.00 35.49     0.178 HD
ENDBRANCH   4   5
ENDBRANCH   3   4
ENDBRANCH   2   3
ENDBRANCH   1   2
END_RES ARG D 557
BEGIN_RES GLU D 570
REMARK  3 active torsions:
REMARK  status: ('A' for Active; 'I' for Inactive)
REMARK    5  A    between atoms: CA   and  CB  
REMARK    6  A    between atoms: CB   and  CG  
REMARK    7  A    between atoms: CG   and  CD  
ROOT
ATOM     14  CA  GLU D 570     -18.033  -6.348 -13.375  1.00 32.92     0.160 C 
ENDROOT
BRANCH  14  15
ATOM     15  CB  GLU D 570     -19.500  -6.345 -13.794  1.00 32.92     0.043 C 
BRANCH  15  16
ATOM     16  CG  GLU D 570     -20.440  -5.523 -12.989  1.00 32.92     0.100 C 
BRANCH  16  17
ATOM     17  CD  GLU D 570     -21.738  -5.238 -13.708  1.00 32.92     0.185 C 
ATOM     18  OE1 GLU D 570     -22.323  -4.159 -13.496  1.00 32.92    -0.647 OA
ATOM     19  OE2 GLU D 570     -22.183  -6.111 -14.479  1.00 32.92    -0.647 OA
ENDBRANCH  16  17
ENDBRANCH  15  16
ENDBRANCH  14  15
END_RES GLU D 570
ENDMDL
MODEL 5
REMARK VINA RESULT:      -8.0      1.292      1.696
REMARK  5 active torsions:
REMARK  status: ('A' for Active; 'I' for Inactive)
REMARK    1  A    between atoms: C_3  and  O_17 
REMARK    2  A    between atoms: C_6  and  C_7 
REMARK    3  A    between atoms: C_8  and  C_9 
REMARK    4  A    between atoms: C_11  and  O_16 
REMARK    5  A    between atoms: C_13  and  O_15 
ROOT
HETATM    1  C   UNL     1     -21.382  -6.933  -4.137  1.00  0.00    -0.031 A 
HETATM    2  C   UNL     1     -22.098  -6.489  -3.015  1.00  0.00     0.048 A 
HETATM    3  C   UNL     1     -21.839  -7.038  -1.760  1.00  0.00     0.069 A 
HETATM    4  C   UNL     1     -20.888  -8.038  -1.595  1.00  0.00     0.073 A 
HETATM    5  C   UNL     1     -20.196  -8.491  -2.710  1.00  0.00     0.069 A 
HETATM    6  C   UNL     1     -20.436  -7.953  -3.972  1.00  0.00     0.048 A 
ENDROOT
BRANCH   1   7
HETATM    7  C   UNL     1     -21.637  -6.412  -5.492  1.00  0.00     0.012 C 
HETATM    8  C   UNL     1     -21.034  -5.329  -6.010  1.00  0.00     0.012 C 
BRANCH   8   9
HETATM    9  C   UNL     1     -21.299  -4.779  -7.348  1.00  0.00    -0.036 A 
HETATM   10  C   UNL     1     -20.310  -4.680  -8.336  1.00  0.00     0.014 A 
HETATM   11  C   UNL     1     -20.604  -4.132  -9.589  1.00  0.00     0.037 A 
HETATM   12  C   UNL     1     -21.890  -3.672  -9.851  1.00  0.00     0.065 A 
HETATM   13  C   UNL     1     -22.880  -3.741  -8.880  1.00  0.00     0.037 A 
HETATM   14  C   UNL     1     -22.582  -4.289  -7.630  1.00  0.00     0.014 A 
BRANCH  12  15
HETATM   15  O   UNL     1     -22.220  -3.137 -11.061  1.00  0.00    -0.361 OA
HETATM   16  H   UNL     1     -22.470  -2.208 -10.929  1.00  0.00     0.217 HD
ENDBRANCH  12  15
ENDBRANCH   8   9
ENDBRANCH   1   7
BRANCH   3  17
HETATM   17  O   UNL     1     -22.516  -6.618  -0.651  1.00  0.00    -0.361 OA
HETATM   18  H   UNL     1     -22.103  -7.013   0.136  1.00  0.00     0.217 HD
ENDBRANCH   3  17
BRANCH   5  19
HETATM   19  O   UNL     1     -19.261  -9.481  -2.612  1.00  0.00    -0.361 OA
HETATM   20  H   UNL     1     -18.855  -9.433  -1.730  1.00  0.00     0.217 HD
ENDBRANCH   5  19
TORSDOF 5
BEGIN_RES ARG D 557
REMARK  4 active torsions:
REMARK  status: ('A' for Active; 'I' for Inactive)
REMARK    1  A    between atoms: CA   and  CB  
REMARK    2  A    between atoms: CB   and  CG  
REMARK    3  A    between atoms: CG   and  CD  
REMARK    4  A    between atoms: CD   and  NE  
REMARK       I    between atoms: NE   and  CZ  
REMARK       I    between atoms: CZ   and  NH1 
REMARK       I    between atoms: CZ   and  NH2 
ROOT
ATOM      1  CA  ARG D 557     -26.217   2.705 -17.014  1.00 35.49     0.159 C 
ENDROOT
BRANCH   1   2
ATOM      2  CB  ARG D 557     -26.789   1.319 -17.183  1.00 35.49     0.034 C 
BRANCH   2   3
ATOM      3  CG  ARG D 557     -25.869   0.195 -16.974  1.00 35.49     0.027 C 
BRANCH   3   4
ATOM      4  CD  ARG D 557     -26.293  -0.682 -15.859  1.00 35.49     0.116 C 
BRANCH   4   5
ATOM      5  NE  ARG D 557     -25.227  -0.921 -14.922  1.00 35.49    -0.212 N 
ATOM      6  CZ  ARG D 557     -24.936  -2.077 -14.368  1.00 35.49     0.666 C 
ATOM      7  NH1 ARG D 557     -25.627  -3.175 -14.614  1.00 35.49    -0.235 N 
ATOM      8  NH2 ARG D 557     -23.919  -2.115 -13.556  1.00 35.49    -0.235 N 
ATOM      9  HH  ARG D 557     -26.298  -3.174 -15.147  1.00 35.49     0.174 HD
ATOM     10  HH  ARG D 557     -25.389  -3.901 -14.226  1.00 35.49     0.174 HD
ATOM     11  HH  ARG D 557     -23.487  -1.392 -13.422  1.00 35.49     0.174 HD
ATOM     12  HH  ARG D 557     -23.699  -2.844 -13.183  1.00 35.49     0.174 HD
ATOM     13  HE  ARG D 557     -24.775  -0.253 -14.651  1.00 35.49     0.178 HD
ENDBRANCH   4   5
ENDBRANCH   3   4
ENDBRANCH   2   3
ENDBRANCH   1   2
END_RES ARG D 557
BEGIN_RES GLU D 570
REMARK  3 active torsions:
REMARK  status: ('A' for Active; 'I' for Inactive)
REMARK    5  A    between atoms: CA   and  CB  
REMARK    6  A    between atoms: CB   and  CG  
REMARK    7  A    between atoms: CG   and  CD  
ROOT
ATOM     14  CA  GLU D 570     -18.033  -6.348 -13.375  1.00 32.92     0.160 C 
ENDROOT
BRANCH  14  15
ATOM     15  CB  GLU D 570     -19.500  -6.345 -13.794  1.00 32.92     0.043 C 
BRANCH  15  16
ATOM     16  CG  GLU D 570     -20.438  -5.515 -12.995  1.00 32.92     0.100 C 
BRANCH  16  17
ATOM     17  CD  GLU D 570     -21.691  -5.145 -13.755  1.00 32.92     0.185 C 
ATOM     18  OE1 GLU D 570     -22.765  -5.033 -13.133  1.00 32.92    -0.647 OA
ATOM     19  OE2 GLU D 570     -21.601  -4.983 -14.988  1.00 32.92    -0.647 OA
ENDBRANCH  16  17
ENDBRANCH  15  16
ENDBRANCH  14  15
END_RES GLU D 570
ENDMDL
MODEL 6
REMARK VINA RESULT:      -7.9      1.944      2.504
REMARK  5 active torsions:
REMARK  status: ('A' for Active; 'I' for Inactive)
REMARK    1  A    between atoms: C_3  and  O_17 
REMARK    2  A    between atoms: C_6  and  C_7 
REMARK    3  A    between atoms: C_8  and  C_9 
REMARK    4  A    between atoms: C_11  and  O_16 
REMARK    5  A    between atoms: C_13  and  O_15 
ROOT
HETATM    1  C   UNL     1     -20.964  -6.649  -5.380  1.00  0.00    -0.031 A 
HETATM    2  C   UNL     1     -21.679  -5.989  -4.370  1.00  0.00     0.048 A 
HETATM    3  C   UNL     1     -21.653  -6.477  -3.064  1.00  0.00     0.069 A 
HETATM    4  C   UNL     1     -20.939  -7.624  -2.739  1.00  0.00     0.073 A 
HETATM    5  C   UNL     1     -20.249  -8.288  -3.745  1.00  0.00     0.069 A 
HETATM    6  C   UNL     1     -20.258  -7.815  -5.055  1.00  0.00     0.048 A 
ENDROOT
BRANCH   1   7
HETATM    7  C   UNL     1     -20.983  -6.199  -6.783  1.00  0.00     0.012 C 
HETATM    8  C   UNL     1     -21.434  -4.998  -7.184  1.00  0.00     0.012 C 
BRANCH   8   9
HETATM    9  C   UNL     1     -21.488  -4.544  -8.581  1.00  0.00    -0.036 A 
HETATM   10  C   UNL     1     -22.653  -4.035  -9.169  1.00  0.00     0.014 A 
HETATM   11  C   UNL     1     -22.662  -3.633 -10.509  1.00  0.00     0.037 A 
HETATM   12  C   UNL     1     -21.502  -3.751 -11.267  1.00  0.00     0.065 A 
HETATM   13  C   UNL     1     -20.342  -4.272 -10.712  1.00  0.00     0.037 A 
HETATM   14  C   UNL     1     -20.337  -4.672  -9.373  1.00  0.00     0.014 A 
BRANCH  12  15
HETATM   15  O   UNL     1     -21.466  -3.365 -12.574  1.00  0.00    -0.361 OA
HETATM   16  H   UNL     1     -22.194  -3.802 -13.045  1.00  0.00     0.217 HD
ENDBRANCH  12  15
ENDBRANCH   8   9
ENDBRANCH   1   7
BRANCH   3  17
HETATM   17  O   UNL     1     -22.333  -5.849  -2.061  1.00  0.00    -0.361 OA
HETATM   18  H   UNL     1     -22.189  -6.336  -1.232  1.00  0.00     0.217 HD
ENDBRANCH   3  17
BRANCH   5  19
HETATM   19  O   UNL     1     -19.542  -9.427  -3.489  1.00  0.00    -0.361 OA
HETATM   20  H   UNL     1     -19.618 -10.015  -4.259  1.00  0.00     0.217 HD
ENDBRANCH   5  19
TORSDOF 5
BEGIN_RES ARG D 557
REMARK  4 active torsions:
REMARK  status: ('A' for Active; 'I' for Inactive)
REMARK    1  A    between atoms: CA   and  CB  
REMARK    2  A    between atoms: CB   and  CG  
REMARK    3  A    between atoms: CG   and  CD  
REMARK    4  A    between atoms: CD   and  NE  
REMARK       I    between atoms: NE   and  CZ  
REMARK       I    between atoms: CZ   and  NH1 
REMARK       I    between atoms: CZ   and  NH2 
ROOT
ATOM      1  CA  ARG D 557     -26.217   2.705 -17.014  1.00 35.49     0.159 C 
ENDROOT
BRANCH   1   2
ATOM      2  CB  ARG D 557     -26.789   1.319 -17.183  1.00 35.49     0.034 C 
BRANCH   2   3
ATOM      3  CG  ARG D 557     -28.230   1.227 -17.449  1.00 35.49     0.027 C 
BRANCH   3   4
ATOM      4  CD  ARG D 557     -28.919   0.313 -16.510  1.00 35.49     0.116 C 
BRANCH   4   5
ATOM      5  NE  ARG D 557     -29.294  -0.928 -17.137  1.00 35.49    -0.212 N 
ATOM      6  CZ  ARG D 557     -28.653  -2.069 -17.024  1.00 35.49     0.666 C 
ATOM      7  NH1 ARG D 557     -27.551  -2.196 -16.309  1.00 35.49    -0.235 N 
ATOM      8  NH2 ARG D 557     -29.148  -3.100 -17.646  1.00 35.49    -0.235 N 
ATOM      9  HH  ARG D 557     -27.209  -1.532 -15.889  1.00 35.49     0.174 HD
ATOM     10  HH  ARG D 557     -27.178  -2.967 -16.269  1.00 35.49     0.174 HD
ATOM     11  HH  ARG D 557     -29.865  -2.990 -18.095  1.00 35.49     0.174 HD
ATOM     12  HH  ARG D 557     -28.765  -3.854 -17.594  1.00 35.49     0.174 HD
ATOM     13  HE  ARG D 557     -29.952  -0.920 -17.675  1.00 35.49     0.178 HD
ENDBRANCH   4   5
ENDBRANCH   3   4
ENDBRANCH   2   3
ENDBRANCH   1   2
END_RES ARG D 557
BEGIN_RES GLU D 570
REMARK  3 active torsions:
REMARK  status: ('A' for Active; 'I' for Inactive)
REMARK    5  A    between atoms: CA   and  CB  
REMARK    6  A    between atoms: CB   and  CG  
REMARK    7  A    between atoms: CG   and  CD  
ROOT
ATOM     14  CA  GLU D 570     -18.033  -6.348 -13.375  1.00 32.92     0.160 C 
ENDROOT
BRANCH  14  15
ATOM     15  CB  GLU D 570     -19.500  -6.345 -13.794  1.00 32.92     0.043 C 
BRANCH  15  16
ATOM     16  CG  GLU D 570     -19.806  -6.025 -15.212  1.00 32.92     0.100 C 
BRANCH  16  17
ATOM     17  CD  GLU D 570     -21.204  -5.484 -15.406  1.00 32.92     0.185 C 
ATOM     18  OE1 GLU D 570     -22.002  -5.513 -14.449  1.00 32.92    -0.647 OA
ATOM     19  OE2 GLU D 570     -21.510  -5.043 -16.531  1.00 32.92    -0.647 OA
ENDBRANCH  16  17
ENDBRANCH  15  16
ENDBRANCH  14  15
END_RES GLU D 570
ENDMDL
MODEL 7
REMARK VINA RESULT:      -7.9      2.296      6.296
REMARK  5 active torsions:
REMARK  status: ('A' for Active; 'I' for Inactive)
REMARK    1  A    between atoms: C_3  and  O_17 
REMARK    2  A    between atoms: C_6  and  C_7 
REMARK    3  A    between atoms: C_8  and  C_9 
REMARK    4  A    between atoms: C_11  and  O_16 
REMARK    5  A    between atoms: C_13  and  O_15 
ROOT
HETATM    1  C   UNL     1     -21.663  -5.616  -6.009  1.00  0.00    -0.031 A 
HETATM    2  C   UNL     1     -22.863  -5.166  -6.581  1.00  0.00     0.048 A 
HETATM    3  C   UNL     1     -22.834  -4.298  -7.672  1.00  0.00     0.069 A 
HETATM    4  C   UNL     1     -21.630  -3.850  -8.202  1.00  0.00     0.073 A 
HETATM    5  C   UNL     1     -20.444  -4.278  -7.620  1.00  0.00     0.069 A 
HETATM    6  C   UNL     1     -20.450  -5.149  -6.534  1.00  0.00     0.048 A 
ENDROOT
BRANCH   1   7
HETATM    7  C   UNL     1     -21.634  -6.506  -4.836  1.00  0.00     0.012 C 
HETATM    8  C   UNL     1     -21.449  -6.084  -3.573  1.00  0.00     0.012 C 
BRANCH   8   9
HETATM    9  C   UNL     1     -21.388  -6.962  -2.395  1.00  0.00    -0.036 A 
HETATM   10  C   UNL     1     -20.551  -8.084  -2.328  1.00  0.00     0.014 A 
HETATM   11  C   UNL     1     -20.540  -8.901  -1.192  1.00  0.00     0.037 A 
HETATM   12  C   UNL     1     -21.379  -8.601  -0.125  1.00  0.00     0.065 A 
HETATM   13  C   UNL     1     -22.231  -7.507  -0.177  1.00  0.00     0.037 A 
HETATM   14  C   UNL     1     -22.239  -6.693  -1.312  1.00  0.00     0.014 A 
BRANCH  12  15
HETATM   15  O   UNL     1     -21.394  -9.368   1.003  1.00  0.00    -0.361 OA
HETATM   16  H   UNL     1     -20.611  -9.941   0.997  1.00  0.00     0.217 HD
ENDBRANCH  12  15
ENDBRANCH   8   9
ENDBRANCH   1   7
BRANCH   3  17
HETATM   17  O   UNL     1     -23.986  -3.853  -8.252  1.00  0.00    -0.361 OA
HETATM   18  H   UNL     1     -24.399  -4.590  -8.734  1.00  0.00     0.217 HD
ENDBRANCH   3  17
BRANCH   5  19
HETATM   19  O   UNL     1     -19.231  -3.860  -8.089  1.00  0.00    -0.361 OA
HETATM   20  H   UNL     1     -18.750  -3.437  -7.358  1.00  0.00     0.217 HD
ENDBRANCH   5  19
TORSDOF 5
BEGIN_RES ARG D 557
REMARK  4 active torsions:
REMARK  status: ('A' for Active; 'I' for Inactive)
REMARK    1  A    between atoms: CA   and  CB  
REMARK    2  A    between atoms: CB   and  CG  
REMARK    3  A    between atoms: CG   and  CD  
REMARK    4  A    between atoms: CD   and  NE  
REMARK       I    between atoms: NE   and  CZ  
REMARK       I    between atoms: CZ   and  NH1 
REMARK       I    between atoms: CZ   and  NH2 
ROOT
ATOM      1  CA  ARG D 557     -26.217   2.705 -17.014  1.00 35.49     0.159 C 
ENDROOT
BRANCH   1   2
ATOM      2  CB  ARG D 557     -26.789   1.319 -17.183  1.00 35.49     0.034 C 
BRANCH   2   3
ATOM      3  CG  ARG D 557     -25.862   0.195 -17.003  1.00 35.49     0.027 C 
BRANCH   3   4
ATOM      4  CD  ARG D 557     -26.268  -0.700 -15.895  1.00 35.49     0.116 C 
BRANCH   4   5
ATOM      5  NE  ARG D 557     -25.211  -0.893 -14.938  1.00 35.49    -0.212 N 
ATOM      6  CZ  ARG D 557     -24.906  -2.027 -14.349  1.00 35.49     0.666 C 
ATOM      7  NH1 ARG D 557     -25.572  -3.144 -14.573  1.00 35.49    -0.235 N 
ATOM      8  NH2 ARG D 557     -23.900  -2.023 -13.523  1.00 35.49    -0.235 N 
ATOM      9  HH  ARG D 557     -26.236  -3.171 -15.115  1.00 35.49     0.174 HD
ATOM     10  HH  ARG D 557     -25.326  -3.855 -14.162  1.00 35.49     0.174 HD
ATOM     11  HH  ARG D 557     -23.484  -1.288 -13.403  1.00 35.49     0.174 HD
ATOM     12  HH  ARG D 557     -23.671  -2.737 -13.127  1.00 35.49     0.174 HD
ATOM     13  HE  ARG D 557     -24.776  -0.209 -14.680  1.00 35.49     0.178 HD
ENDBRANCH   4   5
ENDBRANCH   3   4
ENDBRANCH   2   3
ENDBRANCH   1   2
END_RES ARG D 557
BEGIN_RES GLU D 570
REMARK  3 active torsions:
REMARK  status: ('A' for Active; 'I' for Inactive)
REMARK    5  A    between atoms: CA   and  CB  
REMARK    6  A    between atoms: CB   and  CG  
REMARK    7  A    between atoms: CG   and  CD  
ROOT
ATOM     14  CA  GLU D 570     -18.033  -6.348 -13.375  1.00 32.92     0.160 C 
ENDROOT
BRANCH  14  15
ATOM     15  CB  GLU D 570     -19.500  -6.345 -13.794  1.00 32.92     0.043 C 
BRANCH  15  16
ATOM     16  CG  GLU D 570     -20.449  -5.565 -12.958  1.00 32.92     0.100 C 
BRANCH  16  17
ATOM     17  CD  GLU D 570     -21.689  -5.145 -13.711  1.00 32.92     0.185 C 
ATOM     18  OE1 GLU D 570     -22.691  -4.775 -13.069  1.00 32.92    -0.647 OA
ATOM     19  OE2 GLU D 570     -21.665  -5.201 -14.957  1.00 32.92    -0.647 OA
ENDBRANCH  16  17
ENDBRANCH  15  16
ENDBRANCH  14  15
END_RES GLU D 570
ENDMDL
MODEL 8
REMARK VINA RESULT:      -7.8      6.892     11.572
REMARK  5 active torsions:
REMARK  status: ('A' for Active; 'I' for Inactive)
REMARK    1  A    between atoms: C_3  and  O_17 
REMARK    2  A    between atoms: C_6  and  C_7 
REMARK    3  A    between atoms: C_8  and  C_9 
REMARK    4  A    between atoms: C_11  and  O_16 
REMARK    5  A    between atoms: C_13  and  O_15 
ROOT
HETATM    1  C   UNL     1     -26.154  -6.795 -19.675  1.00  0.00    -0.031 A 
HETATM    2  C   UNL     1     -25.089  -6.746 -18.762  1.00  0.00     0.048 A 
HETATM    3  C   UNL     1     -23.843  -7.262 -19.114  1.00  0.00     0.069 A 
HETATM    4  C   UNL     1     -23.632  -7.845 -20.357  1.00  0.00     0.073 A 
HETATM    5  C   UNL     1     -24.692  -7.913 -21.252  1.00  0.00     0.069 A 
HETATM    6  C   UNL     1     -25.944  -7.399 -20.922  1.00  0.00     0.048 A 
ENDROOT
BRANCH   1   7
HETATM    7  C   UNL     1     -27.500  -6.296 -19.345  1.00  0.00     0.012 C 
HETATM    8  C   UNL     1     -27.881  -5.909 -18.115  1.00  0.00     0.012 C 
BRANCH   8   9
HETATM    9  C   UNL     1     -29.228  -5.437 -17.763  1.00  0.00    -0.036 A 
HETATM   10  C   UNL     1     -30.257  -6.304 -17.373  1.00  0.00     0.014 A 
HETATM   11  C   UNL     1     -31.530  -5.810 -17.065  1.00  0.00     0.037 A 
HETATM   12  C   UNL     1     -31.776  -4.445 -17.158  1.00  0.00     0.065 A 
HETATM   13  C   UNL     1     -30.777  -3.570 -17.560  1.00  0.00     0.037 A 
HETATM   14  C   UNL     1     -29.507  -4.066 -17.867  1.00  0.00     0.014 A 
BRANCH  12  15
HETATM   15  O   UNL     1     -32.999  -3.922 -16.860  1.00  0.00    -0.361 OA
HETATM   16  H   UNL     1     -33.637  -4.235 -17.522  1.00  0.00     0.217 HD
ENDBRANCH  12  15
ENDBRANCH   8   9
ENDBRANCH   1   7
BRANCH   3  17
HETATM   17  O   UNL     1     -22.790  -7.218 -18.247  1.00  0.00    -0.361 OA
HETATM   18  H   UNL     1     -21.966  -7.339 -18.750  1.00  0.00     0.217 HD
ENDBRANCH   3  17
BRANCH   5  19
HETATM   19  O   UNL     1     -24.549  -8.487 -22.482  1.00  0.00    -0.361 OA
HETATM   20  H   UNL     1     -23.600  -8.605 -22.657  1.00  0.00     0.217 HD
ENDBRANCH   5  19
TORSDOF 5
BEGIN_RES ARG D 557
REMARK  4 active torsions:
REMARK  status: ('A' for Active; 'I' for Inactive)
REMARK    1  A    between atoms: CA   and  CB  
REMARK    2  A    between atoms: CB   and  CG  
REMARK    3  A    between atoms: CG   and  CD  
REMARK    4  A    between atoms: CD   and  NE  
REMARK       I    between atoms: NE   and  CZ  
REMARK       I    between atoms: CZ   and  NH1 
REMARK       I    between atoms: CZ   and  NH2 
ROOT
ATOM      1  CA  ARG D 557     -26.217   2.705 -17.014  1.00 35.49     0.159 C 
ENDROOT
BRANCH   1   2
ATOM      2  CB  ARG D 557     -26.789   1.319 -17.183  1.00 35.49     0.034 C 
BRANCH   2   3
ATOM      3  CG  ARG D 557     -25.937   0.198 -16.769  1.00 35.49     0.027 C 
BRANCH   3   4
ATOM      4  CD  ARG D 557     -26.707  -0.884 -16.114  1.00 35.49     0.116 C 
BRANCH   4   5
ATOM      5  NE  ARG D 557     -25.999  -1.457 -15.000  1.00 35.49    -0.212 N 
ATOM      6  CZ  ARG D 557     -25.986  -2.729 -14.669  1.00 35.49     0.666 C 
ATOM      7  NH1 ARG D 557     -26.660  -3.643 -15.343  1.00 35.49    -0.235 N 
ATOM      8  NH2 ARG D 557     -25.270  -3.075 -13.639  1.00 35.49    -0.235 N 
ATOM      9  HH  ARG D 557     -27.136  -3.439 -16.025  1.00 35.49     0.174 HD
ATOM     10  HH  ARG D 557     -26.612  -4.458 -15.082  1.00 35.49     0.174 HD
ATOM     11  HH  ARG D 557     -24.840  -2.464 -13.228  1.00 35.49     0.174 HD
ATOM     12  HH  ARG D 557     -25.234  -3.887 -13.398  1.00 35.49     0.174 HD
ATOM     13  HE  ARG D 557     -25.596  -0.929 -14.469  1.00 35.49     0.178 HD
ENDBRANCH   4   5
ENDBRANCH   3   4
ENDBRANCH   2   3
ENDBRANCH   1   2
END_RES ARG D 557
BEGIN_RES GLU D 570
REMARK  3 active torsions:
REMARK  status: ('A' for Active; 'I' for Inactive)
REMARK    5  A    between atoms: CA   and  CB  
REMARK    6  A    between atoms: CB   and  CG  
REMARK    7  A    between atoms: CG   and  CD  
ROOT
ATOM     14  CA  GLU D 570     -18.033  -6.348 -13.375  1.00 32.92     0.160 C 
ENDROOT
BRANCH  14  15
ATOM     15  CB  GLU D 570     -19.500  -6.345 -13.794  1.00 32.92     0.043 C 
BRANCH  15  16
ATOM     16  CG  GLU D 570     -20.106  -7.647 -14.172  1.00 32.92     0.100 C 
BRANCH  16  17
ATOM     17  CD  GLU D 570     -20.907  -7.575 -15.452  1.00 32.92     0.185 C 
ATOM     18  OE1 GLU D 570     -20.844  -8.522 -16.259  1.00 32.92    -0.647 OA
ATOM     19  OE2 GLU D 570     -21.591  -6.553 -15.657  1.00 32.92    -0.647 OA
ENDBRANCH  16  17
ENDBRANCH  15  16
ENDBRANCH  14  15
END_RES GLU D 570
ENDMDL
MODEL 9
REMARK VINA RESULT:      -7.6      5.833     11.550
REMARK  5 active torsions:
REMARK  status: ('A' for Active; 'I' for Inactive)
REMARK    1  A    between atoms: C_3  and  O_17 
REMARK    2  A    between atoms: C_6  and  C_7 
REMARK    3  A    between atoms: C_8  and  C_9 
REMARK    4  A    between atoms: C_11  and  O_16 
REMARK    5  A    between atoms: C_13  and  O_15 
ROOT
HETATM    1  C   UNL     1     -29.510  -5.789 -18.191  1.00  0.00    -0.031 A 
HETATM    2  C   UNL     1     -30.706  -6.405 -17.795  1.00  0.00     0.048 A 
HETATM    3  C   UNL     1     -31.750  -5.637 -17.281  1.00  0.00     0.069 A 
HETATM    4  C   UNL     1     -31.625  -4.261 -17.134  1.00  0.00     0.073 A 
HETATM    5  C   UNL     1     -30.432  -3.655 -17.506  1.00  0.00     0.069 A 
HETATM    6  C   UNL     1     -29.379  -4.404 -18.027  1.00  0.00     0.048 A 
ENDROOT
BRANCH   1   7
HETATM    7  C   UNL     1     -28.363  -6.555 -18.710  1.00  0.00     0.012 C 
HETATM    8  C   UNL     1     -27.251  -5.996 -19.219  1.00  0.00     0.012 C 
BRANCH   8   9
HETATM    9  C   UNL     1     -26.111  -6.745 -19.767  1.00  0.00    -0.036 A 
HETATM   10  C   UNL     1     -26.177  -7.450 -20.977  1.00  0.00     0.014 A 
HETATM   11  C   UNL     1     -25.071  -8.164 -21.450  1.00  0.00     0.037 A 
HETATM   12  C   UNL     1     -23.898  -8.183 -20.705  1.00  0.00     0.065 A 
HETATM   13  C   UNL     1     -23.816  -7.509 -19.494  1.00  0.00     0.037 A 
HETATM   14  C   UNL     1     -24.922  -6.797 -19.024  1.00  0.00     0.014 A 
BRANCH  12  15
HETATM   15  O   UNL     1     -22.795  -8.861 -21.133  1.00  0.00    -0.361 OA
HETATM   16  H   UNL     1     -22.780  -8.843 -22.104  1.00  0.00     0.217 HD
ENDBRANCH  12  15
ENDBRANCH   8   9
ENDBRANCH   1   7
BRANCH   3  17
HETATM   17  O   UNL     1     -32.927  -6.211 -16.896  1.00  0.00    -0.361 OA
HETATM   18  H   UNL     1     -33.662  -5.656 -17.209  1.00  0.00     0.217 HD
ENDBRANCH   3  17
BRANCH   5  19
HETATM   19  O   UNL     1     -30.245  -2.309 -17.373  1.00  0.00    -0.361 OA
HETATM   20  H   UNL     1     -29.511  -2.162 -16.753  1.00  0.00     0.217 HD
ENDBRANCH   5  19
TORSDOF 5
BEGIN_RES ARG D 557
REMARK  4 active torsions:
REMARK  status: ('A' for Active; 'I' for Inactive)
REMARK    1  A    between atoms: CA   and  CB  
REMARK    2  A    between atoms: CB   and  CG  
REMARK    3  A    between atoms: CG   and  CD  
REMARK    4  A    between atoms: CD   and  NE  
REMARK       I    between atoms: NE   and  CZ  
REMARK       I    between atoms: CZ   and  NH1 
REMARK       I    between atoms: CZ   and  NH2 
ROOT
ATOM      1  CA  ARG D 557     -26.217   2.705 -17.014  1.00 35.49     0.159 C 
ENDROOT
BRANCH   1   2
ATOM      2  CB  ARG D 557     -26.789   1.319 -17.183  1.00 35.49     0.034 C 
BRANCH   2   3
ATOM      3  CG  ARG D 557     -25.837   0.202 -17.143  1.00 35.49     0.027 C 
BRANCH   3   4
ATOM      4  CD  ARG D 557     -24.768   0.408 -16.139  1.00 35.49     0.116 C 
BRANCH   4   5
ATOM      5  NE  ARG D 557     -24.923  -0.454 -14.997  1.00 35.49    -0.212 N 
ATOM      6  CZ  ARG D 557     -24.108  -1.426 -14.652  1.00 35.49     0.666 C 
ATOM      7  NH1 ARG D 557     -23.031  -1.731 -15.353  1.00 35.49    -0.235 N 
ATOM      8  NH2 ARG D 557     -24.393  -2.092 -13.571  1.00 35.49    -0.235 N 
ATOM      9  HH  ARG D 557     -22.824  -1.304 -16.066  1.00 35.49     0.174 HD
ATOM     10  HH  ARG D 557     -22.535  -2.373 -15.078  1.00 35.49     0.174 HD
ATOM     11  HH  ARG D 557     -25.090  -1.868 -13.135  1.00 35.49     0.174 HD
ATOM     12  HH  ARG D 557     -23.888  -2.724 -13.315  1.00 35.49     0.174 HD
ATOM     13  HE  ARG D 557     -25.629  -0.375 -14.530  1.00 35.49     0.178 HD
ENDBRANCH   4   5
ENDBRANCH   3   4
ENDBRANCH   2   3
ENDBRANCH   1   2
END_RES ARG D 557
BEGIN_RES GLU D 570
REMARK  3 active torsions:
REMARK  status: ('A' for Active; 'I' for Inactive)
REMARK    5  A    between atoms: CA   and  CB  
REMARK    6  A    between atoms: CB   and  CG  
REMARK    7  A    between atoms: CG   and  CD  
ROOT
ATOM     14  CA  GLU D 570     -18.033  -6.348 -13.375  1.00 32.92     0.160 C 
ENDROOT
BRANCH  14  15
ATOM     15  CB  GLU D 570     -19.500  -6.345 -13.794  1.00 32.92     0.043 C 
BRANCH  15  16
ATOM     16  CG  GLU D 570     -20.443  -5.536 -12.979  1.00 32.92     0.100 C 
BRANCH  16  17
ATOM     17  CD  GLU D 570     -21.689  -5.141 -13.738  1.00 32.92     0.185 C 
ATOM     18  OE1 GLU D 570     -22.328  -4.137 -13.371  1.00 32.92    -0.647 OA
ATOM     19  OE2 GLU D 570     -22.038  -5.854 -14.699  1.00 32.92    -0.647 OA
ENDBRANCH  16  17
ENDBRANCH  15  16
ENDBRANCH  14  15
END_RES GLU D 570
ENDMDL
