MODEL 1
REMARK VINA RESULT:      -6.2      0.000      0.000
REMARK  32 active torsions:
REMARK  status: ('A' for Active; 'I' for Inactive)
REMARK    1  A    between atoms: C_2  and  C_3 
REMARK    2  A    between atoms: C_3  and  C_4 
REMARK    3  A    between atoms: C_4  and  C_5 
REMARK    4  A    between atoms: C_5  and  C_6 
REMARK    5  A    between atoms: C_6  and  C_7 
REMARK    6  A    between atoms: C_7  and  C_8 
REMARK    7  A    between atoms: C_8  and  C_9 
REMARK    8  A    between atoms: C_9  and  C_10 
REMARK    9  A    between atoms: C_10  and  C_11 
REMARK   10  A    between atoms: C_11  and  C_12 
REMARK   11  A    between atoms: C_12  and  C_13 
REMARK   12  A    between atoms: C_13  and  C_14 
REMARK   13  A    between atoms: C_14  and  C_15 
REMARK   14  A    between atoms: C_15  and  C_16 
REMARK   15  A    between atoms: C_16  and  C_17 
REMARK   16  A    between atoms: C_17  and  C_18 
REMARK   17  A    between atoms: C_18  and  O_19 
REMARK   18  A    between atoms: C_22  and  C_23 
REMARK   19  A    between atoms: C_23  and  C_24 
REMARK   20  A    between atoms: C_24  and  C_25 
REMARK   21  A    between atoms: C_25  and  C_26 
REMARK   22  A    between atoms: C_26  and  C_27 
REMARK   23  A    between atoms: C_27  and  C_28 
REMARK   24  A    between atoms: C_28  and  C_29 
REMARK   25  A    between atoms: C_29  and  C_30 
REMARK   26  A    between atoms: C_30  and  C_31 
REMARK   27  A    between atoms: C_31  and  C_32 
REMARK   28  A    between atoms: C_32  and  C_33 
REMARK   29  A    between atoms: C_33  and  C_34 
REMARK   30  A    between atoms: C_34  and  C_35 
REMARK   31  A    between atoms: C_35  and  C_36 
REMARK   32  A    between atoms: C_36  and  O_37 
ROOT
HETATM    1  C   UNL     2     -21.713  -5.570  -6.070  1.00  0.00     0.000 C 
ENDROOT
BRANCH   1   2
HETATM    2  C   UNL     2     -22.160  -6.538  -4.967  1.00  0.00     0.000 C 
BRANCH   2   3
HETATM    3  C   UNL     2     -21.445  -7.897  -5.000  1.00  0.00     0.000 C 
BRANCH   3   4
HETATM    4  C   UNL     2     -20.614  -8.186  -3.747  1.00  0.00     0.000 C 
BRANCH   4   5
HETATM    5  C   UNL     2     -20.965  -7.226  -2.603  1.00  0.00     0.000 C 
BRANCH   5   6
HETATM    6  C   UNL     2     -21.286  -7.946  -1.292  1.00  0.00     0.000 C 
BRANCH   6   7
HETATM    7  C   UNL     2     -22.320  -7.249  -0.406  1.00  0.00    -0.000 C 
BRANCH   7   8
HETATM    8  C   UNL     2     -23.186  -8.176   0.448  1.00  0.00    -0.005 C 
HETATM    9  C   UNL     2     -23.188  -9.615  -0.034  1.00  0.00     0.005 C 
ENDBRANCH   7   8
ENDBRANCH   6   7
ENDBRANCH   5   6
ENDBRANCH   4   5
ENDBRANCH   3   4
ENDBRANCH   2   3
ENDBRANCH   1   2
BRANCH   1  10
HETATM   10  C   UNL     2     -20.396  -4.861  -5.716  1.00  0.00     0.000 C 
BRANCH  10  11
HETATM   11  C   UNL     2     -19.502  -4.681  -6.953  1.00  0.00     0.000 C 
BRANCH  11  12
HETATM   12  C   UNL     2     -20.122  -5.274  -8.224  1.00  0.00     0.000 C 
BRANCH  12  13
HETATM   13  C   UNL     2     -20.624  -4.176  -9.167  1.00  0.00     0.000 C 
BRANCH  13  14
HETATM   14  C   UNL     2     -22.006  -4.485  -9.755  1.00  0.00     0.002 C 
BRANCH  14  15
HETATM   15  C   UNL     2     -23.112  -3.701  -9.038  1.00  0.00     0.026 C 
BRANCH  15  16
HETATM   16  C   UNL     2     -24.430  -3.731  -9.803  1.00  0.00     0.164 C 
BRANCH  16  17
HETATM   17  O   UNL     2     -24.300  -3.000 -11.016  1.00  0.00    -0.401 OA
HETATM   18  H   UNL     2     -24.914  -3.388 -11.662  1.00  0.00     0.209 HD
ENDBRANCH  16  17
ENDBRANCH  15  16
ENDBRANCH  14  15
ENDBRANCH  13  14
ENDBRANCH  12  13
ENDBRANCH  11  12
ENDBRANCH  10  11
ENDBRANCH   1  10
TORSDOF 32
BEGIN_RES ARG D 557
REMARK  4 active torsions:
REMARK  status: ('A' for Active; 'I' for Inactive)
REMARK    1  A    between atoms: CA   and  CB  
REMARK    2  A    between atoms: CB   and  CG  
REMARK    3  A    between atoms: CG   and  CD  
REMARK    4  A    between atoms: CD   and  NE  
REMARK       I    between atoms: NE   and  CZ  
REMARK       I    between atoms: CZ   and  NH1 
REMARK       I    between atoms: CZ   and  NH2 
ROOT
ATOM      1  CA  ARG D 557     -26.217   2.705 -17.014  1.00 35.49     0.159 C 
ENDROOT
BRANCH   1   2
ATOM      2  CB  ARG D 557     -26.789   1.319 -17.183  1.00 35.49     0.034 C 
BRANCH   2   3
ATOM      3  CG  ARG D 557     -25.854   0.196 -17.039  1.00 35.49     0.027 C 
BRANCH   3   4
ATOM      4  CD  ARG D 557     -26.209  -0.692 -15.909  1.00 35.49     0.116 C 
BRANCH   4   5
ATOM      5  NE  ARG D 557     -25.137  -0.813 -14.957  1.00 35.49    -0.212 N 
ATOM      6  CZ  ARG D 557     -24.745  -1.925 -14.378  1.00 35.49     0.666 C 
ATOM      7  NH1 ARG D 557     -25.326  -3.088 -14.609  1.00 35.49    -0.235 N 
ATOM      8  NH2 ARG D 557     -23.740  -1.852 -13.554  1.00 35.49    -0.235 N 
ATOM      9  HH  ARG D 557     -25.988  -3.160 -15.148  1.00 35.49     0.174 HD
ATOM     10  HH  ARG D 557     -25.026  -3.781 -14.204  1.00 35.49     0.174 HD
ATOM     11  HH  ARG D 557     -23.379  -1.089 -13.430  1.00 35.49     0.174 HD
ATOM     12  HH  ARG D 557     -23.456  -2.549 -13.164  1.00 35.49     0.174 HD
ATOM     13  HE  ARG D 557     -24.754  -0.100 -14.695  1.00 35.49     0.178 HD
ENDBRANCH   4   5
ENDBRANCH   3   4
ENDBRANCH   2   3
ENDBRANCH   1   2
END_RES ARG D 557
BEGIN_RES GLU D 570
REMARK  3 active torsions:
REMARK  status: ('A' for Active; 'I' for Inactive)
REMARK    5  A    between atoms: CA   and  CB  
REMARK    6  A    between atoms: CB   and  CG  
REMARK    7  A    between atoms: CG   and  CD  
ROOT
ATOM     14  CA  GLU D 570     -18.033  -6.348 -13.375  1.00 32.92     0.160 C 
ENDROOT
BRANCH  14  15
ATOM     15  CB  GLU D 570     -19.500  -6.345 -13.794  1.00 32.92     0.043 C 
BRANCH  15  16
ATOM     16  CG  GLU D 570     -20.445  -5.544 -12.974  1.00 32.92     0.100 C 
BRANCH  16  17
ATOM     17  CD  GLU D 570     -21.771  -5.313 -13.659  1.00 32.92     0.185 C 
ATOM     18  OE1 GLU D 570     -22.091  -6.040 -14.619  1.00 32.92    -0.647 OA
ATOM     19  OE2 GLU D 570     -22.491  -4.384 -13.242  1.00 32.92    -0.647 OA
ENDBRANCH  16  17
ENDBRANCH  15  16
ENDBRANCH  14  15
END_RES GLU D 570
ENDMDL
MODEL 2
REMARK VINA RESULT:      -6.2      0.941      1.507
REMARK  32 active torsions:
REMARK  status: ('A' for Active; 'I' for Inactive)
REMARK    1  A    between atoms: C_2  and  C_3 
REMARK    2  A    between atoms: C_3  and  C_4 
REMARK    3  A    between atoms: C_4  and  C_5 
REMARK    4  A    between atoms: C_5  and  C_6 
REMARK    5  A    between atoms: C_6  and  C_7 
REMARK    6  A    between atoms: C_7  and  C_8 
REMARK    7  A    between atoms: C_8  and  C_9 
REMARK    8  A    between atoms: C_9  and  C_10 
REMARK    9  A    between atoms: C_10  and  C_11 
REMARK   10  A    between atoms: C_11  and  C_12 
REMARK   11  A    between atoms: C_12  and  C_13 
REMARK   12  A    between atoms: C_13  and  C_14 
REMARK   13  A    between atoms: C_14  and  C_15 
REMARK   14  A    between atoms: C_15  and  C_16 
REMARK   15  A    between atoms: C_16  and  C_17 
REMARK   16  A    between atoms: C_17  and  C_18 
REMARK   17  A    between atoms: C_18  and  O_19 
REMARK   18  A    between atoms: C_22  and  C_23 
REMARK   19  A    between atoms: C_23  and  C_24 
REMARK   20  A    between atoms: C_24  and  C_25 
REMARK   21  A    between atoms: C_25  and  C_26 
REMARK   22  A    between atoms: C_26  and  C_27 
REMARK   23  A    between atoms: C_27  and  C_28 
REMARK   24  A    between atoms: C_28  and  C_29 
REMARK   25  A    between atoms: C_29  and  C_30 
REMARK   26  A    between atoms: C_30  and  C_31 
REMARK   27  A    between atoms: C_31  and  C_32 
REMARK   28  A    between atoms: C_32  and  C_33 
REMARK   29  A    between atoms: C_33  and  C_34 
REMARK   30  A    between atoms: C_34  and  C_35 
REMARK   31  A    between atoms: C_35  and  C_36 
REMARK   32  A    between atoms: C_36  and  O_37 
ROOT
HETATM    1  C   UNL     2     -20.477  -6.738  -5.582  1.00  0.00     0.000 C 
ENDROOT
BRANCH   1   2
HETATM    2  C   UNL     2     -21.389  -7.415  -4.551  1.00  0.00     0.000 C 
BRANCH   2   3
HETATM    3  C   UNL     2     -21.636  -6.576  -3.289  1.00  0.00     0.000 C 
BRANCH   3   4
HETATM    4  C   UNL     2     -21.345  -7.325  -1.985  1.00  0.00     0.000 C 
BRANCH   4   5
HETATM    5  C   UNL     2     -22.324  -6.926  -0.874  1.00  0.00     0.000 C 
BRANCH   5   6
HETATM    6  C   UNL     2     -22.223  -7.819   0.364  1.00  0.00     0.000 C 
BRANCH   6   7
HETATM    7  C   UNL     2     -22.296  -9.321   0.087  1.00  0.00    -0.000 C 
BRANCH   7   8
HETATM    8  C   UNL     2     -23.706  -9.901  -0.025  1.00  0.00    -0.005 C 
HETATM    9  C   UNL     2     -23.727 -11.411  -0.183  1.00  0.00     0.005 C 
ENDBRANCH   7   8
ENDBRANCH   6   7
ENDBRANCH   5   6
ENDBRANCH   4   5
ENDBRANCH   3   4
ENDBRANCH   2   3
ENDBRANCH   1   2
BRANCH   1  10
HETATM   10  C   UNL     2     -20.356  -5.225  -5.340  1.00  0.00     0.000 C 
BRANCH  10  11
HETATM   11  C   UNL     2     -19.870  -4.490  -6.599  1.00  0.00     0.000 C 
BRANCH  11  12
HETATM   12  C   UNL     2     -21.019  -4.086  -7.532  1.00  0.00     0.000 C 
BRANCH  12  13
HETATM   13  C   UNL     2     -20.737  -4.502  -8.979  1.00  0.00     0.000 C 
BRANCH  13  14
HETATM   14  C   UNL     2     -21.711  -3.866  -9.979  1.00  0.00     0.002 C 
BRANCH  14  15
HETATM   15  C   UNL     2     -23.133  -3.790  -9.412  1.00  0.00     0.026 C 
BRANCH  15  16
HETATM   16  C   UNL     2     -24.179  -4.279 -10.407  1.00  0.00     0.164 C 
BRANCH  16  17
HETATM   17  O   UNL     2     -25.019  -3.198 -10.793  1.00  0.00    -0.401 OA
HETATM   18  H   UNL     2     -25.388  -3.408 -11.668  1.00  0.00     0.209 HD
ENDBRANCH  16  17
ENDBRANCH  15  16
ENDBRANCH  14  15
ENDBRANCH  13  14
ENDBRANCH  12  13
ENDBRANCH  11  12
ENDBRANCH  10  11
ENDBRANCH   1  10
TORSDOF 32
BEGIN_RES ARG D 557
REMARK  4 active torsions:
REMARK  status: ('A' for Active; 'I' for Inactive)
REMARK    1  A    between atoms: CA   and  CB  
REMARK    2  A    between atoms: CB   and  CG  
REMARK    3  A    between atoms: CG   and  CD  
REMARK    4  A    between atoms: CD   and  NE  
REMARK       I    between atoms: NE   and  CZ  
REMARK       I    between atoms: CZ   and  NH1 
REMARK       I    between atoms: CZ   and  NH2 
ROOT
ATOM      1  CA  ARG D 557     -26.217   2.705 -17.014  1.00 35.49     0.159 C 
ENDROOT
BRANCH   1   2
ATOM      2  CB  ARG D 557     -26.789   1.319 -17.183  1.00 35.49     0.034 C 
BRANCH   2   3
ATOM      3  CG  ARG D 557     -25.837   0.202 -17.147  1.00 35.49     0.027 C 
BRANCH   3   4
ATOM      4  CD  ARG D 557     -24.761   0.410 -16.151  1.00 35.49     0.116 C 
BRANCH   4   5
ATOM      5  NE  ARG D 557     -24.907  -0.453 -15.008  1.00 35.49    -0.212 N 
ATOM      6  CZ  ARG D 557     -24.082  -1.416 -14.663  1.00 35.49     0.666 C 
ATOM      7  NH1 ARG D 557     -23.003  -1.711 -15.364  1.00 35.49    -0.235 N 
ATOM      8  NH2 ARG D 557     -24.359  -2.085 -13.581  1.00 35.49    -0.235 N 
ATOM      9  HH  ARG D 557     -22.799  -1.282 -16.077  1.00 35.49     0.174 HD
ATOM     10  HH  ARG D 557     -22.500  -2.348 -15.088  1.00 35.49     0.174 HD
ATOM     11  HH  ARG D 557     -25.059  -1.867 -13.145  1.00 35.49     0.174 HD
ATOM     12  HH  ARG D 557     -23.849  -2.711 -13.325  1.00 35.49     0.174 HD
ATOM     13  HE  ARG D 557     -25.613  -0.380 -14.541  1.00 35.49     0.178 HD
ENDBRANCH   4   5
ENDBRANCH   3   4
ENDBRANCH   2   3
ENDBRANCH   1   2
END_RES ARG D 557
BEGIN_RES GLU D 570
REMARK  3 active torsions:
REMARK  status: ('A' for Active; 'I' for Inactive)
REMARK    5  A    between atoms: CA   and  CB  
REMARK    6  A    between atoms: CB   and  CG  
REMARK    7  A    between atoms: CG   and  CD  
ROOT
ATOM     14  CA  GLU D 570     -18.033  -6.348 -13.375  1.00 32.92     0.160 C 
ENDROOT
BRANCH  14  15
ATOM     15  CB  GLU D 570     -19.500  -6.345 -13.794  1.00 32.92     0.043 C 
BRANCH  15  16
ATOM     16  CG  GLU D 570     -20.444  -5.542 -12.974  1.00 32.92     0.100 C 
BRANCH  16  17
ATOM     17  CD  GLU D 570     -21.743  -5.250 -13.689  1.00 32.92     0.185 C 
ATOM     18  OE1 GLU D 570     -22.292  -4.144 -13.518  1.00 32.92    -0.647 OA
ATOM     19  OE2 GLU D 570     -22.225  -6.142 -14.414  1.00 32.92    -0.647 OA
ENDBRANCH  16  17
ENDBRANCH  15  16
ENDBRANCH  14  15
END_RES GLU D 570
ENDMDL
MODEL 3
REMARK VINA RESULT:      -6.1      8.152     13.468
REMARK  32 active torsions:
REMARK  status: ('A' for Active; 'I' for Inactive)
REMARK    1  A    between atoms: C_2  and  C_3 
REMARK    2  A    between atoms: C_3  and  C_4 
REMARK    3  A    between atoms: C_4  and  C_5 
REMARK    4  A    between atoms: C_5  and  C_6 
REMARK    5  A    between atoms: C_6  and  C_7 
REMARK    6  A    between atoms: C_7  and  C_8 
REMARK    7  A    between atoms: C_8  and  C_9 
REMARK    8  A    between atoms: C_9  and  C_10 
REMARK    9  A    between atoms: C_10  and  C_11 
REMARK   10  A    between atoms: C_11  and  C_12 
REMARK   11  A    between atoms: C_12  and  C_13 
REMARK   12  A    between atoms: C_13  and  C_14 
REMARK   13  A    between atoms: C_14  and  C_15 
REMARK   14  A    between atoms: C_15  and  C_16 
REMARK   15  A    between atoms: C_16  and  C_17 
REMARK   16  A    between atoms: C_17  and  C_18 
REMARK   17  A    between atoms: C_18  and  O_19 
REMARK   18  A    between atoms: C_22  and  C_23 
REMARK   19  A    between atoms: C_23  and  C_24 
REMARK   20  A    between atoms: C_24  and  C_25 
REMARK   21  A    between atoms: C_25  and  C_26 
REMARK   22  A    between atoms: C_26  and  C_27 
REMARK   23  A    between atoms: C_27  and  C_28 
REMARK   24  A    between atoms: C_28  and  C_29 
REMARK   25  A    between atoms: C_29  and  C_30 
REMARK   26  A    between atoms: C_30  and  C_31 
REMARK   27  A    between atoms: C_31  and  C_32 
REMARK   28  A    between atoms: C_32  and  C_33 
REMARK   29  A    between atoms: C_33  and  C_34 
REMARK   30  A    between atoms: C_34  and  C_35 
REMARK   31  A    between atoms: C_35  and  C_36 
REMARK   32  A    between atoms: C_36  and  O_37 
ROOT
HETATM    1  C   UNL     2     -35.459  -2.216 -10.843  1.00  0.00     0.000 C 
ENDROOT
BRANCH   1   2
HETATM    2  C   UNL     2     -36.201  -1.066 -10.153  1.00  0.00     0.000 C 
BRANCH   2   3
HETATM    3  C   UNL     2     -36.648   0.051 -11.106  1.00  0.00     0.000 C 
BRANCH   3   4
HETATM    4  C   UNL     2     -36.387  -0.258 -12.583  1.00  0.00     0.000 C 
BRANCH   4   5
HETATM    5  C   UNL     2     -35.183   0.526 -13.120  1.00  0.00     0.000 C 
BRANCH   5   6
HETATM    6  C   UNL     2     -35.101   0.528 -14.648  1.00  0.00     0.000 C 
BRANCH   6   7
HETATM    7  C   UNL     2     -36.439   0.360 -15.369  1.00  0.00    -0.000 C 
BRANCH   7   8
HETATM    8  C   UNL     2     -36.437  -0.623 -16.540  1.00  0.00    -0.005 C 
HETATM    9  C   UNL     2     -35.257  -1.579 -16.524  1.00  0.00     0.005 C 
ENDBRANCH   7   8
ENDBRANCH   6   7
ENDBRANCH   5   6
ENDBRANCH   4   5
ENDBRANCH   3   4
ENDBRANCH   2   3
ENDBRANCH   1   2
BRANCH   1  10
HETATM   10  C   UNL     2     -33.945  -2.165 -10.583  1.00  0.00     0.000 C 
BRANCH  10  11
HETATM   11  C   UNL     2     -33.214  -3.322 -11.280  1.00  0.00     0.000 C 
BRANCH  11  12
HETATM   12  C   UNL     2     -34.055  -3.977 -12.384  1.00  0.00     0.000 C 
BRANCH  12  13
HETATM   13  C   UNL     2     -34.573  -5.352 -11.950  1.00  0.00     0.000 C 
BRANCH  13  14
HETATM   14  C   UNL     2     -33.968  -5.821 -10.621  1.00  0.00     0.002 C 
BRANCH  14  15
HETATM   15  C   UNL     2     -34.871  -6.842  -9.919  1.00  0.00     0.026 C 
BRANCH  15  16
HETATM   16  C   UNL     2     -34.449  -8.279 -10.204  1.00  0.00     0.164 C 
BRANCH  16  17
HETATM   17  O   UNL     2     -34.140  -8.941  -8.984  1.00  0.00    -0.401 OA
HETATM   18  H   UNL     2     -33.671  -9.764  -9.206  1.00  0.00     0.209 HD
ENDBRANCH  16  17
ENDBRANCH  15  16
ENDBRANCH  14  15
ENDBRANCH  13  14
ENDBRANCH  12  13
ENDBRANCH  11  12
ENDBRANCH  10  11
ENDBRANCH   1  10
TORSDOF 32
BEGIN_RES ARG D 557
REMARK  4 active torsions:
REMARK  status: ('A' for Active; 'I' for Inactive)
REMARK    1  A    between atoms: CA   and  CB  
REMARK    2  A    between atoms: CB   and  CG  
REMARK    3  A    between atoms: CG   and  CD  
REMARK    4  A    between atoms: CD   and  NE  
REMARK       I    between atoms: NE   and  CZ  
REMARK       I    between atoms: CZ   and  NH1 
REMARK       I    between atoms: CZ   and  NH2 
ROOT
ATOM      1  CA  ARG D 557     -26.217   2.705 -17.014  1.00 35.49     0.159 C 
ENDROOT
BRANCH   1   2
ATOM      2  CB  ARG D 557     -26.789   1.319 -17.183  1.00 35.49     0.034 C 
BRANCH   2   3
ATOM      3  CG  ARG D 557     -25.861   0.195 -17.006  1.00 35.49     0.027 C 
BRANCH   3   4
ATOM      4  CD  ARG D 557     -26.254  -0.690 -15.886  1.00 35.49     0.116 C 
BRANCH   4   5
ATOM      5  NE  ARG D 557     -25.165  -0.928 -14.975  1.00 35.49    -0.212 N 
ATOM      6  CZ  ARG D 557     -24.966  -2.029 -14.287  1.00 35.49     0.666 C 
ATOM      7  NH1 ARG D 557     -25.784  -3.063 -14.351  1.00 35.49    -0.235 N 
ATOM      8  NH2 ARG D 557     -23.912  -2.078 -13.524  1.00 35.49    -0.235 N 
ATOM      9  HH  ARG D 557     -26.482  -3.053 -14.848  1.00 35.49     0.174 HD
ATOM     10  HH  ARG D 557     -25.602  -3.756 -13.881  1.00 35.49     0.174 HD
ATOM     11  HH  ARG D 557     -23.398  -1.398 -13.508  1.00 35.49     0.174 HD
ATOM     12  HH  ARG D 557     -23.749  -2.774 -13.068  1.00 35.49     0.174 HD
ATOM     13  HE  ARG D 557     -24.629  -0.286 -14.817  1.00 35.49     0.178 HD
ENDBRANCH   4   5
ENDBRANCH   3   4
ENDBRANCH   2   3
ENDBRANCH   1   2
END_RES ARG D 557
BEGIN_RES GLU D 570
REMARK  3 active torsions:
REMARK  status: ('A' for Active; 'I' for Inactive)
REMARK    5  A    between atoms: CA   and  CB  
REMARK    6  A    between atoms: CB   and  CG  
REMARK    7  A    between atoms: CG   and  CD  
ROOT
ATOM     14  CA  GLU D 570     -18.033  -6.348 -13.375  1.00 32.92     0.160 C 
ENDROOT
BRANCH  14  15
ATOM     15  CB  GLU D 570     -19.500  -6.345 -13.794  1.00 32.92     0.043 C 
BRANCH  15  16
ATOM     16  CG  GLU D 570     -20.448  -5.562 -12.960  1.00 32.92     0.100 C 
BRANCH  16  17
ATOM     17  CD  GLU D 570     -21.695  -5.155 -13.711  1.00 32.92     0.185 C 
ATOM     18  OE1 GLU D 570     -22.706  -4.817 -13.066  1.00 32.92    -0.647 OA
ATOM     19  OE2 GLU D 570     -21.666  -5.192 -14.956  1.00 32.92    -0.647 OA
ENDBRANCH  16  17
ENDBRANCH  15  16
ENDBRANCH  14  15
END_RES GLU D 570
ENDMDL
MODEL 4
REMARK VINA RESULT:      -5.9      2.036      2.538
REMARK  32 active torsions:
REMARK  status: ('A' for Active; 'I' for Inactive)
REMARK    1  A    between atoms: C_2  and  C_3 
REMARK    2  A    between atoms: C_3  and  C_4 
REMARK    3  A    between atoms: C_4  and  C_5 
REMARK    4  A    between atoms: C_5  and  C_6 
REMARK    5  A    between atoms: C_6  and  C_7 
REMARK    6  A    between atoms: C_7  and  C_8 
REMARK    7  A    between atoms: C_8  and  C_9 
REMARK    8  A    between atoms: C_9  and  C_10 
REMARK    9  A    between atoms: C_10  and  C_11 
REMARK   10  A    between atoms: C_11  and  C_12 
REMARK   11  A    between atoms: C_12  and  C_13 
REMARK   12  A    between atoms: C_13  and  C_14 
REMARK   13  A    between atoms: C_14  and  C_15 
REMARK   14  A    between atoms: C_15  and  C_16 
REMARK   15  A    between atoms: C_16  and  C_17 
REMARK   16  A    between atoms: C_17  and  C_18 
REMARK   17  A    between atoms: C_18  and  O_19 
REMARK   18  A    between atoms: C_22  and  C_23 
REMARK   19  A    between atoms: C_23  and  C_24 
REMARK   20  A    between atoms: C_24  and  C_25 
REMARK   21  A    between atoms: C_25  and  C_26 
REMARK   22  A    between atoms: C_26  and  C_27 
REMARK   23  A    between atoms: C_27  and  C_28 
REMARK   24  A    between atoms: C_28  and  C_29 
REMARK   25  A    between atoms: C_29  and  C_30 
REMARK   26  A    between atoms: C_30  and  C_31 
REMARK   27  A    between atoms: C_31  and  C_32 
REMARK   28  A    between atoms: C_32  and  C_33 
REMARK   29  A    between atoms: C_33  and  C_34 
REMARK   30  A    between atoms: C_34  and  C_35 
REMARK   31  A    between atoms: C_35  and  C_36 
REMARK   32  A    between atoms: C_36  and  O_37 
ROOT
HETATM    1  C   UNL     2     -21.325  -6.951  -5.295  1.00  0.00     0.000 C 
ENDROOT
BRANCH   1   2
HETATM    2  C   UNL     2     -21.495  -6.112  -4.022  1.00  0.00     0.000 C 
BRANCH   2   3
HETATM    3  C   UNL     2     -21.330  -6.909  -2.720  1.00  0.00     0.000 C 
BRANCH   3   4
HETATM    4  C   UNL     2     -22.262  -6.452  -1.595  1.00  0.00     0.000 C 
BRANCH   4   5
HETATM    5  C   UNL     2     -22.319  -7.479  -0.457  1.00  0.00     0.000 C 
BRANCH   5   6
HETATM    6  C   UNL     2     -22.251  -8.926  -0.951  1.00  0.00     0.000 C 
BRANCH   6   7
HETATM    7  C   UNL     2     -22.557  -9.986   0.108  1.00  0.00    -0.000 C 
BRANCH   7   8
HETATM    8  C   UNL     2     -23.945 -10.622   0.020  1.00  0.00    -0.005 C 
HETATM    9  C   UNL     2     -24.106 -11.559  -1.164  1.00  0.00     0.005 C 
ENDBRANCH   7   8
ENDBRANCH   6   7
ENDBRANCH   5   6
ENDBRANCH   4   5
ENDBRANCH   3   4
ENDBRANCH   2   3
ENDBRANCH   1   2
BRANCH   1  10
HETATM   10  C   UNL     2     -20.256  -6.367  -6.232  1.00  0.00     0.000 C 
BRANCH  10  11
HETATM   11  C   UNL     2     -20.108  -4.850  -6.043  1.00  0.00     0.000 C 
BRANCH  11  12
HETATM   12  C   UNL     2     -20.284  -4.068  -7.352  1.00  0.00     0.000 C 
BRANCH  12  13
HETATM   13  C   UNL     2     -21.755  -3.722  -7.603  1.00  0.00     0.000 C 
BRANCH  13  14
HETATM   14  C   UNL     2     -22.229  -4.128  -9.004  1.00  0.00     0.002 C 
BRANCH  14  15
HETATM   15  C   UNL     2     -23.750  -4.308  -9.055  1.00  0.00     0.026 C 
BRANCH  15  16
HETATM   16  C   UNL     2     -24.425  -3.274  -9.948  1.00  0.00     0.164 C 
BRANCH  16  17
HETATM   17  O   UNL     2     -25.832  -3.307  -9.746  1.00  0.00    -0.401 OA
HETATM   18  H   UNL     2     -26.052  -2.623  -9.091  1.00  0.00     0.209 HD
ENDBRANCH  16  17
ENDBRANCH  15  16
ENDBRANCH  14  15
ENDBRANCH  13  14
ENDBRANCH  12  13
ENDBRANCH  11  12
ENDBRANCH  10  11
ENDBRANCH   1  10
TORSDOF 32
BEGIN_RES ARG D 557
REMARK  4 active torsions:
REMARK  status: ('A' for Active; 'I' for Inactive)
REMARK    1  A    between atoms: CA   and  CB  
REMARK    2  A    between atoms: CB   and  CG  
REMARK    3  A    between atoms: CG   and  CD  
REMARK    4  A    between atoms: CD   and  NE  
REMARK       I    between atoms: NE   and  CZ  
REMARK       I    between atoms: CZ   and  NH1 
REMARK       I    between atoms: CZ   and  NH2 
ROOT
ATOM      1  CA  ARG D 557     -26.217   2.705 -17.014  1.00 35.49     0.159 C 
ENDROOT
BRANCH   1   2
ATOM      2  CB  ARG D 557     -26.789   1.319 -17.183  1.00 35.49     0.034 C 
BRANCH   2   3
ATOM      3  CG  ARG D 557     -28.157   1.105 -16.694  1.00 35.49     0.027 C 
BRANCH   3   4
ATOM      4  CD  ARG D 557     -28.785  -0.099 -17.285  1.00 35.49     0.116 C 
BRANCH   4   5
ATOM      5  NE  ARG D 557     -28.150  -1.314 -16.844  1.00 35.49    -0.212 N 
ATOM      6  CZ  ARG D 557     -28.617  -2.530 -17.016  1.00 35.49     0.666 C 
ATOM      7  NH1 ARG D 557     -29.766  -2.770 -17.621  1.00 35.49    -0.235 N 
ATOM      8  NH2 ARG D 557     -27.898  -3.518 -16.569  1.00 35.49    -0.235 N 
ATOM      9  HH  ARG D 557     -30.255  -2.135 -17.925  1.00 35.49     0.174 HD
ATOM     10  HH  ARG D 557     -30.019  -3.584 -17.706  1.00 35.49     0.174 HD
ATOM     11  HH  ARG D 557     -27.157  -3.333 -16.189  1.00 35.49     0.174 HD
ATOM     12  HH  ARG D 557     -28.164  -4.317 -16.664  1.00 35.49     0.174 HD
ATOM     13  HE  ARG D 557     -27.440  -1.248 -16.381  1.00 35.49     0.178 HD
ENDBRANCH   4   5
ENDBRANCH   3   4
ENDBRANCH   2   3
ENDBRANCH   1   2
END_RES ARG D 557
BEGIN_RES GLU D 570
REMARK  3 active torsions:
REMARK  status: ('A' for Active; 'I' for Inactive)
REMARK    5  A    between atoms: CA   and  CB  
REMARK    6  A    between atoms: CB   and  CG  
REMARK    7  A    between atoms: CG   and  CD  
ROOT
ATOM     14  CA  GLU D 570     -18.033  -6.348 -13.375  1.00 32.92     0.160 C 
ENDROOT
BRANCH  14  15
ATOM     15  CB  GLU D 570     -19.500  -6.345 -13.794  1.00 32.92     0.043 C 
BRANCH  15  16
ATOM     16  CG  GLU D 570     -20.445  -5.547 -12.971  1.00 32.92     0.100 C 
BRANCH  16  17
ATOM     17  CD  GLU D 570     -21.746  -5.256 -13.683  1.00 32.92     0.185 C 
ATOM     18  OE1 GLU D 570     -22.173  -6.073 -14.521  1.00 32.92    -0.647 OA
ATOM     19  OE2 GLU D 570     -22.334  -4.190 -13.413  1.00 32.92    -0.647 OA
ENDBRANCH  16  17
ENDBRANCH  15  16
ENDBRANCH  14  15
END_RES GLU D 570
ENDMDL
MODEL 5
REMARK VINA RESULT:      -5.9      1.844      2.404
REMARK  32 active torsions:
REMARK  status: ('A' for Active; 'I' for Inactive)
REMARK    1  A    between atoms: C_2  and  C_3 
REMARK    2  A    between atoms: C_3  and  C_4 
REMARK    3  A    between atoms: C_4  and  C_5 
REMARK    4  A    between atoms: C_5  and  C_6 
REMARK    5  A    between atoms: C_6  and  C_7 
REMARK    6  A    between atoms: C_7  and  C_8 
REMARK    7  A    between atoms: C_8  and  C_9 
REMARK    8  A    between atoms: C_9  and  C_10 
REMARK    9  A    between atoms: C_10  and  C_11 
REMARK   10  A    between atoms: C_11  and  C_12 
REMARK   11  A    between atoms: C_12  and  C_13 
REMARK   12  A    between atoms: C_13  and  C_14 
REMARK   13  A    between atoms: C_14  and  C_15 
REMARK   14  A    between atoms: C_15  and  C_16 
REMARK   15  A    between atoms: C_16  and  C_17 
REMARK   16  A    between atoms: C_17  and  C_18 
REMARK   17  A    between atoms: C_18  and  O_19 
REMARK   18  A    between atoms: C_22  and  C_23 
REMARK   19  A    between atoms: C_23  and  C_24 
REMARK   20  A    between atoms: C_24  and  C_25 
REMARK   21  A    between atoms: C_25  and  C_26 
REMARK   22  A    between atoms: C_26  and  C_27 
REMARK   23  A    between atoms: C_27  and  C_28 
REMARK   24  A    between atoms: C_28  and  C_29 
REMARK   25  A    between atoms: C_29  and  C_30 
REMARK   26  A    between atoms: C_30  and  C_31 
REMARK   27  A    between atoms: C_31  and  C_32 
REMARK   28  A    between atoms: C_32  and  C_33 
REMARK   29  A    between atoms: C_33  and  C_34 
REMARK   30  A    between atoms: C_34  and  C_35 
REMARK   31  A    between atoms: C_35  and  C_36 
REMARK   32  A    between atoms: C_36  and  O_37 
ROOT
HETATM    1  C   UNL     2     -20.047  -4.864  -5.762  1.00  0.00     0.000 C 
ENDROOT
BRANCH   1   2
HETATM    2  C   UNL     2     -21.279  -5.689  -5.371  1.00  0.00     0.000 C 
BRANCH   2   3
HETATM    3  C   UNL     2     -20.962  -7.140  -4.980  1.00  0.00     0.000 C 
BRANCH   3   4
HETATM    4  C   UNL     2     -21.116  -7.422  -3.483  1.00  0.00     0.000 C 
BRANCH   4   5
HETATM    5  C   UNL     2     -21.532  -6.164  -2.711  1.00  0.00     0.000 C 
BRANCH   5   6
HETATM    6  C   UNL     2     -22.325  -6.474  -1.439  1.00  0.00     0.000 C 
BRANCH   6   7
HETATM    7  C   UNL     2     -22.127  -7.884  -0.881  1.00  0.00    -0.000 C 
BRANCH   7   8
HETATM    8  C   UNL     2     -22.347  -8.031   0.625  1.00  0.00    -0.005 C 
HETATM    9  C   UNL     2     -21.157  -8.631   1.353  1.00  0.00     0.005 C 
ENDBRANCH   7   8
ENDBRANCH   6   7
ENDBRANCH   5   6
ENDBRANCH   4   5
ENDBRANCH   3   4
ENDBRANCH   2   3
ENDBRANCH   1   2
BRANCH   1  10
HETATM   10  C   UNL     2     -19.578  -5.168  -7.194  1.00  0.00     0.000 C 
BRANCH  10  11
HETATM   11  C   UNL     2     -19.882  -4.002  -8.146  1.00  0.00     0.000 C 
BRANCH  11  12
HETATM   12  C   UNL     2     -20.971  -4.340  -9.172  1.00  0.00     0.000 C 
BRANCH  12  13
HETATM   13  C   UNL     2     -20.407  -4.371 -10.596  1.00  0.00     0.000 C 
BRANCH  13  14
HETATM   14  C   UNL     2     -20.929  -3.220 -11.465  1.00  0.00     0.002 C 
BRANCH  14  15
HETATM   15  C   UNL     2     -22.461  -3.159 -11.461  1.00  0.00     0.026 C 
BRANCH  15  16
HETATM   16  C   UNL     2     -23.065  -3.721 -12.742  1.00  0.00     0.164 C 
BRANCH  16  17
HETATM   17  O   UNL     2     -22.060  -3.823 -13.744  1.00  0.00    -0.401 OA
HETATM   18  H   UNL     2     -22.404  -4.397 -14.449  1.00  0.00     0.209 HD
ENDBRANCH  16  17
ENDBRANCH  15  16
ENDBRANCH  14  15
ENDBRANCH  13  14
ENDBRANCH  12  13
ENDBRANCH  11  12
ENDBRANCH  10  11
ENDBRANCH   1  10
TORSDOF 32
BEGIN_RES ARG D 557
REMARK  4 active torsions:
REMARK  status: ('A' for Active; 'I' for Inactive)
REMARK    1  A    between atoms: CA   and  CB  
REMARK    2  A    between atoms: CB   and  CG  
REMARK    3  A    between atoms: CG   and  CD  
REMARK    4  A    between atoms: CD   and  NE  
REMARK       I    between atoms: NE   and  CZ  
REMARK       I    between atoms: CZ   and  NH1 
REMARK       I    between atoms: CZ   and  NH2 
ROOT
ATOM      1  CA  ARG D 557     -26.217   2.705 -17.014  1.00 35.49     0.159 C 
ENDROOT
BRANCH   1   2
ATOM      2  CB  ARG D 557     -26.789   1.319 -17.183  1.00 35.49     0.034 C 
BRANCH   2   3
ATOM      3  CG  ARG D 557     -28.239   1.176 -17.002  1.00 35.49     0.027 C 
BRANCH   3   4
ATOM      4  CD  ARG D 557     -28.631  -0.211 -16.661  1.00 35.49     0.116 C 
BRANCH   4   5
ATOM      5  NE  ARG D 557     -27.591  -0.910 -15.953  1.00 35.49    -0.212 N 
ATOM      6  CZ  ARG D 557     -27.352  -2.201 -16.017  1.00 35.49     0.666 C 
ATOM      7  NH1 ARG D 557     -28.078  -3.021 -16.754  1.00 35.49    -0.235 N 
ATOM      8  NH2 ARG D 557     -26.353  -2.661 -15.323  1.00 35.49    -0.235 N 
ATOM      9  HH  ARG D 557     -28.740  -2.739 -17.221  1.00 35.49     0.174 HD
ATOM     10  HH  ARG D 557     -27.874  -3.853 -16.759  1.00 35.49     0.174 HD
ATOM     11  HH  ARG D 557     -25.897  -2.107 -14.862  1.00 35.49     0.174 HD
ATOM     12  HH  ARG D 557     -26.165  -3.488 -15.341  1.00 35.49     0.174 HD
ATOM     13  HE  ARG D 557     -27.120  -0.470 -15.398  1.00 35.49     0.178 HD
ENDBRANCH   4   5
ENDBRANCH   3   4
ENDBRANCH   2   3
ENDBRANCH   1   2
END_RES ARG D 557
BEGIN_RES GLU D 570
REMARK  3 active torsions:
REMARK  status: ('A' for Active; 'I' for Inactive)
REMARK    5  A    between atoms: CA   and  CB  
REMARK    6  A    between atoms: CB   and  CG  
REMARK    7  A    between atoms: CG   and  CD  
ROOT
ATOM     14  CA  GLU D 570     -18.033  -6.348 -13.375  1.00 32.92     0.160 C 
ENDROOT
BRANCH  14  15
ATOM     15  CB  GLU D 570     -19.500  -6.345 -13.794  1.00 32.92     0.043 C 
BRANCH  15  16
ATOM     16  CG  GLU D 570     -20.043  -7.591 -14.395  1.00 32.92     0.100 C 
BRANCH  16  17
ATOM     17  CD  GLU D 570     -21.229  -7.341 -15.298  1.00 32.92     0.185 C 
ATOM     18  OE1 GLU D 570     -22.119  -6.554 -14.923  1.00 32.92    -0.647 OA
ATOM     19  OE2 GLU D 570     -21.276  -7.952 -16.383  1.00 32.92    -0.647 OA
ENDBRANCH  16  17
ENDBRANCH  15  16
ENDBRANCH  14  15
END_RES GLU D 570
ENDMDL
MODEL 6
REMARK VINA RESULT:      -5.8      8.175     13.381
REMARK  32 active torsions:
REMARK  status: ('A' for Active; 'I' for Inactive)
REMARK    1  A    between atoms: C_2  and  C_3 
REMARK    2  A    between atoms: C_3  and  C_4 
REMARK    3  A    between atoms: C_4  and  C_5 
REMARK    4  A    between atoms: C_5  and  C_6 
REMARK    5  A    between atoms: C_6  and  C_7 
REMARK    6  A    between atoms: C_7  and  C_8 
REMARK    7  A    between atoms: C_8  and  C_9 
REMARK    8  A    between atoms: C_9  and  C_10 
REMARK    9  A    between atoms: C_10  and  C_11 
REMARK   10  A    between atoms: C_11  and  C_12 
REMARK   11  A    between atoms: C_12  and  C_13 
REMARK   12  A    between atoms: C_13  and  C_14 
REMARK   13  A    between atoms: C_14  and  C_15 
REMARK   14  A    between atoms: C_15  and  C_16 
REMARK   15  A    between atoms: C_16  and  C_17 
REMARK   16  A    between atoms: C_17  and  C_18 
REMARK   17  A    between atoms: C_18  and  O_19 
REMARK   18  A    between atoms: C_22  and  C_23 
REMARK   19  A    between atoms: C_23  and  C_24 
REMARK   20  A    between atoms: C_24  and  C_25 
REMARK   21  A    between atoms: C_25  and  C_26 
REMARK   22  A    between atoms: C_26  and  C_27 
REMARK   23  A    between atoms: C_27  and  C_28 
REMARK   24  A    between atoms: C_28  and  C_29 
REMARK   25  A    between atoms: C_29  and  C_30 
REMARK   26  A    between atoms: C_30  and  C_31 
REMARK   27  A    between atoms: C_31  and  C_32 
REMARK   28  A    between atoms: C_32  and  C_33 
REMARK   29  A    between atoms: C_33  and  C_34 
REMARK   30  A    between atoms: C_34  and  C_35 
REMARK   31  A    between atoms: C_35  and  C_36 
REMARK   32  A    between atoms: C_36  and  O_37 
ROOT
HETATM    1  C   UNL     2     -34.476  -2.215 -10.017  1.00  0.00     0.000 C 
ENDROOT
BRANCH   1   2
HETATM    2  C   UNL     2     -35.874  -2.097 -10.637  1.00  0.00     0.000 C 
BRANCH   2   3
HETATM    3  C   UNL     2     -36.270  -0.662 -11.016  1.00  0.00     0.000 C 
BRANCH   3   4
HETATM    4  C   UNL     2     -36.237  -0.392 -12.523  1.00  0.00     0.000 C 
BRANCH   4   5
HETATM    5  C   UNL     2     -35.159   0.635 -12.888  1.00  0.00     0.000 C 
BRANCH   5   6
HETATM    6  C   UNL     2     -34.740   0.569 -14.358  1.00  0.00     0.000 C 
BRANCH   6   7
HETATM    7  C   UNL     2     -35.837   0.929 -15.361  1.00  0.00    -0.000 C 
BRANCH   7   8
HETATM    8  C   UNL     2     -36.493  -0.255 -16.072  1.00  0.00    -0.005 C 
HETATM    9  C   UNL     2     -35.499  -1.295 -16.557  1.00  0.00     0.005 C 
ENDBRANCH   7   8
ENDBRANCH   6   7
ENDBRANCH   5   6
ENDBRANCH   4   5
ENDBRANCH   3   4
ENDBRANCH   2   3
ENDBRANCH   1   2
BRANCH   1  10
HETATM   10  C   UNL     2     -33.365  -2.103 -11.074  1.00  0.00     0.000 C 
BRANCH  10  11
HETATM   11  C   UNL     2     -32.959  -3.482 -11.614  1.00  0.00     0.000 C 
BRANCH  11  12
HETATM   12  C   UNL     2     -33.984  -4.060 -12.598  1.00  0.00     0.000 C 
BRANCH  12  13
HETATM   13  C   UNL     2     -34.591  -5.365 -12.072  1.00  0.00     0.000 C 
BRANCH  13  14
HETATM   14  C   UNL     2     -33.768  -5.985 -10.936  1.00  0.00     0.002 C 
BRANCH  14  15
HETATM   15  C   UNL     2     -34.663  -6.703  -9.918  1.00  0.00     0.026 C 
BRANCH  15  16
HETATM   16  C   UNL     2     -34.646  -8.216 -10.100  1.00  0.00     0.164 C 
BRANCH  16  17
HETATM   17  O   UNL     2     -33.315  -8.658 -10.334  1.00  0.00    -0.401 OA
HETATM   18  H   UNL     2     -32.813  -7.907 -10.693  1.00  0.00     0.209 HD
ENDBRANCH  16  17
ENDBRANCH  15  16
ENDBRANCH  14  15
ENDBRANCH  13  14
ENDBRANCH  12  13
ENDBRANCH  11  12
ENDBRANCH  10  11
ENDBRANCH   1  10
TORSDOF 32
BEGIN_RES ARG D 557
REMARK  4 active torsions:
REMARK  status: ('A' for Active; 'I' for Inactive)
REMARK    1  A    between atoms: CA   and  CB  
REMARK    2  A    between atoms: CB   and  CG  
REMARK    3  A    between atoms: CG   and  CD  
REMARK    4  A    between atoms: CD   and  NE  
REMARK       I    between atoms: NE   and  CZ  
REMARK       I    between atoms: CZ   and  NH1 
REMARK       I    between atoms: CZ   and  NH2 
ROOT
ATOM      1  CA  ARG D 557     -26.217   2.705 -17.014  1.00 35.49     0.159 C 
ENDROOT
BRANCH   1   2
ATOM      2  CB  ARG D 557     -26.789   1.319 -17.183  1.00 35.49     0.034 C 
BRANCH   2   3
ATOM      3  CG  ARG D 557     -28.228   1.164 -16.940  1.00 35.49     0.027 C 
BRANCH   3   4
ATOM      4  CD  ARG D 557     -28.599  -0.232 -16.616  1.00 35.49     0.116 C 
BRANCH   4   5
ATOM      5  NE  ARG D 557     -27.564  -0.911 -15.881  1.00 35.49    -0.212 N 
ATOM      6  CZ  ARG D 557     -27.290  -2.195 -15.949  1.00 35.49     0.666 C 
ATOM      7  NH1 ARG D 557     -27.970  -3.026 -16.717  1.00 35.49    -0.235 N 
ATOM      8  NH2 ARG D 557     -26.301  -2.636 -15.227  1.00 35.49    -0.235 N 
ATOM      9  HH  ARG D 557     -28.623  -2.757 -17.202  1.00 35.49     0.174 HD
ATOM     10  HH  ARG D 557     -27.743  -3.852 -16.723  1.00 35.49     0.174 HD
ATOM     11  HH  ARG D 557     -25.875  -2.075 -14.746  1.00 35.49     0.174 HD
ATOM     12  HH  ARG D 557     -26.091  -3.457 -15.248  1.00 35.49     0.174 HD
ATOM     13  HE  ARG D 557     -27.124  -0.465 -15.307  1.00 35.49     0.178 HD
ENDBRANCH   4   5
ENDBRANCH   3   4
ENDBRANCH   2   3
ENDBRANCH   1   2
END_RES ARG D 557
BEGIN_RES GLU D 570
REMARK  3 active torsions:
REMARK  status: ('A' for Active; 'I' for Inactive)
REMARK    5  A    between atoms: CA   and  CB  
REMARK    6  A    between atoms: CB   and  CG  
REMARK    7  A    between atoms: CG   and  CD  
ROOT
ATOM     14  CA  GLU D 570     -18.033  -6.348 -13.375  1.00 32.92     0.160 C 
ENDROOT
BRANCH  14  15
ATOM     15  CB  GLU D 570     -19.500  -6.345 -13.794  1.00 32.92     0.043 C 
BRANCH  15  16
ATOM     16  CG  GLU D 570     -20.072  -7.622 -14.294  1.00 32.92     0.100 C 
BRANCH  16  17
ATOM     17  CD  GLU D 570     -20.764  -7.475 -15.629  1.00 32.92     0.185 C 
ATOM     18  OE1 GLU D 570     -21.516  -8.386 -16.025  1.00 32.92    -0.647 OA
ATOM     19  OE2 GLU D 570     -20.539  -6.444 -16.294  1.00 32.92    -0.647 OA
ENDBRANCH  16  17
ENDBRANCH  15  16
ENDBRANCH  14  15
END_RES GLU D 570
ENDMDL
MODEL 7
REMARK VINA RESULT:      -5.6      3.050      7.472
REMARK  32 active torsions:
REMARK  status: ('A' for Active; 'I' for Inactive)
REMARK    1  A    between atoms: C_2  and  C_3 
REMARK    2  A    between atoms: C_3  and  C_4 
REMARK    3  A    between atoms: C_4  and  C_5 
REMARK    4  A    between atoms: C_5  and  C_6 
REMARK    5  A    between atoms: C_6  and  C_7 
REMARK    6  A    between atoms: C_7  and  C_8 
REMARK    7  A    between atoms: C_8  and  C_9 
REMARK    8  A    between atoms: C_9  and  C_10 
REMARK    9  A    between atoms: C_10  and  C_11 
REMARK   10  A    between atoms: C_11  and  C_12 
REMARK   11  A    between atoms: C_12  and  C_13 
REMARK   12  A    between atoms: C_13  and  C_14 
REMARK   13  A    between atoms: C_14  and  C_15 
REMARK   14  A    between atoms: C_15  and  C_16 
REMARK   15  A    between atoms: C_16  and  C_17 
REMARK   16  A    between atoms: C_17  and  C_18 
REMARK   17  A    between atoms: C_18  and  O_19 
REMARK   18  A    between atoms: C_22  and  C_23 
REMARK   19  A    between atoms: C_23  and  C_24 
REMARK   20  A    between atoms: C_24  and  C_25 
REMARK   21  A    between atoms: C_25  and  C_26 
REMARK   22  A    between atoms: C_26  and  C_27 
REMARK   23  A    between atoms: C_27  and  C_28 
REMARK   24  A    between atoms: C_28  and  C_29 
REMARK   25  A    between atoms: C_29  and  C_30 
REMARK   26  A    between atoms: C_30  and  C_31 
REMARK   27  A    between atoms: C_31  and  C_32 
REMARK   28  A    between atoms: C_32  and  C_33 
REMARK   29  A    between atoms: C_33  and  C_34 
REMARK   30  A    between atoms: C_34  and  C_35 
REMARK   31  A    between atoms: C_35  and  C_36 
REMARK   32  A    between atoms: C_36  and  O_37 
ROOT
HETATM    1  C   UNL     2     -22.592  -4.757  -9.380  1.00  0.00     0.000 C 
ENDROOT
BRANCH   1   2
HETATM    2  C   UNL     2     -23.845  -4.753 -10.264  1.00  0.00     0.000 C 
BRANCH   2   3
HETATM    3  C   UNL     2     -24.167  -3.386 -10.886  1.00  0.00     0.000 C 
BRANCH   3   4
HETATM    4  C   UNL     2     -22.964  -2.714 -11.554  1.00  0.00     0.000 C 
BRANCH   4   5
HETATM    5  C   UNL     2     -23.273  -2.313 -13.001  1.00  0.00     0.000 C 
BRANCH   5   6
HETATM    6  C   UNL     2     -24.685  -2.703 -13.444  1.00  0.00     0.000 C 
BRANCH   6   7
HETATM    7  C   UNL     2     -24.755  -3.875 -14.424  1.00  0.00    -0.000 C 
BRANCH   7   8
HETATM    8  C   UNL     2     -23.473  -4.698 -14.558  1.00  0.00    -0.005 C 
HETATM    9  C   UNL     2     -23.523  -6.020 -13.814  1.00  0.00     0.005 C 
ENDBRANCH   7   8
ENDBRANCH   6   7
ENDBRANCH   5   6
ENDBRANCH   4   5
ENDBRANCH   3   4
ENDBRANCH   2   3
ENDBRANCH   1   2
BRANCH   1  10
HETATM   10  C   UNL     2     -22.840  -4.075  -8.025  1.00  0.00     0.000 C 
BRANCH  10  11
HETATM   11  C   UNL     2     -21.538  -3.519  -7.427  1.00  0.00     0.000 C 
BRANCH  11  12
HETATM   12  C   UNL     2     -20.285  -4.058  -8.129  1.00  0.00     0.000 C 
BRANCH  12  13
HETATM   13  C   UNL     2     -19.432  -4.903  -7.177  1.00  0.00     0.000 C 
BRANCH  13  14
HETATM   14  C   UNL     2     -20.100  -5.117  -5.813  1.00  0.00     0.002 C 
BRANCH  14  15
HETATM   15  C   UNL     2     -20.405  -6.598  -5.560  1.00  0.00     0.026 C 
BRANCH  15  16
HETATM   16  C   UNL     2     -21.602  -6.792  -4.637  1.00  0.00     0.164 C 
BRANCH  16  17
HETATM   17  O   UNL     2     -22.711  -6.047  -5.124  1.00  0.00    -0.401 OA
HETATM   18  H   UNL     2     -22.420  -5.569  -5.919  1.00  0.00     0.209 HD
ENDBRANCH  16  17
ENDBRANCH  15  16
ENDBRANCH  14  15
ENDBRANCH  13  14
ENDBRANCH  12  13
ENDBRANCH  11  12
ENDBRANCH  10  11
ENDBRANCH   1  10
TORSDOF 32
BEGIN_RES ARG D 557
REMARK  4 active torsions:
REMARK  status: ('A' for Active; 'I' for Inactive)
REMARK    1  A    between atoms: CA   and  CB  
REMARK    2  A    between atoms: CB   and  CG  
REMARK    3  A    between atoms: CG   and  CD  
REMARK    4  A    between atoms: CD   and  NE  
REMARK       I    between atoms: NE   and  CZ  
REMARK       I    between atoms: CZ   and  NH1 
REMARK       I    between atoms: CZ   and  NH2 
ROOT
ATOM      1  CA  ARG D 557     -26.217   2.705 -17.014  1.00 35.49     0.159 C 
ENDROOT
BRANCH   1   2
ATOM      2  CB  ARG D 557     -26.789   1.319 -17.183  1.00 35.49     0.034 C 
BRANCH   2   3
ATOM      3  CG  ARG D 557     -28.230   1.227 -17.447  1.00 35.49     0.027 C 
BRANCH   3   4
ATOM      4  CD  ARG D 557     -28.919   0.313 -16.507  1.00 35.49     0.116 C 
BRANCH   4   5
ATOM      5  NE  ARG D 557     -29.290  -0.929 -17.132  1.00 35.49    -0.212 N 
ATOM      6  CZ  ARG D 557     -28.641  -2.067 -17.025  1.00 35.49     0.666 C 
ATOM      7  NH1 ARG D 557     -27.533  -2.188 -16.318  1.00 35.49    -0.235 N 
ATOM      8  NH2 ARG D 557     -29.134  -3.100 -17.645  1.00 35.49    -0.235 N 
ATOM      9  HH  ARG D 557     -27.191  -1.522 -15.900  1.00 35.49     0.174 HD
ATOM     10  HH  ARG D 557     -27.154  -2.956 -16.282  1.00 35.49     0.174 HD
ATOM     11  HH  ARG D 557     -29.855  -2.994 -18.088  1.00 35.49     0.174 HD
ATOM     12  HH  ARG D 557     -28.745  -3.852 -17.596  1.00 35.49     0.174 HD
ATOM     13  HE  ARG D 557     -29.952  -0.926 -17.666  1.00 35.49     0.178 HD
ENDBRANCH   4   5
ENDBRANCH   3   4
ENDBRANCH   2   3
ENDBRANCH   1   2
END_RES ARG D 557
BEGIN_RES GLU D 570
REMARK  3 active torsions:
REMARK  status: ('A' for Active; 'I' for Inactive)
REMARK    5  A    between atoms: CA   and  CB  
REMARK    6  A    between atoms: CB   and  CG  
REMARK    7  A    between atoms: CG   and  CD  
ROOT
ATOM     14  CA  GLU D 570     -18.033  -6.348 -13.375  1.00 32.92     0.160 C 
ENDROOT
BRANCH  14  15
ATOM     15  CB  GLU D 570     -19.500  -6.345 -13.794  1.00 32.92     0.043 C 
BRANCH  15  16
ATOM     16  CG  GLU D 570     -19.800  -6.149 -15.236  1.00 32.92     0.100 C 
BRANCH  16  17
ATOM     17  CD  GLU D 570     -20.680  -7.236 -15.808  1.00 32.92     0.185 C 
ATOM     18  OE1 GLU D 570     -21.477  -6.951 -16.723  1.00 32.92    -0.647 OA
ATOM     19  OE2 GLU D 570     -20.583  -8.381 -15.325  1.00 32.92    -0.647 OA
ENDBRANCH  16  17
ENDBRANCH  15  16
ENDBRANCH  14  15
END_RES GLU D 570
ENDMDL
MODEL 8
REMARK VINA RESULT:      -5.6      2.663      6.651
REMARK  32 active torsions:
REMARK  status: ('A' for Active; 'I' for Inactive)
REMARK    1  A    between atoms: C_2  and  C_3 
REMARK    2  A    between atoms: C_3  and  C_4 
REMARK    3  A    between atoms: C_4  and  C_5 
REMARK    4  A    between atoms: C_5  and  C_6 
REMARK    5  A    between atoms: C_6  and  C_7 
REMARK    6  A    between atoms: C_7  and  C_8 
REMARK    7  A    between atoms: C_8  and  C_9 
REMARK    8  A    between atoms: C_9  and  C_10 
REMARK    9  A    between atoms: C_10  and  C_11 
REMARK   10  A    between atoms: C_11  and  C_12 
REMARK   11  A    between atoms: C_12  and  C_13 
REMARK   12  A    between atoms: C_13  and  C_14 
REMARK   13  A    between atoms: C_14  and  C_15 
REMARK   14  A    between atoms: C_15  and  C_16 
REMARK   15  A    between atoms: C_16  and  C_17 
REMARK   16  A    between atoms: C_17  and  C_18 
REMARK   17  A    between atoms: C_18  and  O_19 
REMARK   18  A    between atoms: C_22  and  C_23 
REMARK   19  A    between atoms: C_23  and  C_24 
REMARK   20  A    between atoms: C_24  and  C_25 
REMARK   21  A    between atoms: C_25  and  C_26 
REMARK   22  A    between atoms: C_26  and  C_27 
REMARK   23  A    between atoms: C_27  and  C_28 
REMARK   24  A    between atoms: C_28  and  C_29 
REMARK   25  A    between atoms: C_29  and  C_30 
REMARK   26  A    between atoms: C_30  and  C_31 
REMARK   27  A    between atoms: C_31  and  C_32 
REMARK   28  A    between atoms: C_32  and  C_33 
REMARK   29  A    between atoms: C_33  and  C_34 
REMARK   30  A    between atoms: C_34  and  C_35 
REMARK   31  A    between atoms: C_35  and  C_36 
REMARK   32  A    between atoms: C_36  and  O_37 
ROOT
HETATM    1  C   UNL     2     -20.522  -7.776  -4.552  1.00  0.00     0.000 C 
ENDROOT
BRANCH   1   2
HETATM    2  C   UNL     2     -20.973  -7.140  -5.872  1.00  0.00     0.000 C 
BRANCH   2   3
HETATM    3  C   UNL     2     -21.398  -5.670  -5.747  1.00  0.00     0.000 C 
BRANCH   3   4
HETATM    4  C   UNL     2     -20.221  -4.693  -5.674  1.00  0.00     0.000 C 
BRANCH   4   5
HETATM    5  C   UNL     2     -19.336  -4.782  -6.924  1.00  0.00     0.000 C 
BRANCH   5   6
HETATM    6  C   UNL     2     -19.821  -3.889  -8.067  1.00  0.00     0.000 C 
BRANCH   6   7
HETATM    7  C   UNL     2     -20.283  -4.634  -9.320  1.00  0.00    -0.000 C 
BRANCH   7   8
HETATM    8  C   UNL     2     -21.732  -4.381  -9.739  1.00  0.00    -0.005 C 
HETATM    9  C   UNL     2     -22.576  -3.751  -8.646  1.00  0.00     0.005 C 
ENDBRANCH   7   8
ENDBRANCH   6   7
ENDBRANCH   5   6
ENDBRANCH   4   5
ENDBRANCH   3   4
ENDBRANCH   2   3
ENDBRANCH   1   2
BRANCH   1  10
HETATM   10  C   UNL     2     -21.632  -7.748  -3.488  1.00  0.00     0.000 C 
BRANCH  10  11
HETATM   11  C   UNL     2     -21.116  -7.200  -2.149  1.00  0.00     0.000 C 
BRANCH  11  12
HETATM   12  C   UNL     2     -22.249  -6.803  -1.194  1.00  0.00     0.000 C 
BRANCH  12  13
HETATM   13  C   UNL     2     -22.185  -7.602   0.112  1.00  0.00     0.000 C 
BRANCH  13  14
HETATM   14  C   UNL     2     -23.225  -8.728   0.169  1.00  0.00     0.002 C 
BRANCH  14  15
HETATM   15  C   UNL     2     -22.596 -10.093  -0.136  1.00  0.00     0.026 C 
BRANCH  15  16
HETATM   16  C   UNL     2     -23.210 -10.749  -1.367  1.00  0.00     0.164 C 
BRANCH  16  17
HETATM   17  O   UNL     2     -24.161 -11.728  -0.968  1.00  0.00    -0.401 OA
HETATM   18  H   UNL     2     -24.246 -11.680   0.000  1.00  0.00     0.209 HD
ENDBRANCH  16  17
ENDBRANCH  15  16
ENDBRANCH  14  15
ENDBRANCH  13  14
ENDBRANCH  12  13
ENDBRANCH  11  12
ENDBRANCH  10  11
ENDBRANCH   1  10
TORSDOF 32
BEGIN_RES ARG D 557
REMARK  4 active torsions:
REMARK  status: ('A' for Active; 'I' for Inactive)
REMARK    1  A    between atoms: CA   and  CB  
REMARK    2  A    between atoms: CB   and  CG  
REMARK    3  A    between atoms: CG   and  CD  
REMARK    4  A    between atoms: CD   and  NE  
REMARK       I    between atoms: NE   and  CZ  
REMARK       I    between atoms: CZ   and  NH1 
REMARK       I    between atoms: CZ   and  NH2 
ROOT
ATOM      1  CA  ARG D 557     -26.217   2.705 -17.014  1.00 35.49     0.159 C 
ENDROOT
BRANCH   1   2
ATOM      2  CB  ARG D 557     -26.789   1.319 -17.183  1.00 35.49     0.034 C 
BRANCH   2   3
ATOM      3  CG  ARG D 557     -25.862   0.195 -17.002  1.00 35.49     0.027 C 
BRANCH   3   4
ATOM      4  CD  ARG D 557     -26.323  -0.755 -15.964  1.00 35.49     0.116 C 
BRANCH   4   5
ATOM      5  NE  ARG D 557     -25.331  -0.965 -14.942  1.00 35.49    -0.212 N 
ATOM      6  CZ  ARG D 557     -25.086  -2.103 -14.332  1.00 35.49     0.666 C 
ATOM      7  NH1 ARG D 557     -25.760  -3.208 -14.594  1.00 35.49    -0.235 N 
ATOM      8  NH2 ARG D 557     -24.134  -2.115 -13.445  1.00 35.49    -0.235 N 
ATOM      9  HH  ARG D 557     -26.389  -3.223 -15.176  1.00 35.49     0.174 HD
ATOM     10  HH  ARG D 557     -25.554  -3.921 -14.167  1.00 35.49     0.174 HD
ATOM     11  HH  ARG D 557     -23.711  -1.389 -13.302  1.00 35.49     0.174 HD
ATOM     12  HH  ARG D 557     -23.944  -2.832 -13.033  1.00 35.49     0.174 HD
ATOM     13  HE  ARG D 557     -24.900  -0.289 -14.660  1.00 35.49     0.178 HD
ENDBRANCH   4   5
ENDBRANCH   3   4
ENDBRANCH   2   3
ENDBRANCH   1   2
END_RES ARG D 557
BEGIN_RES GLU D 570
REMARK  3 active torsions:
REMARK  status: ('A' for Active; 'I' for Inactive)
REMARK    5  A    between atoms: CA   and  CB  
REMARK    6  A    between atoms: CB   and  CG  
REMARK    7  A    between atoms: CG   and  CD  
ROOT
ATOM     14  CA  GLU D 570     -18.033  -6.348 -13.375  1.00 32.92     0.160 C 
ENDROOT
BRANCH  14  15
ATOM     15  CB  GLU D 570     -19.500  -6.345 -13.794  1.00 32.92     0.043 C 
BRANCH  15  16
ATOM     16  CG  GLU D 570     -20.440  -5.524 -12.988  1.00 32.92     0.100 C 
BRANCH  16  17
ATOM     17  CD  GLU D 570     -21.677  -5.121 -13.756  1.00 32.92     0.185 C 
ATOM     18  OE1 GLU D 570     -22.685  -4.746 -13.126  1.00 32.92    -0.647 OA
ATOM     19  OE2 GLU D 570     -21.643  -5.195 -15.000  1.00 32.92    -0.647 OA
ENDBRANCH  16  17
ENDBRANCH  15  16
ENDBRANCH  14  15
END_RES GLU D 570
ENDMDL
MODEL 9
REMARK VINA RESULT:      -5.5      3.209      7.120
REMARK  32 active torsions:
REMARK  status: ('A' for Active; 'I' for Inactive)
REMARK    1  A    between atoms: C_2  and  C_3 
REMARK    2  A    between atoms: C_3  and  C_4 
REMARK    3  A    between atoms: C_4  and  C_5 
REMARK    4  A    between atoms: C_5  and  C_6 
REMARK    5  A    between atoms: C_6  and  C_7 
REMARK    6  A    between atoms: C_7  and  C_8 
REMARK    7  A    between atoms: C_8  and  C_9 
REMARK    8  A    between atoms: C_9  and  C_10 
REMARK    9  A    between atoms: C_10  and  C_11 
REMARK   10  A    between atoms: C_11  and  C_12 
REMARK   11  A    between atoms: C_12  and  C_13 
REMARK   12  A    between atoms: C_13  and  C_14 
REMARK   13  A    between atoms: C_14  and  C_15 
REMARK   14  A    between atoms: C_15  and  C_16 
REMARK   15  A    between atoms: C_16  and  C_17 
REMARK   16  A    between atoms: C_17  and  C_18 
REMARK   17  A    between atoms: C_18  and  O_19 
REMARK   18  A    between atoms: C_22  and  C_23 
REMARK   19  A    between atoms: C_23  and  C_24 
REMARK   20  A    between atoms: C_24  and  C_25 
REMARK   21  A    between atoms: C_25  and  C_26 
REMARK   22  A    between atoms: C_26  and  C_27 
REMARK   23  A    between atoms: C_27  and  C_28 
REMARK   24  A    between atoms: C_28  and  C_29 
REMARK   25  A    between atoms: C_29  and  C_30 
REMARK   26  A    between atoms: C_30  and  C_31 
REMARK   27  A    between atoms: C_31  and  C_32 
REMARK   28  A    between atoms: C_32  and  C_33 
REMARK   29  A    between atoms: C_33  and  C_34 
REMARK   30  A    between atoms: C_34  and  C_35 
REMARK   31  A    between atoms: C_35  and  C_36 
REMARK   32  A    between atoms: C_36  and  O_37 
ROOT
HETATM    1  C   UNL     2     -21.154  -6.993  -3.362  1.00  0.00     0.000 C 
ENDROOT
BRANCH   1   2
HETATM    2  C   UNL     2     -21.626  -6.901  -4.819  1.00  0.00     0.000 C 
BRANCH   2   3
HETATM    3  C   UNL     2     -20.536  -6.449  -5.802  1.00  0.00     0.000 C 
BRANCH   3   4
HETATM    4  C   UNL     2     -20.197  -4.959  -5.703  1.00  0.00     0.000 C 
BRANCH   4   5
HETATM    5  C   UNL     2     -19.705  -4.403  -7.045  1.00  0.00     0.000 C 
BRANCH   5   6
HETATM    6  C   UNL     2     -20.167  -5.233  -8.245  1.00  0.00     0.000 C 
BRANCH   6   7
HETATM    7  C   UNL     2     -21.149  -4.527  -9.181  1.00  0.00    -0.000 C 
BRANCH   7   8
HETATM    8  C   UNL     2     -22.369  -3.902  -8.504  1.00  0.00    -0.005 C 
HETATM    9  C   UNL     2     -23.545  -3.700  -9.443  1.00  0.00     0.005 C 
ENDBRANCH   7   8
ENDBRANCH   6   7
ENDBRANCH   5   6
ENDBRANCH   4   5
ENDBRANCH   3   4
ENDBRANCH   2   3
ENDBRANCH   1   2
BRANCH   1  10
HETATM   10  C   UNL     2     -21.963  -6.072  -2.434  1.00  0.00     0.000 C 
BRANCH  10  11
HETATM   11  C   UNL     2     -22.314  -6.773  -1.112  1.00  0.00     0.000 C 
BRANCH  11  12
HETATM   12  C   UNL     2     -21.377  -7.946  -0.795  1.00  0.00     0.000 C 
BRANCH  12  13
HETATM   13  C   UNL     2     -21.863  -8.734   0.426  1.00  0.00     0.000 C 
BRANCH  13  14
HETATM   14  C   UNL     2     -23.360  -9.064   0.361  1.00  0.00     0.002 C 
BRANCH  14  15
HETATM   15  C   UNL     2     -23.607 -10.438  -0.272  1.00  0.00     0.026 C 
BRANCH  15  16
HETATM   16  C   UNL     2     -22.488 -11.426   0.035  1.00  0.00     0.164 C 
BRANCH  16  17
HETATM   17  O   UNL     2     -21.909 -11.891  -1.178  1.00  0.00    -0.401 OA
HETATM   18  H   UNL     2     -22.408 -12.675  -1.461  1.00  0.00     0.209 HD
ENDBRANCH  16  17
ENDBRANCH  15  16
ENDBRANCH  14  15
ENDBRANCH  13  14
ENDBRANCH  12  13
ENDBRANCH  11  12
ENDBRANCH  10  11
ENDBRANCH   1  10
TORSDOF 32
BEGIN_RES ARG D 557
REMARK  4 active torsions:
REMARK  status: ('A' for Active; 'I' for Inactive)
REMARK    1  A    between atoms: CA   and  CB  
REMARK    2  A    between atoms: CB   and  CG  
REMARK    3  A    between atoms: CG   and  CD  
REMARK    4  A    between atoms: CD   and  NE  
REMARK       I    between atoms: NE   and  CZ  
REMARK       I    between atoms: CZ   and  NH1 
REMARK       I    between atoms: CZ   and  NH2 
ROOT
ATOM      1  CA  ARG D 557     -26.217   2.705 -17.014  1.00 35.49     0.159 C 
ENDROOT
BRANCH   1   2
ATOM      2  CB  ARG D 557     -26.789   1.319 -17.183  1.00 35.49     0.034 C 
BRANCH   2   3
ATOM      3  CG  ARG D 557     -28.235   1.225 -17.421  1.00 35.49     0.027 C 
BRANCH   3   4
ATOM      4  CD  ARG D 557     -28.901   0.292 -16.484  1.00 35.49     0.116 C 
BRANCH   4   5
ATOM      5  NE  ARG D 557     -29.291  -0.935 -17.126  1.00 35.49    -0.212 N 
ATOM      6  CZ  ARG D 557     -28.662  -2.085 -17.033  1.00 35.49     0.666 C 
ATOM      7  NH1 ARG D 557     -27.558  -2.234 -16.324  1.00 35.49    -0.235 N 
ATOM      8  NH2 ARG D 557     -29.171  -3.101 -17.667  1.00 35.49    -0.235 N 
ATOM      9  HH  ARG D 557     -27.207  -1.579 -15.897  1.00 35.49     0.174 HD
ATOM     10  HH  ARG D 557     -27.193  -3.008 -16.298  1.00 35.49     0.174 HD
ATOM     11  HH  ARG D 557     -29.889  -2.977 -18.111  1.00 35.49     0.174 HD
ATOM     12  HH  ARG D 557     -28.795  -3.860 -17.628  1.00 35.49     0.174 HD
ATOM     13  HE  ARG D 557     -29.952  -0.913 -17.662  1.00 35.49     0.178 HD
ENDBRANCH   4   5
ENDBRANCH   3   4
ENDBRANCH   2   3
ENDBRANCH   1   2
END_RES ARG D 557
BEGIN_RES GLU D 570
REMARK  3 active torsions:
REMARK  status: ('A' for Active; 'I' for Inactive)
REMARK    5  A    between atoms: CA   and  CB  
REMARK    6  A    between atoms: CB   and  CG  
REMARK    7  A    between atoms: CG   and  CD  
ROOT
ATOM     14  CA  GLU D 570     -18.033  -6.348 -13.375  1.00 32.92     0.160 C 
ENDROOT
BRANCH  14  15
ATOM     15  CB  GLU D 570     -19.500  -6.345 -13.794  1.00 32.92     0.043 C 
BRANCH  15  16
ATOM     16  CG  GLU D 570     -20.451  -5.577 -12.950  1.00 32.92     0.100 C 
BRANCH  16  17
ATOM     17  CD  GLU D 570     -21.709  -5.182 -13.689  1.00 32.92     0.185 C 
ATOM     18  OE1 GLU D 570     -21.699  -5.167 -14.935  1.00 32.92    -0.647 OA
ATOM     19  OE2 GLU D 570     -22.709  -4.869 -13.014  1.00 32.92    -0.647 OA
ENDBRANCH  16  17
ENDBRANCH  15  16
ENDBRANCH  14  15
END_RES GLU D 570
ENDMDL
