MODEL 1
REMARK VINA RESULT:      -1.1      0.000      0.000
REMARK  4 active torsions:
REMARK  status: ('A' for Active; 'I' for Inactive)
REMARK    1  A    between atoms: C_9  and  C_12 
REMARK    2  A    between atoms: C_10  and  O_11 
REMARK    3  A    between atoms: C_16  and  S_27 
REMARK    4  A    between atoms: C_18  and  S_23 
ROOT
HETATM    1 NA   UNL     3     -25.289  -5.243  -4.919  1.00  0.00     0.000 Na
ENDROOT
TORSDOF 4
BEGIN_RES ARG D 557
REMARK  4 active torsions:
REMARK  status: ('A' for Active; 'I' for Inactive)
REMARK    1  A    between atoms: CA   and  CB  
REMARK    2  A    between atoms: CB   and  CG  
REMARK    3  A    between atoms: CG   and  CD  
REMARK    4  A    between atoms: CD   and  NE  
REMARK       I    between atoms: NE   and  CZ  
REMARK       I    between atoms: CZ   and  NH1 
REMARK       I    between atoms: CZ   and  NH2 
ROOT
ATOM      1  CA  ARG D 557     -26.217   2.705 -17.014  1.00 35.49     0.159 C 
ENDROOT
BRANCH   1   2
ATOM      2  CB  ARG D 557     -26.789   1.319 -17.183  1.00 35.49     0.034 C 
BRANCH   2   3
ATOM      3  CG  ARG D 557     -25.837   0.202 -17.145  1.00 35.49     0.027 C 
BRANCH   3   4
ATOM      4  CD  ARG D 557     -24.758   0.414 -16.153  1.00 35.49     0.116 C 
BRANCH   4   5
ATOM      5  NE  ARG D 557     -24.896  -0.447 -15.009  1.00 35.49    -0.212 N 
ATOM      6  CZ  ARG D 557     -24.072  -1.414 -14.671  1.00 35.49     0.666 C 
ATOM      7  NH1 ARG D 557     -23.001  -1.713 -15.382  1.00 35.49    -0.235 N 
ATOM      8  NH2 ARG D 557     -24.342  -2.082 -13.587  1.00 35.49    -0.235 N 
ATOM      9  HH  ARG D 557     -22.803  -1.286 -16.098  1.00 35.49     0.174 HD
ATOM     10  HH  ARG D 557     -22.498  -2.352 -15.111  1.00 35.49     0.174 HD
ATOM     11  HH  ARG D 557     -25.037  -1.861 -13.144  1.00 35.49     0.174 HD
ATOM     12  HH  ARG D 557     -23.832  -2.710 -13.335  1.00 35.49     0.174 HD
ATOM     13  HE  ARG D 557     -25.598  -0.372 -14.534  1.00 35.49     0.178 HD
ENDBRANCH   4   5
ENDBRANCH   3   4
ENDBRANCH   2   3
ENDBRANCH   1   2
END_RES ARG D 557
BEGIN_RES GLU D 570
REMARK  3 active torsions:
REMARK  status: ('A' for Active; 'I' for Inactive)
REMARK    5  A    between atoms: CA   and  CB  
REMARK    6  A    between atoms: CB   and  CG  
REMARK    7  A    between atoms: CG   and  CD  
ROOT
ATOM     14  CA  GLU D 570     -18.033  -6.348 -13.375  1.00 32.92     0.160 C 
ENDROOT
BRANCH  14  15
ATOM     15  CB  GLU D 570     -19.500  -6.345 -13.794  1.00 32.92     0.043 C 
BRANCH  15  16
ATOM     16  CG  GLU D 570     -20.447  -5.555 -12.966  1.00 32.92     0.100 C 
BRANCH  16  17
ATOM     17  CD  GLU D 570     -21.745  -5.254 -13.679  1.00 32.92     0.185 C 
ATOM     18  OE1 GLU D 570     -22.272  -6.142 -14.376  1.00 32.92    -0.647 OA
ATOM     19  OE2 GLU D 570     -22.231  -4.113 -13.552  1.00 32.92    -0.647 OA
ENDBRANCH  16  17
ENDBRANCH  15  16
ENDBRANCH  14  15
END_RES GLU D 570
ENDMDL
MODEL 2
REMARK VINA RESULT:      -1.0      4.857      4.857
REMARK  4 active torsions:
REMARK  status: ('A' for Active; 'I' for Inactive)
REMARK    1  A    between atoms: C_9  and  C_12 
REMARK    2  A    between atoms: C_10  and  O_11 
REMARK    3  A    between atoms: C_16  and  S_27 
REMARK    4  A    between atoms: C_18  and  S_23 
ROOT
HETATM    1 NA   UNL     3     -11.518   1.530  -9.811  1.00  0.00     0.000 Na
ENDROOT
TORSDOF 4
BEGIN_RES ARG D 557
REMARK  4 active torsions:
REMARK  status: ('A' for Active; 'I' for Inactive)
REMARK    1  A    between atoms: CA   and  CB  
REMARK    2  A    between atoms: CB   and  CG  
REMARK    3  A    between atoms: CG   and  CD  
REMARK    4  A    between atoms: CD   and  NE  
REMARK       I    between atoms: NE   and  CZ  
REMARK       I    between atoms: CZ   and  NH1 
REMARK       I    between atoms: CZ   and  NH2 
ROOT
ATOM      1  CA  ARG D 557     -26.217   2.705 -17.014  1.00 35.49     0.159 C 
ENDROOT
BRANCH   1   2
ATOM      2  CB  ARG D 557     -26.789   1.319 -17.183  1.00 35.49     0.034 C 
BRANCH   2   3
ATOM      3  CG  ARG D 557     -25.835   0.204 -17.164  1.00 35.49     0.027 C 
BRANCH   3   4
ATOM      4  CD  ARG D 557     -24.746   0.410 -16.181  1.00 35.49     0.116 C 
BRANCH   4   5
ATOM      5  NE  ARG D 557     -24.892  -0.435 -15.025  1.00 35.49    -0.212 N 
ATOM      6  CZ  ARG D 557     -24.076  -1.403 -14.673  1.00 35.49     0.666 C 
ATOM      7  NH1 ARG D 557     -23.007  -1.721 -15.380  1.00 35.49    -0.235 N 
ATOM      8  NH2 ARG D 557     -24.352  -2.053 -13.580  1.00 35.49    -0.235 N 
ATOM      9  HH  ARG D 557     -22.805  -1.305 -16.101  1.00 35.49     0.174 HD
ATOM     10  HH  ARG D 557     -22.509  -2.361 -15.100  1.00 35.49     0.174 HD
ATOM     11  HH  ARG D 557     -25.045  -1.821 -13.141  1.00 35.49     0.174 HD
ATOM     12  HH  ARG D 557     -23.846  -2.682 -13.319  1.00 35.49     0.174 HD
ATOM     13  HE  ARG D 557     -25.593  -0.347 -14.552  1.00 35.49     0.178 HD
ENDBRANCH   4   5
ENDBRANCH   3   4
ENDBRANCH   2   3
ENDBRANCH   1   2
END_RES ARG D 557
BEGIN_RES GLU D 570
REMARK  3 active torsions:
REMARK  status: ('A' for Active; 'I' for Inactive)
REMARK    5  A    between atoms: CA   and  CB  
REMARK    6  A    between atoms: CB   and  CG  
REMARK    7  A    between atoms: CG   and  CD  
ROOT
ATOM     14  CA  GLU D 570     -18.033  -6.348 -13.375  1.00 32.92     0.160 C 
ENDROOT
BRANCH  14  15
ATOM     15  CB  GLU D 570     -19.500  -6.345 -13.794  1.00 32.92     0.043 C 
BRANCH  15  16
ATOM     16  CG  GLU D 570     -20.446  -5.549 -12.970  1.00 32.92     0.100 C 
BRANCH  16  17
ATOM     17  CD  GLU D 570     -21.745  -5.253 -13.683  1.00 32.92     0.185 C 
ATOM     18  OE1 GLU D 570     -22.245  -6.128 -14.415  1.00 32.92    -0.647 OA
ATOM     19  OE2 GLU D 570     -22.258  -4.129 -13.521  1.00 32.92    -0.647 OA
ENDBRANCH  16  17
ENDBRANCH  15  16
ENDBRANCH  14  15
END_RES GLU D 570
ENDMDL
MODEL 3
REMARK VINA RESULT:      -1.0      3.903      4.110
REMARK  4 active torsions:
REMARK  status: ('A' for Active; 'I' for Inactive)
REMARK    1  A    between atoms: C_9  and  C_12 
REMARK    2  A    between atoms: C_10  and  O_11 
REMARK    3  A    between atoms: C_16  and  S_27 
REMARK    4  A    between atoms: C_18  and  S_23 
ROOT
HETATM    1 NA   UNL     3     -31.920  -8.844   4.475  1.00  0.00     0.000 Na
ENDROOT
TORSDOF 4
BEGIN_RES ARG D 557
REMARK  4 active torsions:
REMARK  status: ('A' for Active; 'I' for Inactive)
REMARK    1  A    between atoms: CA   and  CB  
REMARK    2  A    between atoms: CB   and  CG  
REMARK    3  A    between atoms: CG   and  CD  
REMARK    4  A    between atoms: CD   and  NE  
REMARK       I    between atoms: NE   and  CZ  
REMARK       I    between atoms: CZ   and  NH1 
REMARK       I    between atoms: CZ   and  NH2 
ROOT
ATOM      1  CA  ARG D 557     -26.217   2.705 -17.014  1.00 35.49     0.159 C 
ENDROOT
BRANCH   1   2
ATOM      2  CB  ARG D 557     -26.789   1.319 -17.183  1.00 35.49     0.034 C 
BRANCH   2   3
ATOM      3  CG  ARG D 557     -25.935   0.197 -16.774  1.00 35.49     0.027 C 
BRANCH   3   4
ATOM      4  CD  ARG D 557     -26.695  -0.865 -16.076  1.00 35.49     0.116 C 
BRANCH   4   5
ATOM      5  NE  ARG D 557     -25.955  -1.428 -14.977  1.00 35.49    -0.212 N 
ATOM      6  CZ  ARG D 557     -25.928  -2.698 -14.640  1.00 35.49     0.666 C 
ATOM      7  NH1 ARG D 557     -26.615  -3.619 -15.291  1.00 35.49    -0.235 N 
ATOM      8  NH2 ARG D 557     -25.184  -3.035 -13.627  1.00 35.49    -0.235 N 
ATOM      9  HH  ARG D 557     -27.109  -3.421 -15.963  1.00 35.49     0.174 HD
ATOM     10  HH  ARG D 557     -26.556  -4.433 -15.028  1.00 35.49     0.174 HD
ATOM     11  HH  ARG D 557     -24.746  -2.420 -13.230  1.00 35.49     0.174 HD
ATOM     12  HH  ARG D 557     -25.139  -3.846 -13.382  1.00 35.49     0.174 HD
ATOM     13  HE  ARG D 557     -25.542  -0.896 -14.459  1.00 35.49     0.178 HD
ENDBRANCH   4   5
ENDBRANCH   3   4
ENDBRANCH   2   3
ENDBRANCH   1   2
END_RES ARG D 557
BEGIN_RES GLU D 570
REMARK  3 active torsions:
REMARK  status: ('A' for Active; 'I' for Inactive)
REMARK    5  A    between atoms: CA   and  CB  
REMARK    6  A    between atoms: CB   and  CG  
REMARK    7  A    between atoms: CG   and  CD  
ROOT
ATOM     14  CA  GLU D 570     -18.033  -6.348 -13.375  1.00 32.92     0.160 C 
ENDROOT
BRANCH  14  15
ATOM     15  CB  GLU D 570     -19.500  -6.345 -13.794  1.00 32.92     0.043 C 
BRANCH  15  16
ATOM     16  CG  GLU D 570     -20.442  -5.529 -12.984  1.00 32.92     0.100 C 
BRANCH  16  17
ATOM     17  CD  GLU D 570     -21.748  -5.259 -13.694  1.00 32.92     0.185 C 
ATOM     18  OE1 GLU D 570     -22.309  -4.159 -13.530  1.00 32.92    -0.647 OA
ATOM     19  OE2 GLU D 570     -22.223  -6.164 -14.408  1.00 32.92    -0.647 OA
ENDBRANCH  16  17
ENDBRANCH  15  16
ENDBRANCH  14  15
END_RES GLU D 570
ENDMDL
MODEL 4
REMARK VINA RESULT:      -1.0      1.731      1.999
REMARK  4 active torsions:
REMARK  status: ('A' for Active; 'I' for Inactive)
REMARK    1  A    between atoms: C_9  and  C_12 
REMARK    2  A    between atoms: C_10  and  O_11 
REMARK    3  A    between atoms: C_16  and  S_27 
REMARK    4  A    between atoms: C_18  and  S_23 
ROOT
HETATM    1 NA   UNL     3     -27.260  -5.698  -9.105  1.00  0.00     0.000 Na
ENDROOT
TORSDOF 4
BEGIN_RES ARG D 557
REMARK  4 active torsions:
REMARK  status: ('A' for Active; 'I' for Inactive)
REMARK    1  A    between atoms: CA   and  CB  
REMARK    2  A    between atoms: CB   and  CG  
REMARK    3  A    between atoms: CG   and  CD  
REMARK    4  A    between atoms: CD   and  NE  
REMARK       I    between atoms: NE   and  CZ  
REMARK       I    between atoms: CZ   and  NH1 
REMARK       I    between atoms: CZ   and  NH2 
ROOT
ATOM      1  CA  ARG D 557     -26.217   2.705 -17.014  1.00 35.49     0.159 C 
ENDROOT
BRANCH   1   2
ATOM      2  CB  ARG D 557     -26.789   1.319 -17.183  1.00 35.49     0.034 C 
BRANCH   2   3
ATOM      3  CG  ARG D 557     -25.860   0.195 -17.009  1.00 35.49     0.027 C 
BRANCH   3   4
ATOM      4  CD  ARG D 557     -26.285  -0.725 -15.930  1.00 35.49     0.116 C 
BRANCH   4   5
ATOM      5  NE  ARG D 557     -25.251  -0.922 -14.948  1.00 35.49    -0.212 N 
ATOM      6  CZ  ARG D 557     -24.971  -2.056 -14.344  1.00 35.49     0.666 C 
ATOM      7  NH1 ARG D 557     -25.644  -3.168 -14.576  1.00 35.49    -0.235 N 
ATOM      8  NH2 ARG D 557     -23.984  -2.056 -13.496  1.00 35.49    -0.235 N 
ATOM      9  HH  ARG D 557     -26.295  -3.191 -15.132  1.00 35.49     0.174 HD
ATOM     10  HH  ARG D 557     -25.414  -3.878 -14.155  1.00 35.49     0.174 HD
ATOM     11  HH  ARG D 557     -23.563  -1.325 -13.372  1.00 35.49     0.174 HD
ATOM     12  HH  ARG D 557     -23.771  -2.770 -13.090  1.00 35.49     0.174 HD
ATOM     13  HE  ARG D 557     -24.815  -0.241 -14.685  1.00 35.49     0.178 HD
ENDBRANCH   4   5
ENDBRANCH   3   4
ENDBRANCH   2   3
ENDBRANCH   1   2
END_RES ARG D 557
BEGIN_RES GLU D 570
REMARK  3 active torsions:
REMARK  status: ('A' for Active; 'I' for Inactive)
REMARK    5  A    between atoms: CA   and  CB  
REMARK    6  A    between atoms: CB   and  CG  
REMARK    7  A    between atoms: CG   and  CD  
ROOT
ATOM     14  CA  GLU D 570     -18.033  -6.348 -13.375  1.00 32.92     0.160 C 
ENDROOT
BRANCH  14  15
ATOM     15  CB  GLU D 570     -19.500  -6.345 -13.794  1.00 32.92     0.043 C 
BRANCH  15  16
ATOM     16  CG  GLU D 570     -20.447  -5.555 -12.966  1.00 32.92     0.100 C 
BRANCH  16  17
ATOM     17  CD  GLU D 570     -21.657  -5.085 -13.739  1.00 32.92     0.185 C 
ATOM     18  OE1 GLU D 570     -22.684  -4.756 -13.116  1.00 32.92    -0.647 OA
ATOM     19  OE2 GLU D 570     -21.583  -5.063 -14.984  1.00 32.92    -0.647 OA
ENDBRANCH  16  17
ENDBRANCH  15  16
ENDBRANCH  14  15
END_RES GLU D 570
ENDMDL
MODEL 5
REMARK VINA RESULT:      -0.9      5.295      5.295
REMARK  4 active torsions:
REMARK  status: ('A' for Active; 'I' for Inactive)
REMARK    1  A    between atoms: C_9  and  C_12 
REMARK    2  A    between atoms: C_10  and  O_11 
REMARK    3  A    between atoms: C_16  and  S_27 
REMARK    4  A    between atoms: C_18  and  S_23 
ROOT
HETATM    1 NA   UNL     3     -36.186  -0.337 -17.786  1.00  0.00     0.000 Na
ENDROOT
TORSDOF 4
BEGIN_RES ARG D 557
REMARK  4 active torsions:
REMARK  status: ('A' for Active; 'I' for Inactive)
REMARK    1  A    between atoms: CA   and  CB  
REMARK    2  A    between atoms: CB   and  CG  
REMARK    3  A    between atoms: CG   and  CD  
REMARK    4  A    between atoms: CD   and  NE  
REMARK       I    between atoms: NE   and  CZ  
REMARK       I    between atoms: CZ   and  NH1 
REMARK       I    between atoms: CZ   and  NH2 
ROOT
ATOM      1  CA  ARG D 557     -26.217   2.705 -17.014  1.00 35.49     0.159 C 
ENDROOT
BRANCH   1   2
ATOM      2  CB  ARG D 557     -26.789   1.319 -17.183  1.00 35.49     0.034 C 
BRANCH   2   3
ATOM      3  CG  ARG D 557     -25.836   0.203 -17.152  1.00 35.49     0.027 C 
BRANCH   3   4
ATOM      4  CD  ARG D 557     -24.755   0.411 -16.162  1.00 35.49     0.116 C 
BRANCH   4   5
ATOM      5  NE  ARG D 557     -24.904  -0.438 -15.010  1.00 35.49    -0.212 N 
ATOM      6  CZ  ARG D 557     -24.095  -1.415 -14.666  1.00 35.49     0.666 C 
ATOM      7  NH1 ARG D 557     -23.030  -1.738 -15.377  1.00 35.49    -0.235 N 
ATOM      8  NH2 ARG D 557     -24.372  -2.068 -13.575  1.00 35.49    -0.235 N 
ATOM      9  HH  ARG D 557     -22.827  -1.320 -16.097  1.00 35.49     0.174 HD
ATOM     10  HH  ARG D 557     -22.537  -2.383 -15.102  1.00 35.49     0.174 HD
ATOM     11  HH  ARG D 557     -25.062  -1.832 -13.132  1.00 35.49     0.174 HD
ATOM     12  HH  ARG D 557     -23.871  -2.702 -13.319  1.00 35.49     0.174 HD
ATOM     13  HE  ARG D 557     -25.603  -0.347 -14.535  1.00 35.49     0.178 HD
ENDBRANCH   4   5
ENDBRANCH   3   4
ENDBRANCH   2   3
ENDBRANCH   1   2
END_RES ARG D 557
BEGIN_RES GLU D 570
REMARK  3 active torsions:
REMARK  status: ('A' for Active; 'I' for Inactive)
REMARK    5  A    between atoms: CA   and  CB  
REMARK    6  A    between atoms: CB   and  CG  
REMARK    7  A    between atoms: CG   and  CD  
ROOT
ATOM     14  CA  GLU D 570     -18.033  -6.348 -13.375  1.00 32.92     0.160 C 
ENDROOT
BRANCH  14  15
ATOM     15  CB  GLU D 570     -19.500  -6.345 -13.794  1.00 32.92     0.043 C 
BRANCH  15  16
ATOM     16  CG  GLU D 570     -20.440  -5.523 -12.989  1.00 32.92     0.100 C 
BRANCH  16  17
ATOM     17  CD  GLU D 570     -21.748  -5.260 -13.698  1.00 32.92     0.185 C 
ATOM     18  OE1 GLU D 570     -22.221  -6.141 -14.442  1.00 32.92    -0.647 OA
ATOM     19  OE2 GLU D 570     -22.298  -4.155 -13.520  1.00 32.92    -0.647 OA
ENDBRANCH  16  17
ENDBRANCH  15  16
ENDBRANCH  14  15
END_RES GLU D 570
ENDMDL
MODEL 6
REMARK VINA RESULT:      -0.9      2.470      2.470
REMARK  4 active torsions:
REMARK  status: ('A' for Active; 'I' for Inactive)
REMARK    1  A    between atoms: C_9  and  C_12 
REMARK    2  A    between atoms: C_10  and  O_11 
REMARK    3  A    between atoms: C_16  and  S_27 
REMARK    4  A    between atoms: C_18  and  S_23 
ROOT
HETATM    1 NA   UNL     3     -33.308  -6.675  -4.202  1.00  0.00     0.000 Na
ENDROOT
TORSDOF 4
BEGIN_RES ARG D 557
REMARK  4 active torsions:
REMARK  status: ('A' for Active; 'I' for Inactive)
REMARK    1  A    between atoms: CA   and  CB  
REMARK    2  A    between atoms: CB   and  CG  
REMARK    3  A    between atoms: CG   and  CD  
REMARK    4  A    between atoms: CD   and  NE  
REMARK       I    between atoms: NE   and  CZ  
REMARK       I    between atoms: CZ   and  NH1 
REMARK       I    between atoms: CZ   and  NH2 
ROOT
ATOM      1  CA  ARG D 557     -26.217   2.705 -17.014  1.00 35.49     0.159 C 
ENDROOT
BRANCH   1   2
ATOM      2  CB  ARG D 557     -26.789   1.319 -17.183  1.00 35.49     0.034 C 
BRANCH   2   3
ATOM      3  CG  ARG D 557     -25.835   0.203 -17.159  1.00 35.49     0.027 C 
BRANCH   3   4
ATOM      4  CD  ARG D 557     -24.763   0.399 -16.156  1.00 35.49     0.116 C 
BRANCH   4   5
ATOM      5  NE  ARG D 557     -24.927  -0.460 -15.013  1.00 35.49    -0.212 N 
ATOM      6  CZ  ARG D 557     -24.120  -1.438 -14.665  1.00 35.49     0.666 C 
ATOM      7  NH1 ARG D 557     -23.045  -1.752 -15.363  1.00 35.49    -0.235 N 
ATOM      8  NH2 ARG D 557     -24.412  -2.101 -13.584  1.00 35.49    -0.235 N 
ATOM      9  HH  ARG D 557     -22.833  -1.328 -16.077  1.00 35.49     0.174 HD
ATOM     10  HH  ARG D 557     -22.554  -2.398 -15.086  1.00 35.49     0.174 HD
ATOM     11  HH  ARG D 557     -25.108  -1.870 -13.149  1.00 35.49     0.174 HD
ATOM     12  HH  ARG D 557     -23.913  -2.736 -13.325  1.00 35.49     0.174 HD
ATOM     13  HE  ARG D 557     -25.633  -0.375 -14.547  1.00 35.49     0.178 HD
ENDBRANCH   4   5
ENDBRANCH   3   4
ENDBRANCH   2   3
ENDBRANCH   1   2
END_RES ARG D 557
BEGIN_RES GLU D 570
REMARK  3 active torsions:
REMARK  status: ('A' for Active; 'I' for Inactive)
REMARK    5  A    between atoms: CA   and  CB  
REMARK    6  A    between atoms: CB   and  CG  
REMARK    7  A    between atoms: CG   and  CD  
ROOT
ATOM     14  CA  GLU D 570     -18.033  -6.348 -13.375  1.00 32.92     0.160 C 
ENDROOT
BRANCH  14  15
ATOM     15  CB  GLU D 570     -19.500  -6.345 -13.794  1.00 32.92     0.043 C 
BRANCH  15  16
ATOM     16  CG  GLU D 570     -20.440  -5.521 -12.990  1.00 32.92     0.100 C 
BRANCH  16  17
ATOM     17  CD  GLU D 570     -21.708  -5.178 -13.736  1.00 32.92     0.185 C 
ATOM     18  OE1 GLU D 570     -22.087  -5.922 -14.661  1.00 32.92    -0.647 OA
ATOM     19  OE2 GLU D 570     -22.320  -4.144 -13.403  1.00 32.92    -0.647 OA
ENDBRANCH  16  17
ENDBRANCH  15  16
ENDBRANCH  14  15
END_RES GLU D 570
ENDMDL
MODEL 7
REMARK VINA RESULT:      -0.9      6.333      6.333
REMARK  4 active torsions:
REMARK  status: ('A' for Active; 'I' for Inactive)
REMARK    1  A    between atoms: C_9  and  C_12 
REMARK    2  A    between atoms: C_10  and  O_11 
REMARK    3  A    between atoms: C_16  and  S_27 
REMARK    4  A    between atoms: C_18  and  S_23 
ROOT
HETATM    1 NA   UNL     3     -29.067   9.833 -19.044  1.00  0.00     0.000 Na
ENDROOT
TORSDOF 4
BEGIN_RES ARG D 557
REMARK  4 active torsions:
REMARK  status: ('A' for Active; 'I' for Inactive)
REMARK    1  A    between atoms: CA   and  CB  
REMARK    2  A    between atoms: CB   and  CG  
REMARK    3  A    between atoms: CG   and  CD  
REMARK    4  A    between atoms: CD   and  NE  
REMARK       I    between atoms: NE   and  CZ  
REMARK       I    between atoms: CZ   and  NH1 
REMARK       I    between atoms: CZ   and  NH2 
ROOT
ATOM      1  CA  ARG D 557     -26.217   2.705 -17.014  1.00 35.49     0.159 C 
ENDROOT
BRANCH   1   2
ATOM      2  CB  ARG D 557     -26.789   1.319 -17.183  1.00 35.49     0.034 C 
BRANCH   2   3
ATOM      3  CG  ARG D 557     -25.835   0.203 -17.158  1.00 35.49     0.027 C 
BRANCH   3   4
ATOM      4  CD  ARG D 557     -24.766   0.397 -16.152  1.00 35.49     0.116 C 
BRANCH   4   5
ATOM      5  NE  ARG D 557     -24.927  -0.469 -15.015  1.00 35.49    -0.212 N 
ATOM      6  CZ  ARG D 557     -24.113  -1.440 -14.667  1.00 35.49     0.666 C 
ATOM      7  NH1 ARG D 557     -23.030  -1.740 -15.360  1.00 35.49    -0.235 N 
ATOM      8  NH2 ARG D 557     -24.404  -2.112 -13.591  1.00 35.49    -0.235 N 
ATOM      9  HH  ARG D 557     -22.818  -1.310 -16.070  1.00 35.49     0.174 HD
ATOM     10  HH  ARG D 557     -22.535  -2.382 -15.084  1.00 35.49     0.174 HD
ATOM     11  HH  ARG D 557     -25.106  -1.891 -13.159  1.00 35.49     0.174 HD
ATOM     12  HH  ARG D 557     -23.901  -2.743 -13.333  1.00 35.49     0.174 HD
ATOM     13  HE  ARG D 557     -25.637  -0.394 -14.553  1.00 35.49     0.178 HD
ENDBRANCH   4   5
ENDBRANCH   3   4
ENDBRANCH   2   3
ENDBRANCH   1   2
END_RES ARG D 557
BEGIN_RES GLU D 570
REMARK  3 active torsions:
REMARK  status: ('A' for Active; 'I' for Inactive)
REMARK    5  A    between atoms: CA   and  CB  
REMARK    6  A    between atoms: CB   and  CG  
REMARK    7  A    between atoms: CG   and  CD  
ROOT
ATOM     14  CA  GLU D 570     -18.033  -6.348 -13.375  1.00 32.92     0.160 C 
ENDROOT
BRANCH  14  15
ATOM     15  CB  GLU D 570     -19.500  -6.345 -13.794  1.00 32.92     0.043 C 
BRANCH  15  16
ATOM     16  CG  GLU D 570     -20.440  -5.522 -12.990  1.00 32.92     0.100 C 
BRANCH  16  17
ATOM     17  CD  GLU D 570     -21.736  -5.233 -13.711  1.00 32.92     0.185 C 
ATOM     18  OE1 GLU D 570     -22.183  -6.075 -14.513  1.00 32.92    -0.647 OA
ATOM     19  OE2 GLU D 570     -22.300  -4.144 -13.485  1.00 32.92    -0.647 OA
ENDBRANCH  16  17
ENDBRANCH  15  16
ENDBRANCH  14  15
END_RES GLU D 570
ENDMDL
MODEL 8
REMARK VINA RESULT:      -0.9      3.310      3.823
REMARK  4 active torsions:
REMARK  status: ('A' for Active; 'I' for Inactive)
REMARK    1  A    between atoms: C_9  and  C_12 
REMARK    2  A    between atoms: C_10  and  O_11 
REMARK    3  A    between atoms: C_16  and  S_27 
REMARK    4  A    between atoms: C_18  and  S_23 
ROOT
HETATM    1 NA   UNL     3     -27.244  -5.760  -9.082  1.00  0.00     0.000 Na
ENDROOT
TORSDOF 4
BEGIN_RES ARG D 557
REMARK  4 active torsions:
REMARK  status: ('A' for Active; 'I' for Inactive)
REMARK    1  A    between atoms: CA   and  CB  
REMARK    2  A    between atoms: CB   and  CG  
REMARK    3  A    between atoms: CG   and  CD  
REMARK    4  A    between atoms: CD   and  NE  
REMARK       I    between atoms: NE   and  CZ  
REMARK       I    between atoms: CZ   and  NH1 
REMARK       I    between atoms: CZ   and  NH2 
ROOT
ATOM      1  CA  ARG D 557     -26.217   2.705 -17.014  1.00 35.49     0.159 C 
ENDROOT
BRANCH   1   2
ATOM      2  CB  ARG D 557     -26.789   1.319 -17.183  1.00 35.49     0.034 C 
BRANCH   2   3
ATOM      3  CG  ARG D 557     -28.231   1.226 -17.444  1.00 35.49     0.027 C 
BRANCH   3   4
ATOM      4  CD  ARG D 557     -28.916   0.309 -16.505  1.00 35.49     0.116 C 
BRANCH   4   5
ATOM      5  NE  ARG D 557     -29.309  -0.922 -17.138  1.00 35.49    -0.212 N 
ATOM      6  CZ  ARG D 557     -28.693  -2.077 -17.020  1.00 35.49     0.666 C 
ATOM      7  NH1 ARG D 557     -27.602  -2.228 -16.292  1.00 35.49    -0.235 N 
ATOM      8  NH2 ARG D 557     -29.202  -3.096 -17.650  1.00 35.49    -0.235 N 
ATOM      9  HH  ARG D 557     -27.251  -1.572 -15.867  1.00 35.49     0.174 HD
ATOM     10  HH  ARG D 557     -27.246  -3.006 -16.250  1.00 35.49     0.174 HD
ATOM     11  HH  ARG D 557     -29.911  -2.970 -18.107  1.00 35.49     0.174 HD
ATOM     12  HH  ARG D 557     -28.835  -3.858 -17.595  1.00 35.49     0.174 HD
ATOM     13  HE  ARG D 557     -29.960  -0.900 -17.685  1.00 35.49     0.178 HD
ENDBRANCH   4   5
ENDBRANCH   3   4
ENDBRANCH   2   3
ENDBRANCH   1   2
END_RES ARG D 557
BEGIN_RES GLU D 570
REMARK  3 active torsions:
REMARK  status: ('A' for Active; 'I' for Inactive)
REMARK    5  A    between atoms: CA   and  CB  
REMARK    6  A    between atoms: CB   and  CG  
REMARK    7  A    between atoms: CG   and  CD  
ROOT
ATOM     14  CA  GLU D 570     -18.033  -6.348 -13.375  1.00 32.92     0.160 C 
ENDROOT
BRANCH  14  15
ATOM     15  CB  GLU D 570     -19.500  -6.345 -13.794  1.00 32.92     0.043 C 
BRANCH  15  16
ATOM     16  CG  GLU D 570     -20.440  -5.524 -12.988  1.00 32.92     0.100 C 
BRANCH  16  17
ATOM     17  CD  GLU D 570     -21.743  -5.249 -13.702  1.00 32.92     0.185 C 
ATOM     18  OE1 GLU D 570     -22.171  -6.082 -14.524  1.00 32.92    -0.647 OA
ATOM     19  OE2 GLU D 570     -22.334  -4.180 -13.450  1.00 32.92    -0.647 OA
ENDBRANCH  16  17
ENDBRANCH  15  16
ENDBRANCH  14  15
END_RES GLU D 570
ENDMDL
MODEL 9
REMARK VINA RESULT:      -0.8      4.956      4.956
REMARK  4 active torsions:
REMARK  status: ('A' for Active; 'I' for Inactive)
REMARK    1  A    between atoms: C_9  and  C_12 
REMARK    2  A    between atoms: C_10  and  O_11 
REMARK    3  A    between atoms: C_16  and  S_27 
REMARK    4  A    between atoms: C_18  and  S_23 
ROOT
HETATM    1 NA   UNL     3     -29.376   2.311 -18.933  1.00  0.00     0.000 Na
ENDROOT
TORSDOF 4
BEGIN_RES ARG D 557
REMARK  4 active torsions:
REMARK  status: ('A' for Active; 'I' for Inactive)
REMARK    1  A    between atoms: CA   and  CB  
REMARK    2  A    between atoms: CB   and  CG  
REMARK    3  A    between atoms: CG   and  CD  
REMARK    4  A    between atoms: CD   and  NE  
REMARK       I    between atoms: NE   and  CZ  
REMARK       I    between atoms: CZ   and  NH1 
REMARK       I    between atoms: CZ   and  NH2 
ROOT
ATOM      1  CA  ARG D 557     -26.217   2.705 -17.014  1.00 35.49     0.159 C 
ENDROOT
BRANCH   1   2
ATOM      2  CB  ARG D 557     -26.789   1.319 -17.183  1.00 35.49     0.034 C 
BRANCH   2   3
ATOM      3  CG  ARG D 557     -25.834   0.204 -17.168  1.00 35.49     0.027 C 
BRANCH   3   4
ATOM      4  CD  ARG D 557     -24.747   0.406 -16.184  1.00 35.49     0.116 C 
BRANCH   4   5
ATOM      5  NE  ARG D 557     -24.897  -0.438 -15.027  1.00 35.49    -0.212 N 
ATOM      6  CZ  ARG D 557     -24.083  -1.406 -14.672  1.00 35.49     0.666 C 
ATOM      7  NH1 ARG D 557     -23.011  -1.725 -15.373  1.00 35.49    -0.235 N 
ATOM      8  NH2 ARG D 557     -24.364  -2.056 -13.579  1.00 35.49    -0.235 N 
ATOM      9  HH  ARG D 557     -22.806  -1.309 -16.094  1.00 35.49     0.174 HD
ATOM     10  HH  ARG D 557     -22.515  -2.364 -15.091  1.00 35.49     0.174 HD
ATOM     11  HH  ARG D 557     -25.059  -1.823 -13.143  1.00 35.49     0.174 HD
ATOM     12  HH  ARG D 557     -23.860  -2.684 -13.316  1.00 35.49     0.174 HD
ATOM     13  HE  ARG D 557     -25.601  -0.350 -14.558  1.00 35.49     0.178 HD
ENDBRANCH   4   5
ENDBRANCH   3   4
ENDBRANCH   2   3
ENDBRANCH   1   2
END_RES ARG D 557
BEGIN_RES GLU D 570
REMARK  3 active torsions:
REMARK  status: ('A' for Active; 'I' for Inactive)
REMARK    5  A    between atoms: CA   and  CB  
REMARK    6  A    between atoms: CB   and  CG  
REMARK    7  A    between atoms: CG   and  CD  
ROOT
ATOM     14  CA  GLU D 570     -18.033  -6.348 -13.375  1.00 32.92     0.160 C 
ENDROOT
BRANCH  14  15
ATOM     15  CB  GLU D 570     -19.500  -6.345 -13.794  1.00 32.92     0.043 C 
BRANCH  15  16
ATOM     16  CG  GLU D 570     -20.439  -5.519 -12.992  1.00 32.92     0.100 C 
BRANCH  16  17
ATOM     17  CD  GLU D 570     -21.745  -5.253 -13.704  1.00 32.92     0.185 C 
ATOM     18  OE1 GLU D 570     -22.201  -6.119 -14.475  1.00 32.92    -0.647 OA
ATOM     19  OE2 GLU D 570     -22.310  -4.160 -13.501  1.00 32.92    -0.647 OA
ENDBRANCH  16  17
ENDBRANCH  15  16
ENDBRANCH  14  15
END_RES GLU D 570
ENDMDL
