MODEL 1
REMARK VINA RESULT:      -7.2      0.000      0.000
REMARK  12 active torsions:
REMARK  status: ('A' for Active; 'I' for Inactive)
REMARK    1  A    between atoms: C_2  and  C_3 
REMARK    2  A    between atoms: C_3  and  C_4 
REMARK    3  A    between atoms: C_4  and  C_5 
REMARK    4  A    between atoms: C_5  and  C_6 
REMARK    5  A    between atoms: C_6  and  C_7 
REMARK    6  A    between atoms: C_7  and  C_8 
REMARK    7  A    between atoms: C_8  and  C_9 
REMARK    8  A    between atoms: C_9  and  C_10 
REMARK    9  A    between atoms: C_10  and  C_11 
REMARK       I    between atoms: C_11  and  N_13 
REMARK   10  A    between atoms: N_13  and  C_14 
REMARK   11  A    between atoms: C_14  and  C_15 
REMARK   12  A    between atoms: C_15  and  O_17 
ROOT
HETATM    1  C   UNL     1     -22.827  -3.562 -10.263  1.00  0.00     0.103 C 
ENDROOT
BRANCH   1   2
HETATM    2  C   UNL     1     -21.527  -3.670 -11.056  1.00  0.00     0.009 C 
BRANCH   2   3
HETATM    3  C   UNL     1     -20.412  -4.349 -10.266  1.00  0.00     0.000 C 
BRANCH   3   4
HETATM    4  C   UNL     1     -20.850  -4.584  -8.819  1.00  0.00     0.000 C 
BRANCH   4   5
HETATM    5  C   UNL     1     -19.688  -4.397  -7.846  1.00  0.00     0.000 C 
BRANCH   5   6
HETATM    6  C   UNL     1     -20.101  -4.758  -6.421  1.00  0.00     0.000 C 
BRANCH   6   7
HETATM    7  C   UNL     1     -21.517  -5.335  -6.389  1.00  0.00     0.004 C 
BRANCH   7   8
HETATM    8  C   UNL     1     -21.626  -6.460  -5.361  1.00  0.00     0.026 C 
BRANCH   8   9
HETATM    9  C   UNL     1     -21.211  -5.996  -3.995  1.00  0.00    -0.037 C 
HETATM   10  C   UNL     1     -21.826  -6.375  -2.867  1.00  0.00     0.007 C 
ENDBRANCH   8   9
ENDBRANCH   7   8
ENDBRANCH   6   7
ENDBRANCH   5   6
ENDBRANCH   4   5
ENDBRANCH   3   4
ENDBRANCH   2   3
ENDBRANCH   1   2
BRANCH   1  11
HETATM   11  C   UNL     1     -23.997  -3.268 -11.181  1.00  0.00     0.217 C 
HETATM   12  O   UNL     1     -25.165  -3.222 -10.810  1.00  0.00    -0.274 OA
HETATM   13  N   UNL     1     -23.643  -3.050 -12.489  1.00  0.00    -0.351 N 
HETATM   14  H   UNL     1     -22.673  -3.087 -12.789  1.00  0.00     0.163 HD
BRANCH  13  15
HETATM   15  C   UNL     1     -24.658  -2.756 -13.481  1.00  0.00     0.232 C 
BRANCH  15  16
HETATM   16  C   UNL     1     -24.131  -1.811 -14.548  1.00  0.00     0.158 C 
HETATM   17  O   UNL     1     -23.131  -2.024 -15.221  1.00  0.00    -0.649 OA
BRANCH  16  18
HETATM   18  O   UNL     1     -24.879  -0.693 -14.689  1.00  0.00    -0.775 OA
HETATM   19  H   UNL     1     -25.535  -0.556 -13.978  1.00  0.00     0.167 HD
ENDBRANCH  16  18
ENDBRANCH  15  16
ENDBRANCH  13  15
ENDBRANCH   1  11
TORSDOF 12
BEGIN_RES ARG D 557
REMARK  4 active torsions:
REMARK  status: ('A' for Active; 'I' for Inactive)
REMARK    1  A    between atoms: CA   and  CB  
REMARK    2  A    between atoms: CB   and  CG  
REMARK    3  A    between atoms: CG   and  CD  
REMARK    4  A    between atoms: CD   and  NE  
REMARK       I    between atoms: NE   and  CZ  
REMARK       I    between atoms: CZ   and  NH1 
REMARK       I    between atoms: CZ   and  NH2 
ROOT
ATOM      1  CA  ARG D 557     -26.217   2.705 -17.014  1.00 35.49     0.159 C 
ENDROOT
BRANCH   1   2
ATOM      2  CB  ARG D 557     -26.789   1.319 -17.183  1.00 35.49     0.034 C 
BRANCH   2   3
ATOM      3  CG  ARG D 557     -28.228   1.227 -17.460  1.00 35.49     0.027 C 
BRANCH   3   4
ATOM      4  CD  ARG D 557     -28.927   0.324 -16.518  1.00 35.49     0.116 C 
BRANCH   4   5
ATOM      5  NE  ARG D 557     -29.236  -0.949 -17.115  1.00 35.49    -0.212 N 
ATOM      6  CZ  ARG D 557     -28.541  -2.055 -16.968  1.00 35.49     0.666 C 
ATOM      7  NH1 ARG D 557     -27.440  -2.109 -16.241  1.00 35.49    -0.235 N 
ATOM      8  NH2 ARG D 557     -28.980  -3.124 -17.566  1.00 35.49    -0.235 N 
ATOM      9  HH  ARG D 557     -27.134  -1.419 -15.837  1.00 35.49     0.174 HD
ATOM     10  HH  ARG D 557     -27.030  -2.859 -16.179  1.00 35.49     0.174 HD
ATOM     11  HH  ARG D 557     -29.698  -3.060 -18.023  1.00 35.49     0.174 HD
ATOM     12  HH  ARG D 557     -28.561  -3.857 -17.491  1.00 35.49     0.174 HD
ATOM     13  HE  ARG D 557     -29.889  -0.987 -17.658  1.00 35.49     0.178 HD
ENDBRANCH   4   5
ENDBRANCH   3   4
ENDBRANCH   2   3
ENDBRANCH   1   2
END_RES ARG D 557
BEGIN_RES GLU D 570
REMARK  3 active torsions:
REMARK  status: ('A' for Active; 'I' for Inactive)
REMARK    5  A    between atoms: CA   and  CB  
REMARK    6  A    between atoms: CB   and  CG  
REMARK    7  A    between atoms: CG   and  CD  
ROOT
ATOM     14  CA  GLU D 570     -18.033  -6.348 -13.375  1.00 32.92     0.160 C 
ENDROOT
BRANCH  14  15
ATOM     15  CB  GLU D 570     -19.500  -6.345 -13.794  1.00 32.92     0.043 C 
BRANCH  15  16
ATOM     16  CG  GLU D 570     -19.811  -5.957 -15.194  1.00 32.92     0.100 C 
BRANCH  16  17
ATOM     17  CD  GLU D 570     -21.155  -5.280 -15.333  1.00 32.92     0.185 C 
ATOM     18  OE1 GLU D 570     -21.564  -4.975 -16.470  1.00 32.92    -0.647 OA
ATOM     19  OE2 GLU D 570     -21.798  -5.038 -14.293  1.00 32.92    -0.647 OA
ENDBRANCH  16  17
ENDBRANCH  15  16
ENDBRANCH  14  15
END_RES GLU D 570
ENDMDL
MODEL 2
REMARK VINA RESULT:      -7.1      2.446      3.253
REMARK  12 active torsions:
REMARK  status: ('A' for Active; 'I' for Inactive)
REMARK    1  A    between atoms: C_2  and  C_3 
REMARK    2  A    between atoms: C_3  and  C_4 
REMARK    3  A    between atoms: C_4  and  C_5 
REMARK    4  A    between atoms: C_5  and  C_6 
REMARK    5  A    between atoms: C_6  and  C_7 
REMARK    6  A    between atoms: C_7  and  C_8 
REMARK    7  A    between atoms: C_8  and  C_9 
REMARK    8  A    between atoms: C_9  and  C_10 
REMARK    9  A    between atoms: C_10  and  C_11 
REMARK       I    between atoms: C_11  and  N_13 
REMARK   10  A    between atoms: N_13  and  C_14 
REMARK   11  A    between atoms: C_14  and  C_15 
REMARK   12  A    between atoms: C_15  and  O_17 
ROOT
HETATM    1  C   UNL     1     -23.022  -4.862 -12.727  1.00  0.00     0.103 C 
ENDROOT
BRANCH   1   2
HETATM    2  C   UNL     1     -23.061  -3.383 -12.350  1.00  0.00     0.009 C 
BRANCH   2   3
HETATM    3  C   UNL     1     -21.809  -2.934 -11.601  1.00  0.00     0.000 C 
BRANCH   3   4
HETATM    4  C   UNL     1     -20.989  -4.148 -11.158  1.00  0.00     0.000 C 
BRANCH   4   5
HETATM    5  C   UNL     1     -20.835  -4.193  -9.640  1.00  0.00     0.000 C 
BRANCH   5   6
HETATM    6  C   UNL     1     -22.175  -3.965  -8.944  1.00  0.00     0.000 C 
BRANCH   6   7
HETATM    7  C   UNL     1     -22.093  -4.329  -7.461  1.00  0.00     0.004 C 
BRANCH   7   8
HETATM    8  C   UNL     1     -20.749  -3.907  -6.869  1.00  0.00     0.026 C 
BRANCH   8   9
HETATM    9  C   UNL     1     -20.233  -4.928  -5.897  1.00  0.00    -0.037 C 
HETATM   10  C   UNL     1     -21.028  -5.706  -5.152  1.00  0.00     0.007 C 
ENDBRANCH   8   9
ENDBRANCH   7   8
ENDBRANCH   6   7
ENDBRANCH   5   6
ENDBRANCH   4   5
ENDBRANCH   3   4
ENDBRANCH   2   3
ENDBRANCH   1   2
BRANCH   1  11
HETATM   11  C   UNL     1     -23.441  -5.063 -14.170  1.00  0.00     0.217 C 
HETATM   12  O   UNL     1     -23.444  -4.171 -15.013  1.00  0.00    -0.274 OA
HETATM   13  N   UNL     1     -23.825  -6.346 -14.470  1.00  0.00    -0.351 N 
HETATM   14  H   UNL     1     -23.817  -7.079 -13.767  1.00  0.00     0.163 HD
BRANCH  13  15
HETATM   15  C   UNL     1     -24.250  -6.686 -15.813  1.00  0.00     0.232 C 
BRANCH  15  16
HETATM   16  C   UNL     1     -25.748  -6.493 -15.985  1.00  0.00     0.158 C 
HETATM   17  O   UNL     1     -26.258  -5.518 -16.522  1.00  0.00    -0.649 OA
BRANCH  16  18
HETATM   18  O   UNL     1     -26.479  -7.513 -15.481  1.00  0.00    -0.775 OA
HETATM   19  H   UNL     1     -26.964  -7.293 -14.662  1.00  0.00     0.167 HD
ENDBRANCH  16  18
ENDBRANCH  15  16
ENDBRANCH  13  15
ENDBRANCH   1  11
TORSDOF 12
BEGIN_RES ARG D 557
REMARK  4 active torsions:
REMARK  status: ('A' for Active; 'I' for Inactive)
REMARK    1  A    between atoms: CA   and  CB  
REMARK    2  A    between atoms: CB   and  CG  
REMARK    3  A    between atoms: CG   and  CD  
REMARK    4  A    between atoms: CD   and  NE  
REMARK       I    between atoms: NE   and  CZ  
REMARK       I    between atoms: CZ   and  NH1 
REMARK       I    between atoms: CZ   and  NH2 
ROOT
ATOM      1  CA  ARG D 557     -26.217   2.705 -17.014  1.00 35.49     0.159 C 
ENDROOT
BRANCH   1   2
ATOM      2  CB  ARG D 557     -26.789   1.319 -17.183  1.00 35.49     0.034 C 
BRANCH   2   3
ATOM      3  CG  ARG D 557     -28.218   1.154 -16.890  1.00 35.49     0.027 C 
BRANCH   3   4
ATOM      4  CD  ARG D 557     -28.572  -0.250 -16.580  1.00 35.49     0.116 C 
BRANCH   4   5
ATOM      5  NE  ARG D 557     -27.513  -0.935 -15.886  1.00 35.49    -0.212 N 
ATOM      6  CZ  ARG D 557     -27.259  -2.223 -15.952  1.00 35.49     0.666 C 
ATOM      7  NH1 ARG D 557     -27.985  -3.053 -16.678  1.00 35.49    -0.235 N 
ATOM      8  NH2 ARG D 557     -26.244  -2.670 -15.271  1.00 35.49    -0.235 N 
ATOM      9  HH  ARG D 557     -28.656  -2.780 -17.135  1.00 35.49     0.174 HD
ATOM     10  HH  ARG D 557     -27.770  -3.882 -16.685  1.00 35.49     0.174 HD
ATOM     11  HH  ARG D 557     -25.789  -2.110 -14.817  1.00 35.49     0.174 HD
ATOM     12  HH  ARG D 557     -26.046  -3.495 -15.292  1.00 35.49     0.174 HD
ATOM     13  HE  ARG D 557     -27.041  -0.489 -15.338  1.00 35.49     0.178 HD
ENDBRANCH   4   5
ENDBRANCH   3   4
ENDBRANCH   2   3
ENDBRANCH   1   2
END_RES ARG D 557
BEGIN_RES GLU D 570
REMARK  3 active torsions:
REMARK  status: ('A' for Active; 'I' for Inactive)
REMARK    5  A    between atoms: CA   and  CB  
REMARK    6  A    between atoms: CB   and  CG  
REMARK    7  A    between atoms: CG   and  CD  
ROOT
ATOM     14  CA  GLU D 570     -18.033  -6.348 -13.375  1.00 32.92     0.160 C 
ENDROOT
BRANCH  14  15
ATOM     15  CB  GLU D 570     -19.500  -6.345 -13.794  1.00 32.92     0.043 C 
BRANCH  15  16
ATOM     16  CG  GLU D 570     -20.091  -7.638 -14.227  1.00 32.92     0.100 C 
BRANCH  16  17
ATOM     17  CD  GLU D 570     -20.637  -7.594 -15.635  1.00 32.92     0.185 C 
ATOM     18  OE1 GLU D 570     -20.887  -6.489 -16.153  1.00 32.92    -0.647 OA
ATOM     19  OE2 GLU D 570     -20.833  -8.678 -16.219  1.00 32.92    -0.647 OA
ENDBRANCH  16  17
ENDBRANCH  15  16
ENDBRANCH  14  15
END_RES GLU D 570
ENDMDL
MODEL 3
REMARK VINA RESULT:      -7.0      7.497     11.164
REMARK  12 active torsions:
REMARK  status: ('A' for Active; 'I' for Inactive)
REMARK    1  A    between atoms: C_2  and  C_3 
REMARK    2  A    between atoms: C_3  and  C_4 
REMARK    3  A    between atoms: C_4  and  C_5 
REMARK    4  A    between atoms: C_5  and  C_6 
REMARK    5  A    between atoms: C_6  and  C_7 
REMARK    6  A    between atoms: C_7  and  C_8 
REMARK    7  A    between atoms: C_8  and  C_9 
REMARK    8  A    between atoms: C_9  and  C_10 
REMARK    9  A    between atoms: C_10  and  C_11 
REMARK       I    between atoms: C_11  and  N_13 
REMARK   10  A    between atoms: N_13  and  C_14 
REMARK   11  A    between atoms: C_14  and  C_15 
REMARK   12  A    between atoms: C_15  and  O_17 
ROOT
HETATM    1  C   UNL     1     -36.155   0.075 -11.878  1.00  0.00     0.103 C 
ENDROOT
BRANCH   1   2
HETATM    2  C   UNL     1     -37.028  -0.698 -10.892  1.00  0.00     0.009 C 
BRANCH   2   3
HETATM    3  C   UNL     1     -36.243  -1.744 -10.106  1.00  0.00     0.000 C 
BRANCH   3   4
HETATM    4  C   UNL     1     -35.305  -2.516 -11.037  1.00  0.00     0.000 C 
BRANCH   4   5
HETATM    5  C   UNL     1     -33.846  -2.363 -10.613  1.00  0.00     0.000 C 
BRANCH   5   6
HETATM    6  C   UNL     1     -32.948  -3.341 -11.368  1.00  0.00     0.000 C 
BRANCH   6   7
HETATM    7  C   UNL     1     -33.755  -4.523 -11.907  1.00  0.00     0.004 C 
BRANCH   7   8
HETATM    8  C   UNL     1     -33.490  -5.784 -11.087  1.00  0.00     0.026 C 
BRANCH   8   9
HETATM    9  C   UNL     1     -34.746  -6.289 -10.437  1.00  0.00    -0.037 C 
HETATM   10  C   UNL     1     -34.803  -7.416  -9.716  1.00  0.00     0.007 C 
ENDBRANCH   8   9
ENDBRANCH   7   8
ENDBRANCH   6   7
ENDBRANCH   5   6
ENDBRANCH   4   5
ENDBRANCH   3   4
ENDBRANCH   2   3
ENDBRANCH   1   2
BRANCH   1  11
HETATM   11  C   UNL     1     -36.713  -0.021 -13.284  1.00  0.00     0.217 C 
HETATM   12  O   UNL     1     -37.714  -0.665 -13.581  1.00  0.00    -0.274 OA
HETATM   13  N   UNL     1     -35.998   0.682 -14.221  1.00  0.00    -0.351 N 
HETATM   14  H   UNL     1     -35.171   1.215 -13.966  1.00  0.00     0.163 HD
BRANCH  13  15
HETATM   15  C   UNL     1     -36.415   0.682 -15.609  1.00  0.00     0.232 C 
BRANCH  15  16
HETATM   16  C   UNL     1     -35.877  -0.530 -16.349  1.00  0.00     0.158 C 
HETATM   17  O   UNL     1     -34.861  -1.134 -16.030  1.00  0.00    -0.649 OA
BRANCH  16  18
HETATM   18  O   UNL     1     -36.634  -0.890 -17.410  1.00  0.00    -0.775 OA
HETATM   19  H   UNL     1     -37.029  -0.139 -17.894  1.00  0.00     0.167 HD
ENDBRANCH  16  18
ENDBRANCH  15  16
ENDBRANCH  13  15
ENDBRANCH   1  11
TORSDOF 12
BEGIN_RES ARG D 557
REMARK  4 active torsions:
REMARK  status: ('A' for Active; 'I' for Inactive)
REMARK    1  A    between atoms: CA   and  CB  
REMARK    2  A    between atoms: CB   and  CG  
REMARK    3  A    between atoms: CG   and  CD  
REMARK    4  A    between atoms: CD   and  NE  
REMARK       I    between atoms: NE   and  CZ  
REMARK       I    between atoms: CZ   and  NH1 
REMARK       I    between atoms: CZ   and  NH2 
ROOT
ATOM      1  CA  ARG D 557     -26.217   2.705 -17.014  1.00 35.49     0.159 C 
ENDROOT
BRANCH   1   2
ATOM      2  CB  ARG D 557     -26.789   1.319 -17.183  1.00 35.49     0.034 C 
BRANCH   2   3
ATOM      3  CG  ARG D 557     -25.837   0.202 -17.148  1.00 35.49     0.027 C 
BRANCH   3   4
ATOM      4  CD  ARG D 557     -24.755   0.414 -16.158  1.00 35.49     0.116 C 
BRANCH   4   5
ATOM      5  NE  ARG D 557     -24.893  -0.446 -15.012  1.00 35.49    -0.212 N 
ATOM      6  CZ  ARG D 557     -24.069  -1.413 -14.675  1.00 35.49     0.666 C 
ATOM      7  NH1 ARG D 557     -22.999  -1.714 -15.387  1.00 35.49    -0.235 N 
ATOM      8  NH2 ARG D 557     -24.338  -2.078 -13.589  1.00 35.49    -0.235 N 
ATOM      9  HH  ARG D 557     -22.802  -1.288 -16.104  1.00 35.49     0.174 HD
ATOM     10  HH  ARG D 557     -22.497  -2.353 -15.116  1.00 35.49     0.174 HD
ATOM     11  HH  ARG D 557     -25.032  -1.857 -13.145  1.00 35.49     0.174 HD
ATOM     12  HH  ARG D 557     -23.828  -2.707 -13.337  1.00 35.49     0.174 HD
ATOM     13  HE  ARG D 557     -25.594  -0.369 -14.537  1.00 35.49     0.178 HD
ENDBRANCH   4   5
ENDBRANCH   3   4
ENDBRANCH   2   3
ENDBRANCH   1   2
END_RES ARG D 557
BEGIN_RES GLU D 570
REMARK  3 active torsions:
REMARK  status: ('A' for Active; 'I' for Inactive)
REMARK    5  A    between atoms: CA   and  CB  
REMARK    6  A    between atoms: CB   and  CG  
REMARK    7  A    between atoms: CG   and  CD  
ROOT
ATOM     14  CA  GLU D 570     -18.033  -6.348 -13.375  1.00 32.92     0.160 C 
ENDROOT
BRANCH  14  15
ATOM     15  CB  GLU D 570     -19.500  -6.345 -13.794  1.00 32.92     0.043 C 
BRANCH  15  16
ATOM     16  CG  GLU D 570     -20.440  -5.522 -12.990  1.00 32.92     0.100 C 
BRANCH  16  17
ATOM     17  CD  GLU D 570     -21.704  -5.169 -13.739  1.00 32.92     0.185 C 
ATOM     18  OE1 GLU D 570     -22.081  -5.906 -14.670  1.00 32.92    -0.647 OA
ATOM     19  OE2 GLU D 570     -22.314  -4.136 -13.402  1.00 32.92    -0.647 OA
ENDBRANCH  16  17
ENDBRANCH  15  16
ENDBRANCH  14  15
END_RES GLU D 570
ENDMDL
MODEL 4
REMARK VINA RESULT:      -6.9      7.444     10.754
REMARK  12 active torsions:
REMARK  status: ('A' for Active; 'I' for Inactive)
REMARK    1  A    between atoms: C_2  and  C_3 
REMARK    2  A    between atoms: C_3  and  C_4 
REMARK    3  A    between atoms: C_4  and  C_5 
REMARK    4  A    between atoms: C_5  and  C_6 
REMARK    5  A    between atoms: C_6  and  C_7 
REMARK    6  A    between atoms: C_7  and  C_8 
REMARK    7  A    between atoms: C_8  and  C_9 
REMARK    8  A    between atoms: C_9  and  C_10 
REMARK    9  A    between atoms: C_10  and  C_11 
REMARK       I    between atoms: C_11  and  N_13 
REMARK   10  A    between atoms: N_13  and  C_14 
REMARK   11  A    between atoms: C_14  and  C_15 
REMARK   12  A    between atoms: C_15  and  O_17 
ROOT
HETATM    1  C   UNL     1     -35.984  -0.088 -11.638  1.00  0.00     0.103 C 
ENDROOT
BRANCH   1   2
HETATM    2  C   UNL     1     -36.192  -1.313 -10.750  1.00  0.00     0.009 C 
BRANCH   2   3
HETATM    3  C   UNL     1     -35.336  -2.502 -11.179  1.00  0.00     0.000 C 
BRANCH   3   4
HETATM    4  C   UNL     1     -33.896  -2.324 -10.692  1.00  0.00     0.000 C 
BRANCH   4   5
HETATM    5  C   UNL     1     -32.952  -3.316 -11.369  1.00  0.00     0.000 C 
BRANCH   5   6
HETATM    6  C   UNL     1     -33.721  -4.508 -11.935  1.00  0.00     0.000 C 
BRANCH   6   7
HETATM    7  C   UNL     1     -33.461  -5.770 -11.112  1.00  0.00     0.004 C 
BRANCH   7   8
HETATM    8  C   UNL     1     -34.634  -6.063 -10.176  1.00  0.00     0.026 C 
BRANCH   8   9
HETATM    9  C   UNL     1     -34.937  -7.532 -10.121  1.00  0.00    -0.037 C 
HETATM   10  C   UNL     1     -34.003  -8.472  -9.926  1.00  0.00     0.007 C 
ENDBRANCH   8   9
ENDBRANCH   7   8
ENDBRANCH   6   7
ENDBRANCH   5   6
ENDBRANCH   4   5
ENDBRANCH   3   4
ENDBRANCH   2   3
ENDBRANCH   1   2
BRANCH   1  11
HETATM   11  C   UNL     1     -36.725  -0.242 -12.952  1.00  0.00     0.217 C 
HETATM   12  O   UNL     1     -37.807  -0.809 -13.066  1.00  0.00    -0.274 OA
HETATM   13  N   UNL     1     -36.081   0.316 -14.028  1.00  0.00    -0.351 N 
HETATM   14  H   UNL     1     -35.187   0.787 -13.925  1.00  0.00     0.163 HD
BRANCH  13  15
HETATM   15  C   UNL     1     -36.673   0.247 -15.349  1.00  0.00     0.232 C 
BRANCH  15  16
HETATM   16  C   UNL     1     -36.001  -0.816 -16.202  1.00  0.00     0.158 C 
HETATM   17  O   UNL     1     -35.222  -1.655 -15.766  1.00  0.00    -0.649 OA
BRANCH  16  18
HETATM   18  O   UNL     1     -36.345  -0.751 -17.508  1.00  0.00    -0.775 OA
HETATM   19  H   UNL     1     -36.474  -1.621 -17.933  1.00  0.00     0.167 HD
ENDBRANCH  16  18
ENDBRANCH  15  16
ENDBRANCH  13  15
ENDBRANCH   1  11
TORSDOF 12
BEGIN_RES ARG D 557
REMARK  4 active torsions:
REMARK  status: ('A' for Active; 'I' for Inactive)
REMARK    1  A    between atoms: CA   and  CB  
REMARK    2  A    between atoms: CB   and  CG  
REMARK    3  A    between atoms: CG   and  CD  
REMARK    4  A    between atoms: CD   and  NE  
REMARK       I    between atoms: NE   and  CZ  
REMARK       I    between atoms: CZ   and  NH1 
REMARK       I    between atoms: CZ   and  NH2 
ROOT
ATOM      1  CA  ARG D 557     -26.217   2.705 -17.014  1.00 35.49     0.159 C 
ENDROOT
BRANCH   1   2
ATOM      2  CB  ARG D 557     -26.789   1.319 -17.183  1.00 35.49     0.034 C 
BRANCH   2   3
ATOM      3  CG  ARG D 557     -28.078   1.052 -16.532  1.00 35.49     0.027 C 
BRANCH   3   4
ATOM      4  CD  ARG D 557     -28.788  -0.097 -17.138  1.00 35.49     0.116 C 
BRANCH   4   5
ATOM      5  NE  ARG D 557     -28.199  -1.356 -16.766  1.00 35.49    -0.212 N 
ATOM      6  CZ  ARG D 557     -28.706  -2.544 -17.009  1.00 35.49     0.666 C 
ATOM      7  NH1 ARG D 557     -29.859  -2.708 -17.632  1.00 35.49    -0.235 N 
ATOM      8  NH2 ARG D 557     -28.024  -3.580 -16.618  1.00 35.49    -0.235 N 
ATOM      9  HH  ARG D 557     -30.324  -2.041 -17.900  1.00 35.49     0.174 HD
ATOM     10  HH  ARG D 557     -30.139  -3.507 -17.765  1.00 35.49     0.174 HD
ATOM     11  HH  ARG D 557     -27.279  -3.444 -16.225  1.00 35.49     0.174 HD
ATOM     12  HH  ARG D 557     -28.317  -4.363 -16.761  1.00 35.49     0.174 HD
ATOM     13  HE  ARG D 557     -27.490  -1.342 -16.296  1.00 35.49     0.178 HD
ENDBRANCH   4   5
ENDBRANCH   3   4
ENDBRANCH   2   3
ENDBRANCH   1   2
END_RES ARG D 557
BEGIN_RES GLU D 570
REMARK  3 active torsions:
REMARK  status: ('A' for Active; 'I' for Inactive)
REMARK    5  A    between atoms: CA   and  CB  
REMARK    6  A    between atoms: CB   and  CG  
REMARK    7  A    between atoms: CG   and  CD  
ROOT
ATOM     14  CA  GLU D 570     -18.033  -6.348 -13.375  1.00 32.92     0.160 C 
ENDROOT
BRANCH  14  15
ATOM     15  CB  GLU D 570     -19.500  -6.345 -13.794  1.00 32.92     0.043 C 
BRANCH  15  16
ATOM     16  CG  GLU D 570     -19.813  -5.939 -15.189  1.00 32.92     0.100 C 
BRANCH  16  17
ATOM     17  CD  GLU D 570     -21.262  -5.557 -15.380  1.00 32.92     0.185 C 
ATOM     18  OE1 GLU D 570     -21.601  -4.977 -16.430  1.00 32.92    -0.647 OA
ATOM     19  OE2 GLU D 570     -22.063  -5.825 -14.464  1.00 32.92    -0.647 OA
ENDBRANCH  16  17
ENDBRANCH  15  16
ENDBRANCH  14  15
END_RES GLU D 570
ENDMDL
MODEL 5
REMARK VINA RESULT:      -6.9      2.373      4.063
REMARK  12 active torsions:
REMARK  status: ('A' for Active; 'I' for Inactive)
REMARK    1  A    between atoms: C_2  and  C_3 
REMARK    2  A    between atoms: C_3  and  C_4 
REMARK    3  A    between atoms: C_4  and  C_5 
REMARK    4  A    between atoms: C_5  and  C_6 
REMARK    5  A    between atoms: C_6  and  C_7 
REMARK    6  A    between atoms: C_7  and  C_8 
REMARK    7  A    between atoms: C_8  and  C_9 
REMARK    8  A    between atoms: C_9  and  C_10 
REMARK    9  A    between atoms: C_10  and  C_11 
REMARK       I    between atoms: C_11  and  N_13 
REMARK   10  A    between atoms: N_13  and  C_14 
REMARK   11  A    between atoms: C_14  and  C_15 
REMARK   12  A    between atoms: C_15  and  O_17 
ROOT
HETATM    1  C   UNL     1     -21.031  -3.558  -7.439  1.00  0.00     0.103 C 
ENDROOT
BRANCH   1   2
HETATM    2  C   UNL     1     -20.036  -4.692  -7.206  1.00  0.00     0.009 C 
BRANCH   2   3
HETATM    3  C   UNL     1     -20.157  -5.303  -5.813  1.00  0.00     0.000 C 
BRANCH   3   4
HETATM    4  C   UNL     1     -20.783  -6.697  -5.895  1.00  0.00     0.000 C 
BRANCH   4   5
HETATM    5  C   UNL     1     -20.636  -7.453  -4.576  1.00  0.00     0.000 C 
BRANCH   5   6
HETATM    6  C   UNL     1     -21.705  -7.022  -3.573  1.00  0.00     0.000 C 
BRANCH   6   7
HETATM    7  C   UNL     1     -21.208  -7.187  -2.136  1.00  0.00     0.004 C 
BRANCH   7   8
HETATM    8  C   UNL     1     -22.266  -6.723  -1.136  1.00  0.00     0.026 C 
BRANCH   8   9
HETATM    9  C   UNL     1     -22.648  -7.826  -0.192  1.00  0.00    -0.037 C 
HETATM   10  C   UNL     1     -22.063  -8.015   0.998  1.00  0.00     0.007 C 
ENDBRANCH   8   9
ENDBRANCH   7   8
ENDBRANCH   6   7
ENDBRANCH   5   6
ENDBRANCH   4   5
ENDBRANCH   3   4
ENDBRANCH   2   3
ENDBRANCH   1   2
BRANCH   1  11
HETATM   11  C   UNL     1     -22.360  -4.098  -7.931  1.00  0.00     0.217 C 
HETATM   12  O   UNL     1     -23.263  -4.473  -7.191  1.00  0.00    -0.274 OA
HETATM   13  N   UNL     1     -22.479  -4.135  -9.298  1.00  0.00    -0.351 N 
HETATM   14  H   UNL     1     -21.728  -3.820  -9.904  1.00  0.00     0.163 HD
BRANCH  13  15
HETATM   15  C   UNL     1     -23.697  -4.627  -9.911  1.00  0.00     0.232 C 
BRANCH  15  16
HETATM   16  C   UNL     1     -24.666  -3.494 -10.203  1.00  0.00     0.158 C 
HETATM   17  O   UNL     1     -25.042  -3.184 -11.327  1.00  0.00    -0.649 OA
BRANCH  16  18
HETATM   18  O   UNL     1     -25.083  -2.847  -9.092  1.00  0.00    -0.775 OA
HETATM   19  H   UNL     1     -24.367  -2.416  -8.585  1.00  0.00     0.167 HD
ENDBRANCH  16  18
ENDBRANCH  15  16
ENDBRANCH  13  15
ENDBRANCH   1  11
TORSDOF 12
BEGIN_RES ARG D 557
REMARK  4 active torsions:
REMARK  status: ('A' for Active; 'I' for Inactive)
REMARK    1  A    between atoms: CA   and  CB  
REMARK    2  A    between atoms: CB   and  CG  
REMARK    3  A    between atoms: CG   and  CD  
REMARK    4  A    between atoms: CD   and  NE  
REMARK       I    between atoms: NE   and  CZ  
REMARK       I    between atoms: CZ   and  NH1 
REMARK       I    between atoms: CZ   and  NH2 
ROOT
ATOM      1  CA  ARG D 557     -26.217   2.705 -17.014  1.00 35.49     0.159 C 
ENDROOT
BRANCH   1   2
ATOM      2  CB  ARG D 557     -26.789   1.319 -17.183  1.00 35.49     0.034 C 
BRANCH   2   3
ATOM      3  CG  ARG D 557     -25.849   0.198 -17.067  1.00 35.49     0.027 C 
BRANCH   3   4
ATOM      4  CD  ARG D 557     -26.197  -0.719 -15.957  1.00 35.49     0.116 C 
BRANCH   4   5
ATOM      5  NE  ARG D 557     -25.137  -0.826 -14.990  1.00 35.49    -0.212 N 
ATOM      6  CZ  ARG D 557     -24.792  -1.919 -14.347  1.00 35.49     0.666 C 
ATOM      7  NH1 ARG D 557     -25.415  -3.070 -14.519  1.00 35.49    -0.235 N 
ATOM      8  NH2 ARG D 557     -23.791  -1.837 -13.519  1.00 35.49    -0.235 N 
ATOM      9  HH  ARG D 557     -26.074  -3.147 -15.060  1.00 35.49     0.174 HD
ATOM     10  HH  ARG D 557     -25.143  -3.750 -14.074  1.00 35.49     0.174 HD
ATOM     11  HH  ARG D 557     -23.403  -1.082 -13.433  1.00 35.49     0.174 HD
ATOM     12  HH  ARG D 557     -23.536  -2.522 -13.089  1.00 35.49     0.174 HD
ATOM     13  HE  ARG D 557     -24.730  -0.114 -14.763  1.00 35.49     0.178 HD
ENDBRANCH   4   5
ENDBRANCH   3   4
ENDBRANCH   2   3
ENDBRANCH   1   2
END_RES ARG D 557
BEGIN_RES GLU D 570
REMARK  3 active torsions:
REMARK  status: ('A' for Active; 'I' for Inactive)
REMARK    5  A    between atoms: CA   and  CB  
REMARK    6  A    between atoms: CB   and  CG  
REMARK    7  A    between atoms: CG   and  CD  
ROOT
ATOM     14  CA  GLU D 570     -18.033  -6.348 -13.375  1.00 32.92     0.160 C 
ENDROOT
BRANCH  14  15
ATOM     15  CB  GLU D 570     -19.500  -6.345 -13.794  1.00 32.92     0.043 C 
BRANCH  15  16
ATOM     16  CG  GLU D 570     -20.463  -5.636 -12.912  1.00 32.92     0.100 C 
BRANCH  16  17
ATOM     17  CD  GLU D 570     -21.760  -5.296 -13.607  1.00 32.92     0.185 C 
ATOM     18  OE1 GLU D 570     -22.269  -6.130 -14.381  1.00 32.92    -0.647 OA
ATOM     19  OE2 GLU D 570     -22.264  -4.176 -13.390  1.00 32.92    -0.647 OA
ENDBRANCH  16  17
ENDBRANCH  15  16
ENDBRANCH  14  15
END_RES GLU D 570
ENDMDL
MODEL 6
REMARK VINA RESULT:      -6.6      3.094      4.538
REMARK  12 active torsions:
REMARK  status: ('A' for Active; 'I' for Inactive)
REMARK    1  A    between atoms: C_2  and  C_3 
REMARK    2  A    between atoms: C_3  and  C_4 
REMARK    3  A    between atoms: C_4  and  C_5 
REMARK    4  A    between atoms: C_5  and  C_6 
REMARK    5  A    between atoms: C_6  and  C_7 
REMARK    6  A    between atoms: C_7  and  C_8 
REMARK    7  A    between atoms: C_8  and  C_9 
REMARK    8  A    between atoms: C_9  and  C_10 
REMARK    9  A    between atoms: C_10  and  C_11 
REMARK       I    between atoms: C_11  and  N_13 
REMARK   10  A    between atoms: N_13  and  C_14 
REMARK   11  A    between atoms: C_14  and  C_15 
REMARK   12  A    between atoms: C_15  and  O_17 
ROOT
HETATM    1  C   UNL     1     -23.746  -6.238 -14.223  1.00  0.00     0.103 C 
ENDROOT
BRANCH   1   2
HETATM    2  C   UNL     1     -23.235  -4.810 -14.403  1.00  0.00     0.009 C 
BRANCH   2   3
HETATM    3  C   UNL     1     -22.511  -4.285 -13.166  1.00  0.00     0.000 C 
BRANCH   3   4
HETATM    4  C   UNL     1     -23.137  -2.968 -12.701  1.00  0.00     0.000 C 
BRANCH   4   5
HETATM    5  C   UNL     1     -24.166  -3.198 -11.596  1.00  0.00     0.000 C 
BRANCH   5   6
HETATM    6  C   UNL     1     -23.807  -4.424 -10.758  1.00  0.00     0.000 C 
BRANCH   6   7
HETATM    7  C   UNL     1     -23.392  -4.019  -9.343  1.00  0.00     0.004 C 
BRANCH   7   8
HETATM    8  C   UNL     1     -22.057  -4.658  -8.961  1.00  0.00     0.026 C 
BRANCH   8   9
HETATM    9  C   UNL     1     -20.910  -3.995  -9.667  1.00  0.00    -0.037 C 
HETATM   10  C   UNL     1     -20.087  -4.637 -10.505  1.00  0.00     0.007 C 
ENDBRANCH   8   9
ENDBRANCH   7   8
ENDBRANCH   6   7
ENDBRANCH   5   6
ENDBRANCH   4   5
ENDBRANCH   3   4
ENDBRANCH   2   3
ENDBRANCH   1   2
BRANCH   1  11
HETATM   11  C   UNL     1     -24.654  -6.635 -15.370  1.00  0.00     0.217 C 
HETATM   12  O   UNL     1     -24.522  -7.664 -16.024  1.00  0.00    -0.274 OA
HETATM   13  N   UNL     1     -25.659  -5.736 -15.626  1.00  0.00    -0.351 N 
HETATM   14  H   UNL     1     -25.764  -4.887 -15.079  1.00  0.00     0.163 HD
BRANCH  13  15
HETATM   15  C   UNL     1     -26.606  -5.985 -16.695  1.00  0.00     0.232 C 
BRANCH  15  16
HETATM   16  C   UNL     1     -28.005  -6.222 -16.151  1.00  0.00     0.158 C 
HETATM   17  O   UNL     1     -28.644  -7.253 -16.323  1.00  0.00    -0.649 OA
BRANCH  16  18
HETATM   18  O   UNL     1     -28.490  -5.174 -15.447  1.00  0.00    -0.775 OA
HETATM   19  H   UNL     1     -29.288  -5.378 -14.922  1.00  0.00     0.167 HD
ENDBRANCH  16  18
ENDBRANCH  15  16
ENDBRANCH  13  15
ENDBRANCH   1  11
TORSDOF 12
BEGIN_RES ARG D 557
REMARK  4 active torsions:
REMARK  status: ('A' for Active; 'I' for Inactive)
REMARK    1  A    between atoms: CA   and  CB  
REMARK    2  A    between atoms: CB   and  CG  
REMARK    3  A    between atoms: CG   and  CD  
REMARK    4  A    between atoms: CD   and  NE  
REMARK       I    between atoms: NE   and  CZ  
REMARK       I    between atoms: CZ   and  NH1 
REMARK       I    between atoms: CZ   and  NH2 
ROOT
ATOM      1  CA  ARG D 557     -26.217   2.705 -17.014  1.00 35.49     0.159 C 
ENDROOT
BRANCH   1   2
ATOM      2  CB  ARG D 557     -26.789   1.319 -17.183  1.00 35.49     0.034 C 
BRANCH   2   3
ATOM      3  CG  ARG D 557     -28.239   1.223 -17.388  1.00 35.49     0.027 C 
BRANCH   3   4
ATOM      4  CD  ARG D 557     -28.877   0.257 -16.465  1.00 35.49     0.116 C 
BRANCH   4   5
ATOM      5  NE  ARG D 557     -29.277  -0.952 -17.137  1.00 35.49    -0.212 N 
ATOM      6  CZ  ARG D 557     -28.675  -2.117 -17.045  1.00 35.49     0.666 C 
ATOM      7  NH1 ARG D 557     -27.594  -2.300 -16.311  1.00 35.49    -0.235 N 
ATOM      8  NH2 ARG D 557     -29.189  -3.111 -17.708  1.00 35.49    -0.235 N 
ATOM      9  HH  ARG D 557     -27.240  -1.660 -15.865  1.00 35.49     0.174 HD
ATOM     10  HH  ARG D 557     -27.246  -3.083 -16.288  1.00 35.49     0.174 HD
ATOM     11  HH  ARG D 557     -29.893  -2.965 -18.168  1.00 35.49     0.174 HD
ATOM     12  HH  ARG D 557     -28.831  -3.879 -17.671  1.00 35.49     0.174 HD
ATOM     13  HE  ARG D 557     -29.923  -0.907 -17.688  1.00 35.49     0.178 HD
ENDBRANCH   4   5
ENDBRANCH   3   4
ENDBRANCH   2   3
ENDBRANCH   1   2
END_RES ARG D 557
BEGIN_RES GLU D 570
REMARK  3 active torsions:
REMARK  status: ('A' for Active; 'I' for Inactive)
REMARK    5  A    between atoms: CA   and  CB  
REMARK    6  A    between atoms: CB   and  CG  
REMARK    7  A    between atoms: CG   and  CD  
ROOT
ATOM     14  CA  GLU D 570     -18.033  -6.348 -13.375  1.00 32.92     0.160 C 
ENDROOT
BRANCH  14  15
ATOM     15  CB  GLU D 570     -19.500  -6.345 -13.794  1.00 32.92     0.043 C 
BRANCH  15  16
ATOM     16  CG  GLU D 570     -20.088  -7.635 -14.238  1.00 32.92     0.100 C 
BRANCH  16  17
ATOM     17  CD  GLU D 570     -20.699  -7.561 -15.618  1.00 32.92     0.185 C 
ATOM     18  OE1 GLU D 570     -21.249  -8.574 -16.092  1.00 32.92    -0.647 OA
ATOM     19  OE2 GLU D 570     -20.614  -6.482 -16.238  1.00 32.92    -0.647 OA
ENDBRANCH  16  17
ENDBRANCH  15  16
ENDBRANCH  14  15
END_RES GLU D 570
ENDMDL
MODEL 7
REMARK VINA RESULT:      -6.5      2.000      3.448
REMARK  12 active torsions:
REMARK  status: ('A' for Active; 'I' for Inactive)
REMARK    1  A    between atoms: C_2  and  C_3 
REMARK    2  A    between atoms: C_3  and  C_4 
REMARK    3  A    between atoms: C_4  and  C_5 
REMARK    4  A    between atoms: C_5  and  C_6 
REMARK    5  A    between atoms: C_6  and  C_7 
REMARK    6  A    between atoms: C_7  and  C_8 
REMARK    7  A    between atoms: C_8  and  C_9 
REMARK    8  A    between atoms: C_9  and  C_10 
REMARK    9  A    between atoms: C_10  and  C_11 
REMARK       I    between atoms: C_11  and  N_13 
REMARK   10  A    between atoms: N_13  and  C_14 
REMARK   11  A    between atoms: C_14  and  C_15 
REMARK   12  A    between atoms: C_15  and  O_17 
ROOT
HETATM    1  C   UNL     1     -20.117  -4.117  -8.238  1.00  0.00     0.103 C 
ENDROOT
BRANCH   1   2
HETATM    2  C   UNL     1     -20.867  -3.986  -6.914  1.00  0.00     0.009 C 
BRANCH   2   3
HETATM    3  C   UNL     1     -20.239  -4.816  -5.798  1.00  0.00     0.000 C 
BRANCH   3   4
HETATM    4  C   UNL     1     -20.546  -6.301  -6.001  1.00  0.00     0.000 C 
BRANCH   4   5
HETATM    5  C   UNL     1     -21.868  -6.693  -5.344  1.00  0.00     0.000 C 
BRANCH   5   6
HETATM    6  C   UNL     1     -21.673  -7.848  -4.363  1.00  0.00     0.000 C 
BRANCH   6   7
HETATM    7  C   UNL     1     -20.963  -7.376  -3.094  1.00  0.00     0.004 C 
BRANCH   7   8
HETATM    8  C   UNL     1     -21.720  -6.219  -2.442  1.00  0.00     0.026 C 
BRANCH   8   9
HETATM    9  C   UNL     1     -22.380  -6.648  -1.164  1.00  0.00    -0.037 C 
HETATM   10  C   UNL     1     -21.967  -7.690  -0.432  1.00  0.00     0.007 C 
ENDBRANCH   8   9
ENDBRANCH   7   8
ENDBRANCH   6   7
ENDBRANCH   5   6
ENDBRANCH   4   5
ENDBRANCH   3   4
ENDBRANCH   2   3
ENDBRANCH   1   2
BRANCH   1  11
HETATM   11  C   UNL     1     -21.077  -4.072  -9.410  1.00  0.00     0.217 C 
HETATM   12  O   UNL     1     -20.838  -3.501 -10.469  1.00  0.00    -0.274 OA
HETATM   13  N   UNL     1     -22.260  -4.733  -9.192  1.00  0.00    -0.351 N 
HETATM   14  H   UNL     1     -22.449  -5.205  -8.314  1.00  0.00     0.163 HD
BRANCH  13  15
HETATM   15  C   UNL     1     -23.274  -4.774 -10.227  1.00  0.00     0.232 C 
BRANCH  15  16
HETATM   16  C   UNL     1     -24.336  -3.710 -10.004  1.00  0.00     0.158 C 
HETATM   17  O   UNL     1     -24.993  -3.197 -10.900  1.00  0.00    -0.649 OA
BRANCH  16  18
HETATM   18  O   UNL     1     -24.491  -3.375  -8.703  1.00  0.00    -0.775 OA
HETATM   19  H   UNL     1     -25.300  -3.735  -8.289  1.00  0.00     0.167 HD
ENDBRANCH  16  18
ENDBRANCH  15  16
ENDBRANCH  13  15
ENDBRANCH   1  11
TORSDOF 12
BEGIN_RES ARG D 557
REMARK  4 active torsions:
REMARK  status: ('A' for Active; 'I' for Inactive)
REMARK    1  A    between atoms: CA   and  CB  
REMARK    2  A    between atoms: CB   and  CG  
REMARK    3  A    between atoms: CG   and  CD  
REMARK    4  A    between atoms: CD   and  NE  
REMARK       I    between atoms: NE   and  CZ  
REMARK       I    between atoms: CZ   and  NH1 
REMARK       I    between atoms: CZ   and  NH2 
ROOT
ATOM      1  CA  ARG D 557     -26.217   2.705 -17.014  1.00 35.49     0.159 C 
ENDROOT
BRANCH   1   2
ATOM      2  CB  ARG D 557     -26.789   1.319 -17.183  1.00 35.49     0.034 C 
BRANCH   2   3
ATOM      3  CG  ARG D 557     -28.224   1.228 -17.478  1.00 35.49     0.027 C 
BRANCH   3   4
ATOM      4  CD  ARG D 557     -28.915   0.238 -16.621  1.00 35.49     0.116 C 
BRANCH   4   5
ATOM      5  NE  ARG D 557     -28.036  -0.819 -16.196  1.00 35.49    -0.212 N 
ATOM      6  CZ  ARG D 557     -28.108  -2.076 -16.573  1.00 35.49     0.666 C 
ATOM      7  NH1 ARG D 557     -29.039  -2.516 -17.399  1.00 35.49    -0.235 N 
ATOM      8  NH2 ARG D 557     -27.213  -2.896 -16.104  1.00 35.49    -0.235 N 
ATOM      9  HH  ARG D 557     -29.637  -1.994 -17.721  1.00 35.49     0.174 HD
ATOM     10  HH  ARG D 557     -29.035  -3.346 -17.611  1.00 35.49     0.174 HD
ATOM     11  HH  ARG D 557     -26.619  -2.582 -15.578  1.00 35.49     0.174 HD
ATOM     12  HH  ARG D 557     -27.225  -3.714 -16.327  1.00 35.49     0.174 HD
ATOM     13  HE  ARG D 557     -27.450  -0.639 -15.606  1.00 35.49     0.178 HD
ENDBRANCH   4   5
ENDBRANCH   3   4
ENDBRANCH   2   3
ENDBRANCH   1   2
END_RES ARG D 557
BEGIN_RES GLU D 570
REMARK  3 active torsions:
REMARK  status: ('A' for Active; 'I' for Inactive)
REMARK    5  A    between atoms: CA   and  CB  
REMARK    6  A    between atoms: CB   and  CG  
REMARK    7  A    between atoms: CG   and  CD  
ROOT
ATOM     14  CA  GLU D 570     -18.033  -6.348 -13.375  1.00 32.92     0.160 C 
ENDROOT
BRANCH  14  15
ATOM     15  CB  GLU D 570     -19.500  -6.345 -13.794  1.00 32.92     0.043 C 
BRANCH  15  16
ATOM     16  CG  GLU D 570     -20.441  -5.527 -12.986  1.00 32.92     0.100 C 
BRANCH  16  17
ATOM     17  CD  GLU D 570     -21.727  -5.215 -13.716  1.00 32.92     0.185 C 
ATOM     18  OE1 GLU D 570     -22.319  -4.147 -13.470  1.00 32.92    -0.647 OA
ATOM     19  OE2 GLU D 570     -22.156  -6.057 -14.529  1.00 32.92    -0.647 OA
ENDBRANCH  16  17
ENDBRANCH  15  16
ENDBRANCH  14  15
END_RES GLU D 570
ENDMDL
MODEL 8
REMARK VINA RESULT:      -6.2      3.565      5.825
REMARK  12 active torsions:
REMARK  status: ('A' for Active; 'I' for Inactive)
REMARK    1  A    between atoms: C_2  and  C_3 
REMARK    2  A    between atoms: C_3  and  C_4 
REMARK    3  A    between atoms: C_4  and  C_5 
REMARK    4  A    between atoms: C_5  and  C_6 
REMARK    5  A    between atoms: C_6  and  C_7 
REMARK    6  A    between atoms: C_7  and  C_8 
REMARK    7  A    between atoms: C_8  and  C_9 
REMARK    8  A    between atoms: C_9  and  C_10 
REMARK    9  A    between atoms: C_10  and  C_11 
REMARK       I    between atoms: C_11  and  N_13 
REMARK   10  A    between atoms: N_13  and  C_14 
REMARK   11  A    between atoms: C_14  and  C_15 
REMARK   12  A    between atoms: C_15  and  O_17 
ROOT
HETATM    1  C   UNL     1     -24.056  -7.241 -16.466  1.00  0.00     0.103 C 
ENDROOT
BRANCH   1   2
HETATM    2  C   UNL     1     -24.609  -6.446 -15.286  1.00  0.00     0.009 C 
BRANCH   2   3
HETATM    3  C   UNL     1     -23.565  -6.201 -14.201  1.00  0.00     0.000 C 
BRANCH   3   4
HETATM    4  C   UNL     1     -22.959  -4.804 -14.349  1.00  0.00     0.000 C 
BRANCH   4   5
HETATM    5  C   UNL     1     -23.517  -3.839 -13.305  1.00  0.00     0.000 C 
BRANCH   5   6
HETATM    6  C   UNL     1     -23.328  -4.389 -11.893  1.00  0.00     0.000 C 
BRANCH   6   7
HETATM    7  C   UNL     1     -21.861  -4.322 -11.469  1.00  0.00     0.004 C 
BRANCH   7   8
HETATM    8  C   UNL     1     -21.730  -4.345  -9.947  1.00  0.00     0.026 C 
BRANCH   8   9
HETATM    9  C   UNL     1     -20.308  -4.135  -9.516  1.00  0.00    -0.037 C 
HETATM   10  C   UNL     1     -19.928  -4.057  -8.234  1.00  0.00     0.007 C 
ENDBRANCH   8   9
ENDBRANCH   7   8
ENDBRANCH   6   7
ENDBRANCH   5   6
ENDBRANCH   4   5
ENDBRANCH   3   4
ENDBRANCH   2   3
ENDBRANCH   1   2
BRANCH   1  11
HETATM   11  C   UNL     1     -24.826  -6.931 -17.735  1.00  0.00     0.217 C 
HETATM   12  O   UNL     1     -25.841  -6.244 -17.769  1.00  0.00    -0.274 OA
HETATM   13  N   UNL     1     -24.288  -7.488 -18.868  1.00  0.00    -0.351 N 
HETATM   14  H   UNL     1     -23.446  -8.054 -18.832  1.00  0.00     0.163 HD
BRANCH  13  15
HETATM   15  C   UNL     1     -24.918  -7.275 -20.156  1.00  0.00     0.232 C 
BRANCH  15  16
HETATM   16  C   UNL     1     -24.216  -8.060 -21.252  1.00  0.00     0.158 C 
HETATM   17  O   UNL     1     -24.545  -8.037 -22.431  1.00  0.00    -0.649 OA
BRANCH  16  18
HETATM   18  O   UNL     1     -23.178  -8.798 -20.799  1.00  0.00    -0.775 OA
HETATM   19  H   UNL     1     -22.343  -8.657 -21.285  1.00  0.00     0.167 HD
ENDBRANCH  16  18
ENDBRANCH  15  16
ENDBRANCH  13  15
ENDBRANCH   1  11
TORSDOF 12
BEGIN_RES ARG D 557
REMARK  4 active torsions:
REMARK  status: ('A' for Active; 'I' for Inactive)
REMARK    1  A    between atoms: CA   and  CB  
REMARK    2  A    between atoms: CB   and  CG  
REMARK    3  A    between atoms: CG   and  CD  
REMARK    4  A    between atoms: CD   and  NE  
REMARK       I    between atoms: NE   and  CZ  
REMARK       I    between atoms: CZ   and  NH1 
REMARK       I    between atoms: CZ   and  NH2 
ROOT
ATOM      1  CA  ARG D 557     -26.217   2.705 -17.014  1.00 35.49     0.159 C 
ENDROOT
BRANCH   1   2
ATOM      2  CB  ARG D 557     -26.789   1.319 -17.183  1.00 35.49     0.034 C 
BRANCH   2   3
ATOM      3  CG  ARG D 557     -28.231   1.226 -17.442  1.00 35.49     0.027 C 
BRANCH   3   4
ATOM      4  CD  ARG D 557     -28.914   0.306 -16.505  1.00 35.49     0.116 C 
BRANCH   4   5
ATOM      5  NE  ARG D 557     -29.304  -0.925 -17.141  1.00 35.49    -0.212 N 
ATOM      6  CZ  ARG D 557     -28.676  -2.075 -17.037  1.00 35.49     0.666 C 
ATOM      7  NH1 ARG D 557     -27.575  -2.221 -16.324  1.00 35.49    -0.235 N 
ATOM      8  NH2 ARG D 557     -29.183  -3.095 -17.667  1.00 35.49    -0.235 N 
ATOM      9  HH  ARG D 557     -27.225  -1.564 -15.899  1.00 35.49     0.174 HD
ATOM     10  HH  ARG D 557     -27.210  -2.995 -16.291  1.00 35.49     0.174 HD
ATOM     11  HH  ARG D 557     -29.899  -2.973 -18.114  1.00 35.49     0.174 HD
ATOM     12  HH  ARG D 557     -28.809  -3.854 -17.621  1.00 35.49     0.174 HD
ATOM     13  HE  ARG D 557     -29.962  -0.906 -17.679  1.00 35.49     0.178 HD
ENDBRANCH   4   5
ENDBRANCH   3   4
ENDBRANCH   2   3
ENDBRANCH   1   2
END_RES ARG D 557
BEGIN_RES GLU D 570
REMARK  3 active torsions:
REMARK  status: ('A' for Active; 'I' for Inactive)
REMARK    5  A    between atoms: CA   and  CB  
REMARK    6  A    between atoms: CB   and  CG  
REMARK    7  A    between atoms: CG   and  CD  
ROOT
ATOM     14  CA  GLU D 570     -18.033  -6.348 -13.375  1.00 32.92     0.160 C 
ENDROOT
BRANCH  14  15
ATOM     15  CB  GLU D 570     -19.500  -6.345 -13.794  1.00 32.92     0.043 C 
BRANCH  15  16
ATOM     16  CG  GLU D 570     -20.094  -7.640 -14.216  1.00 32.92     0.100 C 
BRANCH  16  17
ATOM     17  CD  GLU D 570     -20.492  -7.658 -15.673  1.00 32.92     0.185 C 
ATOM     18  OE1 GLU D 570     -20.588  -6.579 -16.288  1.00 32.92    -0.647 OA
ATOM     19  OE2 GLU D 570     -20.727  -8.763 -16.201  1.00 32.92    -0.647 OA
ENDBRANCH  16  17
ENDBRANCH  15  16
ENDBRANCH  14  15
END_RES GLU D 570
ENDMDL
MODEL 9
REMARK VINA RESULT:      -6.0      1.847      2.995
REMARK  12 active torsions:
REMARK  status: ('A' for Active; 'I' for Inactive)
REMARK    1  A    between atoms: C_2  and  C_3 
REMARK    2  A    between atoms: C_3  and  C_4 
REMARK    3  A    between atoms: C_4  and  C_5 
REMARK    4  A    between atoms: C_5  and  C_6 
REMARK    5  A    between atoms: C_6  and  C_7 
REMARK    6  A    between atoms: C_7  and  C_8 
REMARK    7  A    between atoms: C_8  and  C_9 
REMARK    8  A    between atoms: C_9  and  C_10 
REMARK    9  A    between atoms: C_10  and  C_11 
REMARK       I    between atoms: C_11  and  N_13 
REMARK   10  A    between atoms: N_13  and  C_14 
REMARK   11  A    between atoms: C_14  and  C_15 
REMARK   12  A    between atoms: C_15  and  O_17 
ROOT
HETATM    1  C   UNL     1     -24.058  -2.666 -12.815  1.00  0.00     0.103 C 
ENDROOT
BRANCH   1   2
HETATM    2  C   UNL     1     -24.309  -3.299 -11.448  1.00  0.00     0.009 C 
BRANCH   2   3
HETATM    3  C   UNL     1     -23.031  -3.455 -10.629  1.00  0.00     0.000 C 
BRANCH   3   4
HETATM    4  C   UNL     1     -21.843  -2.842 -11.374  1.00  0.00     0.000 C 
BRANCH   4   5
HETATM    5  C   UNL     1     -20.534  -3.069 -10.620  1.00  0.00     0.000 C 
BRANCH   5   6
HETATM    6  C   UNL     1     -20.623  -4.303  -9.724  1.00  0.00     0.000 C 
BRANCH   6   7
HETATM    7  C   UNL     1     -20.064  -4.011  -8.331  1.00  0.00     0.004 C 
BRANCH   7   8
HETATM    8  C   UNL     1     -21.192  -3.751  -7.333  1.00  0.00     0.026 C 
BRANCH   8   9
HETATM    9  C   UNL     1     -21.370  -4.908  -6.394  1.00  0.00    -0.037 C 
HETATM   10  C   UNL     1     -20.498  -5.215  -5.426  1.00  0.00     0.007 C 
ENDBRANCH   8   9
ENDBRANCH   7   8
ENDBRANCH   6   7
ENDBRANCH   5   6
ENDBRANCH   4   5
ENDBRANCH   3   4
ENDBRANCH   2   3
ENDBRANCH   1   2
BRANCH   1  11
HETATM   11  C   UNL     1     -25.111  -3.103 -13.814  1.00  0.00     0.217 C 
HETATM   12  O   UNL     1     -26.081  -2.422 -14.129  1.00  0.00    -0.274 OA
HETATM   13  N   UNL     1     -24.891  -4.346 -14.353  1.00  0.00    -0.351 N 
HETATM   14  H   UNL     1     -24.084  -4.903 -14.089  1.00  0.00     0.163 HD
BRANCH  13  15
HETATM   15  C   UNL     1     -25.817  -4.895 -15.325  1.00  0.00     0.232 C 
BRANCH  15  16
HETATM   16  C   UNL     1     -25.375  -6.271 -15.794  1.00  0.00     0.158 C 
HETATM   17  O   UNL     1     -25.121  -7.204 -15.042  1.00  0.00    -0.649 OA
BRANCH  16  18
HETATM   18  O   UNL     1     -25.286  -6.374 -17.139  1.00  0.00    -0.775 OA
HETATM   19  H   UNL     1     -26.007  -6.888 -17.551  1.00  0.00     0.167 HD
ENDBRANCH  16  18
ENDBRANCH  15  16
ENDBRANCH  13  15
ENDBRANCH   1  11
TORSDOF 12
BEGIN_RES ARG D 557
REMARK  4 active torsions:
REMARK  status: ('A' for Active; 'I' for Inactive)
REMARK    1  A    between atoms: CA   and  CB  
REMARK    2  A    between atoms: CB   and  CG  
REMARK    3  A    between atoms: CG   and  CD  
REMARK    4  A    between atoms: CD   and  NE  
REMARK       I    between atoms: NE   and  CZ  
REMARK       I    between atoms: CZ   and  NH1 
REMARK       I    between atoms: CZ   and  NH2 
ROOT
ATOM      1  CA  ARG D 557     -26.217   2.705 -17.014  1.00 35.49     0.159 C 
ENDROOT
BRANCH   1   2
ATOM      2  CB  ARG D 557     -26.789   1.319 -17.183  1.00 35.49     0.034 C 
BRANCH   2   3
ATOM      3  CG  ARG D 557     -28.239   1.224 -17.391  1.00 35.49     0.027 C 
BRANCH   3   4
ATOM      4  CD  ARG D 557     -28.882   0.274 -16.454  1.00 35.49     0.116 C 
BRANCH   4   5
ATOM      5  NE  ARG D 557     -29.360  -0.908 -17.123  1.00 35.49    -0.212 N 
ATOM      6  CZ  ARG D 557     -28.788  -2.091 -17.093  1.00 35.49     0.666 C 
ATOM      7  NH1 ARG D 557     -27.668  -2.321 -16.434  1.00 35.49    -0.235 N 
ATOM      8  NH2 ARG D 557     -29.373  -3.056 -17.741  1.00 35.49    -0.235 N 
ATOM      9  HH  ARG D 557     -27.267  -1.701 -15.999  1.00 35.49     0.174 HD
ATOM     10  HH  ARG D 557     -27.343  -3.113 -16.449  1.00 35.49     0.174 HD
ATOM     11  HH  ARG D 557     -30.100  -2.880 -18.152  1.00 35.49     0.174 HD
ATOM     12  HH  ARG D 557     -29.036  -3.834 -17.742  1.00 35.49     0.174 HD
ATOM     13  HE  ARG D 557     -30.038  -0.833 -17.630  1.00 35.49     0.178 HD
ENDBRANCH   4   5
ENDBRANCH   3   4
ENDBRANCH   2   3
ENDBRANCH   1   2
END_RES ARG D 557
BEGIN_RES GLU D 570
REMARK  3 active torsions:
REMARK  status: ('A' for Active; 'I' for Inactive)
REMARK    5  A    between atoms: CA   and  CB  
REMARK    6  A    between atoms: CB   and  CG  
REMARK    7  A    between atoms: CG   and  CD  
ROOT
ATOM     14  CA  GLU D 570     -18.033  -6.348 -13.375  1.00 32.92     0.160 C 
ENDROOT
BRANCH  14  15
ATOM     15  CB  GLU D 570     -19.500  -6.345 -13.794  1.00 32.92     0.043 C 
BRANCH  15  16
ATOM     16  CG  GLU D 570     -20.407  -5.390 -13.106  1.00 32.92     0.100 C 
BRANCH  16  17
ATOM     17  CD  GLU D 570     -21.746  -5.250 -13.791  1.00 32.92     0.185 C 
ATOM     18  OE1 GLU D 570     -22.730  -5.856 -13.326  1.00 32.92    -0.647 OA
ATOM     19  OE2 GLU D 570     -21.807  -4.540 -14.814  1.00 32.92    -0.647 OA
ENDBRANCH  16  17
ENDBRANCH  15  16
ENDBRANCH  14  15
END_RES GLU D 570
ENDMDL
