MODEL 1
REMARK VINA RESULT:      -8.4      0.000      0.000
REMARK  7 active torsions:
REMARK  status: ('A' for Active; 'I' for Inactive)
REMARK    1  A    between atoms: C_3  and  C_4 
REMARK    2  A    between atoms: C_4  and  C_5 
REMARK    3  A    between atoms: C_5  and  C_6 
REMARK    4  A    between atoms: C_6  and  C_8 
REMARK    5  A    between atoms: C_6  and  C_10 
REMARK    6  A    between atoms: C_11  and  C_12 
REMARK    7  A    between atoms: C_15  and  O_18 
ROOT
HETATM    1  C   UNL     1     -20.994  -5.978  -5.117  1.00  0.00    -0.009 C 
HETATM    2  C   UNL     1     -20.054  -4.840  -4.667  1.00  0.00     0.024 C 
ENDROOT
BRANCH   1   3
HETATM    3  C   UNL     1     -21.944  -6.378  -3.936  1.00  0.00     0.021 C 
BRANCH   3   4
HETATM    4  C   UNL     1     -21.439  -5.998  -2.533  1.00  0.00     0.028 C 
BRANCH   4   5
HETATM    5  C   UNL     1     -22.295  -6.504  -1.406  1.00  0.00    -0.025 C 
HETATM    6  C   UNL     1     -22.085  -7.625  -0.688  1.00  0.00    -0.091 C 
HETATM    7  C   UNL     1     -20.863  -8.492  -0.788  1.00  0.00     0.042 C 
HETATM    8  C   UNL     1     -23.135  -8.099   0.283  1.00  0.00     0.042 C 
ENDBRANCH   4   5
ENDBRANCH   3   4
ENDBRANCH   1   3
BRANCH   1   9
HETATM    9  C   UNL     1     -20.223  -7.245  -5.513  1.00  0.00    -0.024 C 
HETATM   10  C   UNL     1     -20.373  -8.491  -5.042  1.00  0.00     0.008 C 
ENDBRANCH   1   9
BRANCH   1  11
HETATM   11  C   UNL     1     -21.806  -5.469  -6.312  1.00  0.00    -0.013 C 
HETATM   12  C   UNL     1     -21.418  -4.547  -7.210  1.00  0.00     0.008 C 
BRANCH  12  13
HETATM   13  C   UNL     1     -22.275  -4.170  -8.332  1.00  0.00    -0.036 A 
HETATM   14  C   UNL     1     -21.723  -3.816  -9.567  1.00  0.00     0.014 A 
HETATM   15  C   UNL     1     -22.559  -3.474 -10.636  1.00  0.00     0.037 A 
HETATM   16  C   UNL     1     -23.939  -3.483 -10.458  1.00  0.00     0.065 A 
HETATM   17  C   UNL     1     -24.497  -3.816  -9.230  1.00  0.00     0.037 A 
HETATM   18  C   UNL     1     -23.664  -4.160  -8.165  1.00  0.00     0.014 A 
BRANCH  16  19
HETATM   19  O   UNL     1     -24.790  -3.166 -11.474  1.00  0.00    -0.361 OA
HETATM   20  H   UNL     1     -25.283  -3.964 -11.726  1.00  0.00     0.217 HD
ENDBRANCH  16  19
ENDBRANCH  12  13
ENDBRANCH   1  11
TORSDOF 7
BEGIN_RES ARG D 557
REMARK  4 active torsions:
REMARK  status: ('A' for Active; 'I' for Inactive)
REMARK    1  A    between atoms: CA   and  CB  
REMARK    2  A    between atoms: CB   and  CG  
REMARK    3  A    between atoms: CG   and  CD  
REMARK    4  A    between atoms: CD   and  NE  
REMARK       I    between atoms: NE   and  CZ  
REMARK       I    between atoms: CZ   and  NH1 
REMARK       I    between atoms: CZ   and  NH2 
ROOT
ATOM      1  CA  ARG D 557     -26.217   2.705 -17.014  1.00 35.49     0.159 C 
ENDROOT
BRANCH   1   2
ATOM      2  CB  ARG D 557     -26.789   1.319 -17.183  1.00 35.49     0.034 C 
BRANCH   2   3
ATOM      3  CG  ARG D 557     -25.857   0.196 -17.023  1.00 35.49     0.027 C 
BRANCH   3   4
ATOM      4  CD  ARG D 557     -26.144  -0.607 -15.813  1.00 35.49     0.116 C 
BRANCH   4   5
ATOM      5  NE  ARG D 557     -24.984  -0.759 -14.975  1.00 35.49    -0.212 N 
ATOM      6  CZ  ARG D 557     -24.566  -1.884 -14.439  1.00 35.49     0.666 C 
ATOM      7  NH1 ARG D 557     -25.200  -3.029 -14.608  1.00 35.49    -0.235 N 
ATOM      8  NH2 ARG D 557     -23.479  -1.840 -13.723  1.00 35.49    -0.235 N 
ATOM      9  HH  ARG D 557     -25.915  -3.082 -15.077  1.00 35.49     0.174 HD
ATOM     10  HH  ARG D 557     -24.878  -3.731 -14.236  1.00 35.49     0.174 HD
ATOM     11  HH  ARG D 557     -23.087  -1.088 -13.637  1.00 35.49     0.174 HD
ATOM     12  HH  ARG D 557     -23.177  -2.546 -13.364  1.00 35.49     0.174 HD
ATOM     13  HE  ARG D 557     -24.556  -0.058 -14.754  1.00 35.49     0.178 HD
ENDBRANCH   4   5
ENDBRANCH   3   4
ENDBRANCH   2   3
ENDBRANCH   1   2
END_RES ARG D 557
BEGIN_RES GLU D 570
REMARK  3 active torsions:
REMARK  status: ('A' for Active; 'I' for Inactive)
REMARK    5  A    between atoms: CA   and  CB  
REMARK    6  A    between atoms: CB   and  CG  
REMARK    7  A    between atoms: CG   and  CD  
ROOT
ATOM     14  CA  GLU D 570     -18.033  -6.348 -13.375  1.00 32.92     0.160 C 
ENDROOT
BRANCH  14  15
ATOM     15  CB  GLU D 570     -19.500  -6.345 -13.794  1.00 32.92     0.043 C 
BRANCH  15  16
ATOM     16  CG  GLU D 570     -20.411  -5.406 -13.090  1.00 32.92     0.100 C 
BRANCH  16  17
ATOM     17  CD  GLU D 570     -21.607  -5.009 -13.924  1.00 32.92     0.185 C 
ATOM     18  OE1 GLU D 570     -22.695  -4.793 -13.357  1.00 32.92    -0.647 OA
ATOM     19  OE2 GLU D 570     -21.458  -4.929 -15.159  1.00 32.92    -0.647 OA
ENDBRANCH  16  17
ENDBRANCH  15  16
ENDBRANCH  14  15
END_RES GLU D 570
ENDMDL
MODEL 2
REMARK VINA RESULT:      -8.1      2.038      2.579
REMARK  7 active torsions:
REMARK  status: ('A' for Active; 'I' for Inactive)
REMARK    1  A    between atoms: C_3  and  C_4 
REMARK    2  A    between atoms: C_4  and  C_5 
REMARK    3  A    between atoms: C_5  and  C_6 
REMARK    4  A    between atoms: C_6  and  C_8 
REMARK    5  A    between atoms: C_6  and  C_10 
REMARK    6  A    between atoms: C_11  and  C_12 
REMARK    7  A    between atoms: C_15  and  O_18 
ROOT
HETATM    1  C   UNL     1     -21.057  -5.946  -5.342  1.00  0.00    -0.009 C 
HETATM    2  C   UNL     1     -20.050  -4.850  -4.930  1.00  0.00     0.024 C 
ENDROOT
BRANCH   1   3
HETATM    3  C   UNL     1     -22.011  -6.266  -4.140  1.00  0.00     0.021 C 
BRANCH   3   4
HETATM    4  C   UNL     1     -21.454  -5.911  -2.751  1.00  0.00     0.028 C 
BRANCH   4   5
HETATM    5  C   UNL     1     -22.266  -6.440  -1.601  1.00  0.00    -0.025 C 
HETATM    6  C   UNL     1     -22.010  -7.559  -0.895  1.00  0.00    -0.091 C 
HETATM    7  C   UNL     1     -20.772  -8.397  -1.034  1.00  0.00     0.042 C 
HETATM    8  C   UNL     1     -23.021  -8.060   0.104  1.00  0.00     0.042 C 
ENDBRANCH   4   5
ENDBRANCH   3   4
ENDBRANCH   1   3
BRANCH   1   9
HETATM    9  C   UNL     1     -20.362  -7.261  -5.718  1.00  0.00    -0.024 C 
HETATM   10  C   UNL     1     -20.554  -8.482  -5.198  1.00  0.00     0.008 C 
ENDBRANCH   1   9
BRANCH   1  11
HETATM   11  C   UNL     1     -21.857  -5.420  -6.538  1.00  0.00    -0.013 C 
HETATM   12  C   UNL     1     -21.413  -4.585  -7.493  1.00  0.00     0.008 C 
BRANCH  12  13
HETATM   13  C   UNL     1     -22.268  -4.183  -8.609  1.00  0.00    -0.036 A 
HETATM   14  C   UNL     1     -23.642  -3.998  -8.428  1.00  0.00     0.014 A 
HETATM   15  C   UNL     1     -24.442  -3.596  -9.503  1.00  0.00     0.037 A 
HETATM   16  C   UNL     1     -23.862  -3.391 -10.751  1.00  0.00     0.065 A 
HETATM   17  C   UNL     1     -22.501  -3.589 -10.946  1.00  0.00     0.037 A 
HETATM   18  C   UNL     1     -21.702  -3.987  -9.874  1.00  0.00     0.014 A 
BRANCH  16  19
HETATM   19  O   UNL     1     -24.603  -2.991 -11.824  1.00  0.00    -0.361 OA
HETATM   20  H   UNL     1     -25.541  -2.995 -11.571  1.00  0.00     0.217 HD
ENDBRANCH  16  19
ENDBRANCH  12  13
ENDBRANCH   1  11
TORSDOF 7
BEGIN_RES ARG D 557
REMARK  4 active torsions:
REMARK  status: ('A' for Active; 'I' for Inactive)
REMARK    1  A    between atoms: CA   and  CB  
REMARK    2  A    between atoms: CB   and  CG  
REMARK    3  A    between atoms: CG   and  CD  
REMARK    4  A    between atoms: CD   and  NE  
REMARK       I    between atoms: NE   and  CZ  
REMARK       I    between atoms: CZ   and  NH1 
REMARK       I    between atoms: CZ   and  NH2 
ROOT
ATOM      1  CA  ARG D 557     -26.217   2.705 -17.014  1.00 35.49     0.159 C 
ENDROOT
BRANCH   1   2
ATOM      2  CB  ARG D 557     -26.789   1.319 -17.183  1.00 35.49     0.034 C 
BRANCH   2   3
ATOM      3  CG  ARG D 557     -28.237   1.225 -17.408  1.00 35.49     0.027 C 
BRANCH   3   4
ATOM      4  CD  ARG D 557     -28.894   0.289 -16.466  1.00 35.49     0.116 C 
BRANCH   4   5
ATOM      5  NE  ARG D 557     -29.300  -0.932 -17.110  1.00 35.49    -0.212 N 
ATOM      6  CZ  ARG D 557     -28.678  -2.087 -17.029  1.00 35.49     0.666 C 
ATOM      7  NH1 ARG D 557     -27.566  -2.246 -16.335  1.00 35.49    -0.235 N 
ATOM      8  NH2 ARG D 557     -29.201  -3.096 -17.662  1.00 35.49    -0.235 N 
ATOM      9  HH  ARG D 557     -27.206  -1.596 -15.909  1.00 35.49     0.174 HD
ATOM     10  HH  ARG D 557     -27.206  -3.023 -16.316  1.00 35.49     0.174 HD
ATOM     11  HH  ARG D 557     -29.923  -2.965 -18.097  1.00 35.49     0.174 HD
ATOM     12  HH  ARG D 557     -28.830  -3.858 -17.631  1.00 35.49     0.174 HD
ATOM     13  HE  ARG D 557     -29.967  -0.903 -17.638  1.00 35.49     0.178 HD
ENDBRANCH   4   5
ENDBRANCH   3   4
ENDBRANCH   2   3
ENDBRANCH   1   2
END_RES ARG D 557
BEGIN_RES GLU D 570
REMARK  3 active torsions:
REMARK  status: ('A' for Active; 'I' for Inactive)
REMARK    5  A    between atoms: CA   and  CB  
REMARK    6  A    between atoms: CB   and  CG  
REMARK    7  A    between atoms: CG   and  CD  
ROOT
ATOM     14  CA  GLU D 570     -18.033  -6.348 -13.375  1.00 32.92     0.160 C 
ENDROOT
BRANCH  14  15
ATOM     15  CB  GLU D 570     -19.500  -6.345 -13.794  1.00 32.92     0.043 C 
BRANCH  15  16
ATOM     16  CG  GLU D 570     -20.088  -7.635 -14.238  1.00 32.92     0.100 C 
BRANCH  16  17
ATOM     17  CD  GLU D 570     -20.676  -7.567 -15.628  1.00 32.92     0.185 C 
ATOM     18  OE1 GLU D 570     -20.638  -6.488 -16.250  1.00 32.92    -0.647 OA
ATOM     19  OE2 GLU D 570     -21.197  -8.600 -16.094  1.00 32.92    -0.647 OA
ENDBRANCH  16  17
ENDBRANCH  15  16
ENDBRANCH  14  15
END_RES GLU D 570
ENDMDL
MODEL 3
REMARK VINA RESULT:      -7.9      1.261      1.951
REMARK  7 active torsions:
REMARK  status: ('A' for Active; 'I' for Inactive)
REMARK    1  A    between atoms: C_3  and  C_4 
REMARK    2  A    between atoms: C_4  and  C_5 
REMARK    3  A    between atoms: C_5  and  C_6 
REMARK    4  A    between atoms: C_6  and  C_8 
REMARK    5  A    between atoms: C_6  and  C_10 
REMARK    6  A    between atoms: C_11  and  C_12 
REMARK    7  A    between atoms: C_15  and  O_18 
ROOT
HETATM    1  C   UNL     1     -20.802  -7.966  -4.449  1.00  0.00    -0.009 C 
HETATM    2  C   UNL     1     -19.403  -8.590  -4.648  1.00  0.00     0.024 C 
ENDROOT
BRANCH   1   3
HETATM    3  C   UNL     1     -20.802  -7.066  -3.165  1.00  0.00     0.021 C 
BRANCH   3   4
HETATM    4  C   UNL     1     -20.539  -7.811  -1.845  1.00  0.00     0.028 C 
BRANCH   4   5
HETATM    5  C   UNL     1     -21.590  -7.599  -0.791  1.00  0.00    -0.025 C 
HETATM    6  C   UNL     1     -22.299  -8.562  -0.169  1.00  0.00    -0.091 C 
HETATM    7  C   UNL     1     -22.052 -10.036  -0.311  1.00  0.00     0.042 C 
HETATM    8  C   UNL     1     -23.450  -8.183   0.726  1.00  0.00     0.042 C 
ENDBRANCH   4   5
ENDBRANCH   3   4
ENDBRANCH   1   3
BRANCH   1   9
HETATM    9  C   UNL     1     -21.887  -9.031  -4.242  1.00  0.00    -0.024 C 
HETATM   10  C   UNL     1     -21.741 -10.360  -4.145  1.00  0.00     0.008 C 
ENDBRANCH   1   9
BRANCH   1  11
HETATM   11  C   UNL     1     -21.122  -7.131  -5.692  1.00  0.00    -0.013 C 
HETATM   12  C   UNL     1     -20.674  -5.893  -5.963  1.00  0.00     0.008 C 
BRANCH  12  13
HETATM   13  C   UNL     1     -21.026  -5.212  -7.208  1.00  0.00    -0.036 A 
HETATM   14  C   UNL     1     -20.090  -5.075  -8.238  1.00  0.00     0.014 A 
HETATM   15  C   UNL     1     -20.448  -4.436  -9.429  1.00  0.00     0.037 A 
HETATM   16  C   UNL     1     -21.737  -3.933  -9.577  1.00  0.00     0.065 A 
HETATM   17  C   UNL     1     -22.669  -4.048  -8.554  1.00  0.00     0.037 A 
HETATM   18  C   UNL     1     -22.313  -4.688  -7.366  1.00  0.00     0.014 A 
BRANCH  16  19
HETATM   19  O   UNL     1     -22.132  -3.310 -10.724  1.00  0.00    -0.361 OA
HETATM   20  H   UNL     1     -22.349  -2.386 -10.516  1.00  0.00     0.217 HD
ENDBRANCH  16  19
ENDBRANCH  12  13
ENDBRANCH   1  11
TORSDOF 7
BEGIN_RES ARG D 557
REMARK  4 active torsions:
REMARK  status: ('A' for Active; 'I' for Inactive)
REMARK    1  A    between atoms: CA   and  CB  
REMARK    2  A    between atoms: CB   and  CG  
REMARK    3  A    between atoms: CG   and  CD  
REMARK    4  A    between atoms: CD   and  NE  
REMARK       I    between atoms: NE   and  CZ  
REMARK       I    between atoms: CZ   and  NH1 
REMARK       I    between atoms: CZ   and  NH2 
ROOT
ATOM      1  CA  ARG D 557     -26.217   2.705 -17.014  1.00 35.49     0.159 C 
ENDROOT
BRANCH   1   2
ATOM      2  CB  ARG D 557     -26.789   1.319 -17.183  1.00 35.49     0.034 C 
BRANCH   2   3
ATOM      3  CG  ARG D 557     -25.837   0.202 -17.141  1.00 35.49     0.027 C 
BRANCH   3   4
ATOM      4  CD  ARG D 557     -24.761   0.414 -16.147  1.00 35.49     0.116 C 
BRANCH   4   5
ATOM      5  NE  ARG D 557     -24.914  -0.432 -14.993  1.00 35.49    -0.212 N 
ATOM      6  CZ  ARG D 557     -24.124  -1.428 -14.661  1.00 35.49     0.666 C 
ATOM      7  NH1 ARG D 557     -23.078  -1.776 -15.387  1.00 35.49    -0.235 N 
ATOM      8  NH2 ARG D 557     -24.402  -2.076 -13.566  1.00 35.49    -0.235 N 
ATOM      9  HH  ARG D 557     -22.875  -1.363 -16.110  1.00 35.49     0.174 HD
ATOM     10  HH  ARG D 557     -22.597  -2.433 -15.119  1.00 35.49     0.174 HD
ATOM     11  HH  ARG D 557     -25.079  -1.824 -13.113  1.00 35.49     0.174 HD
ATOM     12  HH  ARG D 557     -23.913  -2.722 -13.317  1.00 35.49     0.174 HD
ATOM     13  HE  ARG D 557     -25.604  -0.324 -14.507  1.00 35.49     0.178 HD
ENDBRANCH   4   5
ENDBRANCH   3   4
ENDBRANCH   2   3
ENDBRANCH   1   2
END_RES ARG D 557
BEGIN_RES GLU D 570
REMARK  3 active torsions:
REMARK  status: ('A' for Active; 'I' for Inactive)
REMARK    5  A    between atoms: CA   and  CB  
REMARK    6  A    between atoms: CB   and  CG  
REMARK    7  A    between atoms: CG   and  CD  
ROOT
ATOM     14  CA  GLU D 570     -18.033  -6.348 -13.375  1.00 32.92     0.160 C 
ENDROOT
BRANCH  14  15
ATOM     15  CB  GLU D 570     -19.500  -6.345 -13.794  1.00 32.92     0.043 C 
BRANCH  15  16
ATOM     16  CG  GLU D 570     -20.446  -5.551 -12.968  1.00 32.92     0.100 C 
BRANCH  16  17
ATOM     17  CD  GLU D 570     -21.729  -5.221 -13.695  1.00 32.92     0.185 C 
ATOM     18  OE1 GLU D 570     -22.179  -6.032 -14.528  1.00 32.92    -0.647 OA
ATOM     19  OE2 GLU D 570     -22.282  -4.133 -13.440  1.00 32.92    -0.647 OA
ENDBRANCH  16  17
ENDBRANCH  15  16
ENDBRANCH  14  15
END_RES GLU D 570
ENDMDL
MODEL 4
REMARK VINA RESULT:      -7.7      2.274      3.623
REMARK  7 active torsions:
REMARK  status: ('A' for Active; 'I' for Inactive)
REMARK    1  A    between atoms: C_3  and  C_4 
REMARK    2  A    between atoms: C_4  and  C_5 
REMARK    3  A    between atoms: C_5  and  C_6 
REMARK    4  A    between atoms: C_6  and  C_8 
REMARK    5  A    between atoms: C_6  and  C_10 
REMARK    6  A    between atoms: C_11  and  C_12 
REMARK    7  A    between atoms: C_15  and  O_18 
ROOT
HETATM    1  C   UNL     1     -21.087  -4.628  -7.912  1.00  0.00    -0.009 C 
HETATM    2  C   UNL     1     -21.508  -3.440  -7.021  1.00  0.00     0.024 C 
ENDROOT
BRANCH   1   3
HETATM    3  C   UNL     1     -21.355  -5.976  -7.159  1.00  0.00     0.021 C 
BRANCH   3   4
HETATM    4  C   UNL     1     -21.554  -5.847  -5.638  1.00  0.00     0.028 C 
BRANCH   4   5
HETATM    5  C   UNL     1     -21.059  -7.023  -4.844  1.00  0.00    -0.025 C 
HETATM    6  C   UNL     1     -21.140  -7.172  -3.507  1.00  0.00    -0.091 C 
HETATM    7  C   UNL     1     -21.882  -6.249  -2.584  1.00  0.00     0.042 C 
HETATM    8  C   UNL     1     -20.429  -8.320  -2.838  1.00  0.00     0.042 C 
ENDBRANCH   4   5
ENDBRANCH   3   4
ENDBRANCH   1   3
BRANCH   1   9
HETATM    9  C   UNL     1     -19.589  -4.599  -8.247  1.00  0.00    -0.024 C 
HETATM   10  C   UNL     1     -18.557  -4.373  -7.422  1.00  0.00     0.008 C 
ENDBRANCH   1   9
BRANCH   1  11
HETATM   11  C   UNL     1     -21.909  -4.559  -9.202  1.00  0.00    -0.013 C 
HETATM   12  C   UNL     1     -21.730  -3.702 -10.222  1.00  0.00     0.008 C 
BRANCH  12  13
HETATM   13  C   UNL     1     -22.564  -3.761 -11.421  1.00  0.00    -0.036 A 
HETATM   14  C   UNL     1     -23.748  -3.021 -11.507  1.00  0.00     0.014 A 
HETATM   15  C   UNL     1     -24.525  -3.076 -12.669  1.00  0.00     0.037 A 
HETATM   16  C   UNL     1     -24.115  -3.877 -13.731  1.00  0.00     0.065 A 
HETATM   17  C   UNL     1     -22.951  -4.630 -13.649  1.00  0.00     0.037 A 
HETATM   18  C   UNL     1     -22.174  -4.573 -12.491  1.00  0.00     0.014 A 
BRANCH  16  19
HETATM   19  O   UNL     1     -24.837  -3.954 -14.885  1.00  0.00    -0.361 OA
HETATM   20  H   UNL     1     -25.080  -4.882 -15.037  1.00  0.00     0.217 HD
ENDBRANCH  16  19
ENDBRANCH  12  13
ENDBRANCH   1  11
TORSDOF 7
BEGIN_RES ARG D 557
REMARK  4 active torsions:
REMARK  status: ('A' for Active; 'I' for Inactive)
REMARK    1  A    between atoms: CA   and  CB  
REMARK    2  A    between atoms: CB   and  CG  
REMARK    3  A    between atoms: CG   and  CD  
REMARK    4  A    between atoms: CD   and  NE  
REMARK       I    between atoms: NE   and  CZ  
REMARK       I    between atoms: CZ   and  NH1 
REMARK       I    between atoms: CZ   and  NH2 
ROOT
ATOM      1  CA  ARG D 557     -26.217   2.705 -17.014  1.00 35.49     0.159 C 
ENDROOT
BRANCH   1   2
ATOM      2  CB  ARG D 557     -26.789   1.319 -17.183  1.00 35.49     0.034 C 
BRANCH   2   3
ATOM      3  CG  ARG D 557     -28.229   1.227 -17.453  1.00 35.49     0.027 C 
BRANCH   3   4
ATOM      4  CD  ARG D 557     -28.911   0.267 -16.556  1.00 35.49     0.116 C 
BRANCH   4   5
ATOM      5  NE  ARG D 557     -28.071  -0.852 -16.219  1.00 35.49    -0.212 N 
ATOM      6  CZ  ARG D 557     -28.229  -2.086 -16.642  1.00 35.49     0.666 C 
ATOM      7  NH1 ARG D 557     -29.220  -2.442 -17.438  1.00 35.49    -0.235 N 
ATOM      8  NH2 ARG D 557     -27.357  -2.971 -16.252  1.00 35.49    -0.235 N 
ATOM      9  HH  ARG D 557     -29.804  -1.876 -17.709  1.00 35.49     0.174 HD
ATOM     10  HH  ARG D 557     -29.271  -3.261 -17.684  1.00 35.49     0.174 HD
ATOM     11  HH  ARG D 557     -26.723  -2.711 -15.744  1.00 35.49     0.174 HD
ATOM     12  HH  ARG D 557     -27.424  -3.776 -16.507  1.00 35.49     0.174 HD
ATOM     13  HE  ARG D 557     -27.449  -0.728 -15.652  1.00 35.49     0.178 HD
ENDBRANCH   4   5
ENDBRANCH   3   4
ENDBRANCH   2   3
ENDBRANCH   1   2
END_RES ARG D 557
BEGIN_RES GLU D 570
REMARK  3 active torsions:
REMARK  status: ('A' for Active; 'I' for Inactive)
REMARK    5  A    between atoms: CA   and  CB  
REMARK    6  A    between atoms: CB   and  CG  
REMARK    7  A    between atoms: CG   and  CD  
ROOT
ATOM     14  CA  GLU D 570     -18.033  -6.348 -13.375  1.00 32.92     0.160 C 
ENDROOT
BRANCH  14  15
ATOM     15  CB  GLU D 570     -19.500  -6.345 -13.794  1.00 32.92     0.043 C 
BRANCH  15  16
ATOM     16  CG  GLU D 570     -20.093  -7.639 -14.221  1.00 32.92     0.100 C 
BRANCH  16  17
ATOM     17  CD  GLU D 570     -20.681  -7.587 -15.611  1.00 32.92     0.185 C 
ATOM     18  OE1 GLU D 570     -21.049  -8.647 -16.153  1.00 32.92    -0.647 OA
ATOM     19  OE2 GLU D 570     -20.761  -6.476 -16.172  1.00 32.92    -0.647 OA
ENDBRANCH  16  17
ENDBRANCH  15  16
ENDBRANCH  14  15
END_RES GLU D 570
ENDMDL
MODEL 5
REMARK VINA RESULT:      -7.7      2.083      2.773
REMARK  7 active torsions:
REMARK  status: ('A' for Active; 'I' for Inactive)
REMARK    1  A    between atoms: C_3  and  C_4 
REMARK    2  A    between atoms: C_4  and  C_5 
REMARK    3  A    between atoms: C_5  and  C_6 
REMARK    4  A    between atoms: C_6  and  C_8 
REMARK    5  A    between atoms: C_6  and  C_10 
REMARK    6  A    between atoms: C_11  and  C_12 
REMARK    7  A    between atoms: C_15  and  O_18 
ROOT
HETATM    1  C   UNL     1     -20.821  -7.833  -4.386  1.00  0.00    -0.009 C 
HETATM    2  C   UNL     1     -19.448  -8.494  -4.639  1.00  0.00     0.024 C 
ENDROOT
BRANCH   1   3
HETATM    3  C   UNL     1     -20.744  -6.924  -3.111  1.00  0.00     0.021 C 
BRANCH   3   4
HETATM    4  C   UNL     1     -21.743  -7.277  -1.996  1.00  0.00     0.028 C 
BRANCH   4   5
HETATM    5  C   UNL     1     -21.127  -7.948  -0.799  1.00  0.00    -0.025 C 
HETATM    6  C   UNL     1     -21.757  -8.258   0.351  1.00  0.00    -0.091 C 
HETATM    7  C   UNL     1     -23.235  -8.125   0.584  1.00  0.00     0.042 C 
HETATM    8  C   UNL     1     -20.960  -8.755   1.530  1.00  0.00     0.042 C 
ENDBRANCH   4   5
ENDBRANCH   3   4
ENDBRANCH   1   3
BRANCH   1   9
HETATM    9  C   UNL     1     -21.923  -8.869  -4.125  1.00  0.00    -0.024 C 
HETATM   10  C   UNL     1     -21.813 -10.203  -4.063  1.00  0.00     0.008 C 
ENDBRANCH   1   9
BRANCH   1  11
HETATM   11  C   UNL     1     -21.173  -6.999  -5.621  1.00  0.00    -0.013 C 
HETATM   12  C   UNL     1     -20.547  -5.887  -6.042  1.00  0.00     0.008 C 
BRANCH  12  13
HETATM   13  C   UNL     1     -20.959  -5.198  -7.264  1.00  0.00    -0.036 A 
HETATM   14  C   UNL     1     -20.074  -5.053  -8.337  1.00  0.00     0.014 A 
HETATM   15  C   UNL     1     -20.490  -4.406  -9.505  1.00  0.00     0.037 A 
HETATM   16  C   UNL     1     -21.785  -3.902  -9.587  1.00  0.00     0.065 A 
HETATM   17  C   UNL     1     -22.665  -4.025  -8.520  1.00  0.00     0.037 A 
HETATM   18  C   UNL     1     -22.252  -4.672  -7.355  1.00  0.00     0.014 A 
BRANCH  16  19
HETATM   19  O   UNL     1     -22.235  -3.272 -10.709  1.00  0.00    -0.361 OA
HETATM   20  H   UNL     1     -23.131  -3.591 -10.905  1.00  0.00     0.217 HD
ENDBRANCH  16  19
ENDBRANCH  12  13
ENDBRANCH   1  11
TORSDOF 7
BEGIN_RES ARG D 557
REMARK  4 active torsions:
REMARK  status: ('A' for Active; 'I' for Inactive)
REMARK    1  A    between atoms: CA   and  CB  
REMARK    2  A    between atoms: CB   and  CG  
REMARK    3  A    between atoms: CG   and  CD  
REMARK    4  A    between atoms: CD   and  NE  
REMARK       I    between atoms: NE   and  CZ  
REMARK       I    between atoms: CZ   and  NH1 
REMARK       I    between atoms: CZ   and  NH2 
ROOT
ATOM      1  CA  ARG D 557     -26.217   2.705 -17.014  1.00 35.49     0.159 C 
ENDROOT
BRANCH   1   2
ATOM      2  CB  ARG D 557     -26.789   1.319 -17.183  1.00 35.49     0.034 C 
BRANCH   2   3
ATOM      3  CG  ARG D 557     -28.154   1.103 -16.687  1.00 35.49     0.027 C 
BRANCH   3   4
ATOM      4  CD  ARG D 557     -28.790  -0.091 -17.290  1.00 35.49     0.116 C 
BRANCH   4   5
ATOM      5  NE  ARG D 557     -28.177  -1.315 -16.846  1.00 35.49    -0.212 N 
ATOM      6  CZ  ARG D 557     -28.659  -2.525 -17.023  1.00 35.49     0.666 C 
ATOM      7  NH1 ARG D 557     -29.805  -2.748 -17.639  1.00 35.49    -0.235 N 
ATOM      8  NH2 ARG D 557     -27.956  -3.523 -16.572  1.00 35.49    -0.235 N 
ATOM      9  HH  ARG D 557     -30.283  -2.106 -17.945  1.00 35.49     0.174 HD
ATOM     10  HH  ARG D 557     -30.068  -3.558 -17.728  1.00 35.49     0.174 HD
ATOM     11  HH  ARG D 557     -27.216  -3.350 -16.186  1.00 35.49     0.174 HD
ATOM     12  HH  ARG D 557     -28.233  -4.318 -16.672  1.00 35.49     0.174 HD
ATOM     13  HE  ARG D 557     -27.470  -1.260 -16.376  1.00 35.49     0.178 HD
ENDBRANCH   4   5
ENDBRANCH   3   4
ENDBRANCH   2   3
ENDBRANCH   1   2
END_RES ARG D 557
BEGIN_RES GLU D 570
REMARK  3 active torsions:
REMARK  status: ('A' for Active; 'I' for Inactive)
REMARK    5  A    between atoms: CA   and  CB  
REMARK    6  A    between atoms: CB   and  CG  
REMARK    7  A    between atoms: CG   and  CD  
ROOT
ATOM     14  CA  GLU D 570     -18.033  -6.348 -13.375  1.00 32.92     0.160 C 
ENDROOT
BRANCH  14  15
ATOM     15  CB  GLU D 570     -19.500  -6.345 -13.794  1.00 32.92     0.043 C 
BRANCH  15  16
ATOM     16  CG  GLU D 570     -20.446  -5.549 -12.970  1.00 32.92     0.100 C 
BRANCH  16  17
ATOM     17  CD  GLU D 570     -21.706  -5.175 -13.714  1.00 32.92     0.185 C 
ATOM     18  OE1 GLU D 570     -21.650  -4.995 -14.946  1.00 32.92    -0.647 OA
ATOM     19  OE2 GLU D 570     -22.757  -5.045 -13.056  1.00 32.92    -0.647 OA
ENDBRANCH  16  17
ENDBRANCH  15  16
ENDBRANCH  14  15
END_RES GLU D 570
ENDMDL
MODEL 6
REMARK VINA RESULT:      -7.5      3.203      6.808
REMARK  7 active torsions:
REMARK  status: ('A' for Active; 'I' for Inactive)
REMARK    1  A    between atoms: C_3  and  C_4 
REMARK    2  A    between atoms: C_4  and  C_5 
REMARK    3  A    between atoms: C_5  and  C_6 
REMARK    4  A    between atoms: C_6  and  C_8 
REMARK    5  A    between atoms: C_6  and  C_10 
REMARK    6  A    between atoms: C_11  and  C_12 
REMARK    7  A    between atoms: C_15  and  O_18 
ROOT
HETATM    1  C   UNL     1     -21.171  -5.419  -6.261  1.00  0.00    -0.009 C 
HETATM    2  C   UNL     1     -20.920  -6.668  -7.132  1.00  0.00     0.024 C 
ENDROOT
BRANCH   1   3
HETATM    3  C   UNL     1     -22.404  -4.625  -6.816  1.00  0.00     0.021 C 
BRANCH   3   4
HETATM    4  C   UNL     1     -22.084  -3.625  -7.941  1.00  0.00     0.028 C 
BRANCH   4   5
HETATM    5  C   UNL     1     -22.605  -4.023  -9.294  1.00  0.00    -0.025 C 
HETATM    6  C   UNL     1     -21.862  -4.302 -10.383  1.00  0.00    -0.091 C 
HETATM    7  C   UNL     1     -20.365  -4.414 -10.394  1.00  0.00     0.042 C 
HETATM    8  C   UNL     1     -22.535  -4.501 -11.717  1.00  0.00     0.042 C 
ENDBRANCH   4   5
ENDBRANCH   3   4
ENDBRANCH   1   3
BRANCH   1   9
HETATM    9  C   UNL     1     -19.979  -4.452  -6.276  1.00  0.00    -0.024 C 
HETATM   10  C   UNL     1     -18.853  -4.532  -6.998  1.00  0.00     0.008 C 
ENDBRANCH   1   9
BRANCH   1  11
HETATM   11  C   UNL     1     -21.438  -5.893  -4.829  1.00  0.00    -0.013 C 
HETATM   12  C   UNL     1     -20.869  -6.945  -4.215  1.00  0.00     0.008 C 
BRANCH  12  13
HETATM   13  C   UNL     1     -21.183  -7.275  -2.826  1.00  0.00    -0.036 A 
HETATM   14  C   UNL     1     -20.610  -8.392  -2.208  1.00  0.00     0.014 A 
HETATM   15  C   UNL     1     -20.908  -8.683  -0.873  1.00  0.00     0.037 A 
HETATM   16  C   UNL     1     -21.782  -7.860  -0.169  1.00  0.00     0.065 A 
HETATM   17  C   UNL     1     -22.370  -6.760  -0.778  1.00  0.00     0.037 A 
HETATM   18  C   UNL     1     -22.072  -6.466  -2.109  1.00  0.00     0.014 A 
BRANCH  16  19
HETATM   19  O   UNL     1     -22.093  -8.103   1.136  1.00  0.00    -0.361 OA
HETATM   20  H   UNL     1     -21.337  -7.843   1.688  1.00  0.00     0.217 HD
ENDBRANCH  16  19
ENDBRANCH  12  13
ENDBRANCH   1  11
TORSDOF 7
BEGIN_RES ARG D 557
REMARK  4 active torsions:
REMARK  status: ('A' for Active; 'I' for Inactive)
REMARK    1  A    between atoms: CA   and  CB  
REMARK    2  A    between atoms: CB   and  CG  
REMARK    3  A    between atoms: CG   and  CD  
REMARK    4  A    between atoms: CD   and  NE  
REMARK       I    between atoms: NE   and  CZ  
REMARK       I    between atoms: CZ   and  NH1 
REMARK       I    between atoms: CZ   and  NH2 
ROOT
ATOM      1  CA  ARG D 557     -26.217   2.705 -17.014  1.00 35.49     0.159 C 
ENDROOT
BRANCH   1   2
ATOM      2  CB  ARG D 557     -26.789   1.319 -17.183  1.00 35.49     0.034 C 
BRANCH   2   3
ATOM      3  CG  ARG D 557     -28.220   1.156 -16.899  1.00 35.49     0.027 C 
BRANCH   3   4
ATOM      4  CD  ARG D 557     -28.602  -0.264 -16.725  1.00 35.49     0.116 C 
BRANCH   4   5
ATOM      5  NE  ARG D 557     -27.599  -1.013 -16.015  1.00 35.49    -0.212 N 
ATOM      6  CZ  ARG D 557     -27.419  -2.313 -16.082  1.00 35.49     0.666 C 
ATOM      7  NH1 ARG D 557     -28.178  -3.096 -16.826  1.00 35.49    -0.235 N 
ATOM      8  NH2 ARG D 557     -26.444  -2.821 -15.385  1.00 35.49    -0.235 N 
ATOM      9  HH  ARG D 557     -28.824  -2.783 -17.294  1.00 35.49     0.174 HD
ATOM     10  HH  ARG D 557     -28.012  -3.936 -16.832  1.00 35.49     0.174 HD
ATOM     11  HH  ARG D 557     -25.966  -2.290 -14.920  1.00 35.49     0.174 HD
ATOM     12  HH  ARG D 557     -26.295  -3.655 -15.406  1.00 35.49     0.174 HD
ATOM     13  HE  ARG D 557     -27.111  -0.596 -15.456  1.00 35.49     0.178 HD
ENDBRANCH   4   5
ENDBRANCH   3   4
ENDBRANCH   2   3
ENDBRANCH   1   2
END_RES ARG D 557
BEGIN_RES GLU D 570
REMARK  3 active torsions:
REMARK  status: ('A' for Active; 'I' for Inactive)
REMARK    5  A    between atoms: CA   and  CB  
REMARK    6  A    between atoms: CB   and  CG  
REMARK    7  A    between atoms: CG   and  CD  
ROOT
ATOM     14  CA  GLU D 570     -18.033  -6.348 -13.375  1.00 32.92     0.160 C 
ENDROOT
BRANCH  14  15
ATOM     15  CB  GLU D 570     -19.500  -6.345 -13.794  1.00 32.92     0.043 C 
BRANCH  15  16
ATOM     16  CG  GLU D 570     -20.094  -7.640 -14.216  1.00 32.92     0.100 C 
BRANCH  16  17
ATOM     17  CD  GLU D 570     -20.637  -7.608 -15.625  1.00 32.92     0.185 C 
ATOM     18  OE1 GLU D 570     -21.041  -8.667 -16.143  1.00 32.92    -0.647 OA
ATOM     19  OE2 GLU D 570     -20.644  -6.515 -16.225  1.00 32.92    -0.647 OA
ENDBRANCH  16  17
ENDBRANCH  15  16
ENDBRANCH  14  15
END_RES GLU D 570
ENDMDL
MODEL 7
REMARK VINA RESULT:      -7.2      1.546      2.790
REMARK  7 active torsions:
REMARK  status: ('A' for Active; 'I' for Inactive)
REMARK    1  A    between atoms: C_3  and  C_4 
REMARK    2  A    between atoms: C_4  and  C_5 
REMARK    3  A    between atoms: C_5  and  C_6 
REMARK    4  A    between atoms: C_6  and  C_8 
REMARK    5  A    between atoms: C_6  and  C_10 
REMARK    6  A    between atoms: C_11  and  C_12 
REMARK    7  A    between atoms: C_15  and  O_18 
ROOT
HETATM    1  C   UNL     1     -20.970  -7.971  -4.031  1.00  0.00    -0.009 C 
HETATM    2  C   UNL     1     -22.036  -9.084  -3.945  1.00  0.00     0.024 C 
ENDROOT
BRANCH   1   3
HETATM    3  C   UNL     1     -19.541  -8.610  -4.094  1.00  0.00     0.021 C 
BRANCH   3   4
HETATM    4  C   UNL     1     -18.918  -8.953  -2.729  1.00  0.00     0.028 C 
BRANCH   4   5
HETATM    5  C   UNL     1     -19.142 -10.370  -2.281  1.00  0.00    -0.025 C 
HETATM    6  C   UNL     1     -19.917 -10.767  -1.252  1.00  0.00    -0.091 C 
HETATM    7  C   UNL     1     -20.820  -9.865  -0.461  1.00  0.00     0.042 C 
HETATM    8  C   UNL     1     -19.892 -12.207  -0.808  1.00  0.00     0.042 C 
ENDBRANCH   4   5
ENDBRANCH   3   4
ENDBRANCH   1   3
BRANCH   1   9
HETATM    9  C   UNL     1     -20.990  -7.052  -2.802  1.00  0.00    -0.024 C 
HETATM   10  C   UNL     1     -22.033  -6.401  -2.267  1.00  0.00     0.008 C 
ENDBRANCH   1   9
BRANCH   1  11
HETATM   11  C   UNL     1     -21.250  -7.153  -5.296  1.00  0.00    -0.013 C 
HETATM   12  C   UNL     1     -20.640  -6.014  -5.665  1.00  0.00     0.008 C 
BRANCH  12  13
HETATM   13  C   UNL     1     -20.974  -5.344  -6.920  1.00  0.00    -0.036 A 
HETATM   14  C   UNL     1     -22.211  -4.714  -7.089  1.00  0.00     0.014 A 
HETATM   15  C   UNL     1     -22.507  -4.063  -8.291  1.00  0.00     0.037 A 
HETATM   16  C   UNL     1     -21.566  -4.054  -9.316  1.00  0.00     0.065 A 
HETATM   17  C   UNL     1     -20.342  -4.691  -9.166  1.00  0.00     0.037 A 
HETATM   18  C   UNL     1     -20.044  -5.339  -7.966  1.00  0.00     0.014 A 
BRANCH  16  19
HETATM   19  O   UNL     1     -21.810  -3.424 -10.501  1.00  0.00    -0.361 OA
HETATM   20  H   UNL     1     -21.928  -2.475 -10.328  1.00  0.00     0.217 HD
ENDBRANCH  16  19
ENDBRANCH  12  13
ENDBRANCH   1  11
TORSDOF 7
BEGIN_RES ARG D 557
REMARK  4 active torsions:
REMARK  status: ('A' for Active; 'I' for Inactive)
REMARK    1  A    between atoms: CA   and  CB  
REMARK    2  A    between atoms: CB   and  CG  
REMARK    3  A    between atoms: CG   and  CD  
REMARK    4  A    between atoms: CD   and  NE  
REMARK       I    between atoms: NE   and  CZ  
REMARK       I    between atoms: CZ   and  NH1 
REMARK       I    between atoms: CZ   and  NH2 
ROOT
ATOM      1  CA  ARG D 557     -26.217   2.705 -17.014  1.00 35.49     0.159 C 
ENDROOT
BRANCH   1   2
ATOM      2  CB  ARG D 557     -26.789   1.319 -17.183  1.00 35.49     0.034 C 
BRANCH   2   3
ATOM      3  CG  ARG D 557     -25.862   0.195 -17.003  1.00 35.49     0.027 C 
BRANCH   3   4
ATOM      4  CD  ARG D 557     -26.271  -0.703 -15.899  1.00 35.49     0.116 C 
BRANCH   4   5
ATOM      5  NE  ARG D 557     -25.216  -0.900 -14.940  1.00 35.49    -0.212 N 
ATOM      6  CZ  ARG D 557     -24.918  -2.034 -14.348  1.00 35.49     0.666 C 
ATOM      7  NH1 ARG D 557     -25.592  -3.148 -14.569  1.00 35.49    -0.235 N 
ATOM      8  NH2 ARG D 557     -23.913  -2.035 -13.521  1.00 35.49    -0.235 N 
ATOM      9  HH  ARG D 557     -26.256  -3.171 -15.111  1.00 35.49     0.174 HD
ATOM     10  HH  ARG D 557     -25.351  -3.859 -14.156  1.00 35.49     0.174 HD
ATOM     11  HH  ARG D 557     -23.492  -1.303 -13.403  1.00 35.49     0.174 HD
ATOM     12  HH  ARG D 557     -23.689  -2.749 -13.123  1.00 35.49     0.174 HD
ATOM     13  HE  ARG D 557     -24.777  -0.218 -14.684  1.00 35.49     0.178 HD
ENDBRANCH   4   5
ENDBRANCH   3   4
ENDBRANCH   2   3
ENDBRANCH   1   2
END_RES ARG D 557
BEGIN_RES GLU D 570
REMARK  3 active torsions:
REMARK  status: ('A' for Active; 'I' for Inactive)
REMARK    5  A    between atoms: CA   and  CB  
REMARK    6  A    between atoms: CB   and  CG  
REMARK    7  A    between atoms: CG   and  CD  
ROOT
ATOM     14  CA  GLU D 570     -18.033  -6.348 -13.375  1.00 32.92     0.160 C 
ENDROOT
BRANCH  14  15
ATOM     15  CB  GLU D 570     -19.500  -6.345 -13.794  1.00 32.92     0.043 C 
BRANCH  15  16
ATOM     16  CG  GLU D 570     -20.452  -5.580 -12.948  1.00 32.92     0.100 C 
BRANCH  16  17
ATOM     17  CD  GLU D 570     -21.701  -5.167 -13.692  1.00 32.92     0.185 C 
ATOM     18  OE1 GLU D 570     -22.685  -4.763 -13.044  1.00 32.92    -0.647 OA
ATOM     19  OE2 GLU D 570     -21.700  -5.263 -14.935  1.00 32.92    -0.647 OA
ENDBRANCH  16  17
ENDBRANCH  15  16
ENDBRANCH  14  15
END_RES GLU D 570
ENDMDL
MODEL 8
REMARK VINA RESULT:      -7.0      2.542      4.038
REMARK  7 active torsions:
REMARK  status: ('A' for Active; 'I' for Inactive)
REMARK    1  A    between atoms: C_3  and  C_4 
REMARK    2  A    between atoms: C_4  and  C_5 
REMARK    3  A    between atoms: C_5  and  C_6 
REMARK    4  A    between atoms: C_6  and  C_8 
REMARK    5  A    between atoms: C_6  and  C_10 
REMARK    6  A    between atoms: C_11  and  C_12 
REMARK    7  A    between atoms: C_15  and  O_18 
ROOT
HETATM    1  C   UNL     1     -20.940  -7.617  -4.092  1.00  0.00    -0.009 C 
HETATM    2  C   UNL     1     -21.859  -8.855  -4.018  1.00  0.00     0.024 C 
ENDROOT
BRANCH   1   3
HETATM    3  C   UNL     1     -19.439  -8.070  -4.089  1.00  0.00     0.021 C 
BRANCH   3   4
HETATM    4  C   UNL     1     -19.217  -9.592  -4.037  1.00  0.00     0.028 C 
BRANCH   4   5
HETATM    5  C   UNL     1     -17.985 -10.065  -4.757  1.00  0.00    -0.025 C 
HETATM    6  C   UNL     1     -16.720 -10.003  -4.296  1.00  0.00    -0.091 C 
HETATM    7  C   UNL     1     -16.333  -9.585  -2.907  1.00  0.00     0.042 C 
HETATM    8  C   UNL     1     -15.572 -10.342  -5.212  1.00  0.00     0.042 C 
ENDBRANCH   4   5
ENDBRANCH   3   4
ENDBRANCH   1   3
BRANCH   1   9
HETATM    9  C   UNL     1     -21.123  -6.687  -2.885  1.00  0.00    -0.024 C 
HETATM   10  C   UNL     1     -22.242  -6.434  -2.191  1.00  0.00     0.008 C 
ENDBRANCH   1   9
BRANCH   1  11
HETATM   11  C   UNL     1     -21.272  -6.864  -5.384  1.00  0.00    -0.013 C 
HETATM   12  C   UNL     1     -20.744  -5.697  -5.789  1.00  0.00     0.008 C 
BRANCH  12  13
HETATM   13  C   UNL     1     -21.120  -5.095  -7.067  1.00  0.00    -0.036 A 
HETATM   14  C   UNL     1     -22.391  -4.542  -7.252  1.00  0.00     0.014 A 
HETATM   15  C   UNL     1     -22.728  -3.954  -8.476  1.00  0.00     0.037 A 
HETATM   16  C   UNL     1     -21.793  -3.932  -9.507  1.00  0.00     0.065 A 
HETATM   17  C   UNL     1     -20.535  -4.494  -9.340  1.00  0.00     0.037 A 
HETATM   18  C   UNL     1     -20.197  -5.078  -8.119  1.00  0.00     0.014 A 
BRANCH  16  19
HETATM   19  O   UNL     1     -22.076  -3.362 -10.713  1.00  0.00    -0.361 OA
HETATM   20  H   UNL     1     -22.411  -2.463 -10.560  1.00  0.00     0.217 HD
ENDBRANCH  16  19
ENDBRANCH  12  13
ENDBRANCH   1  11
TORSDOF 7
BEGIN_RES ARG D 557
REMARK  4 active torsions:
REMARK  status: ('A' for Active; 'I' for Inactive)
REMARK    1  A    between atoms: CA   and  CB  
REMARK    2  A    between atoms: CB   and  CG  
REMARK    3  A    between atoms: CG   and  CD  
REMARK    4  A    between atoms: CD   and  NE  
REMARK       I    between atoms: NE   and  CZ  
REMARK       I    between atoms: CZ   and  NH1 
REMARK       I    between atoms: CZ   and  NH2 
ROOT
ATOM      1  CA  ARG D 557     -26.217   2.705 -17.014  1.00 35.49     0.159 C 
ENDROOT
BRANCH   1   2
ATOM      2  CB  ARG D 557     -26.789   1.319 -17.183  1.00 35.49     0.034 C 
BRANCH   2   3
ATOM      3  CG  ARG D 557     -28.156   1.104 -16.692  1.00 35.49     0.027 C 
BRANCH   3   4
ATOM      4  CD  ARG D 557     -28.792  -0.088 -17.299  1.00 35.49     0.116 C 
BRANCH   4   5
ATOM      5  NE  ARG D 557     -28.183  -1.313 -16.854  1.00 35.49    -0.212 N 
ATOM      6  CZ  ARG D 557     -28.668  -2.521 -17.034  1.00 35.49     0.666 C 
ATOM      7  NH1 ARG D 557     -29.815  -2.741 -17.650  1.00 35.49    -0.235 N 
ATOM      8  NH2 ARG D 557     -27.969  -3.522 -16.582  1.00 35.49    -0.235 N 
ATOM      9  HH  ARG D 557     -30.290  -2.097 -17.957  1.00 35.49     0.174 HD
ATOM     10  HH  ARG D 557     -30.080  -3.550 -17.740  1.00 35.49     0.174 HD
ATOM     11  HH  ARG D 557     -27.229  -3.351 -16.195  1.00 35.49     0.174 HD
ATOM     12  HH  ARG D 557     -28.248  -4.317 -16.683  1.00 35.49     0.174 HD
ATOM     13  HE  ARG D 557     -27.476  -1.261 -16.384  1.00 35.49     0.178 HD
ENDBRANCH   4   5
ENDBRANCH   3   4
ENDBRANCH   2   3
ENDBRANCH   1   2
END_RES ARG D 557
BEGIN_RES GLU D 570
REMARK  3 active torsions:
REMARK  status: ('A' for Active; 'I' for Inactive)
REMARK    5  A    between atoms: CA   and  CB  
REMARK    6  A    between atoms: CB   and  CG  
REMARK    7  A    between atoms: CG   and  CD  
ROOT
ATOM     14  CA  GLU D 570     -18.033  -6.348 -13.375  1.00 32.92     0.160 C 
ENDROOT
BRANCH  14  15
ATOM     15  CB  GLU D 570     -19.500  -6.345 -13.794  1.00 32.92     0.043 C 
BRANCH  15  16
ATOM     16  CG  GLU D 570     -20.445  -5.544 -12.973  1.00 32.92     0.100 C 
BRANCH  16  17
ATOM     17  CD  GLU D 570     -21.750  -5.265 -13.681  1.00 32.92     0.185 C 
ATOM     18  OE1 GLU D 570     -22.242  -6.145 -14.414  1.00 32.92    -0.647 OA
ATOM     19  OE2 GLU D 570     -22.277  -4.147 -13.515  1.00 32.92    -0.647 OA
ENDBRANCH  16  17
ENDBRANCH  15  16
ENDBRANCH  14  15
END_RES GLU D 570
ENDMDL
MODEL 9
REMARK VINA RESULT:      -6.9      2.316      3.995
REMARK  7 active torsions:
REMARK  status: ('A' for Active; 'I' for Inactive)
REMARK    1  A    between atoms: C_3  and  C_4 
REMARK    2  A    between atoms: C_4  and  C_5 
REMARK    3  A    between atoms: C_5  and  C_6 
REMARK    4  A    between atoms: C_6  and  C_8 
REMARK    5  A    between atoms: C_6  and  C_10 
REMARK    6  A    between atoms: C_11  and  C_12 
REMARK    7  A    between atoms: C_15  and  O_18 
ROOT
HETATM    1  C   UNL     1     -21.200  -7.868  -2.755  1.00  0.00    -0.009 C 
HETATM    2  C   UNL     1     -21.967  -9.164  -3.098  1.00  0.00     0.024 C 
ENDROOT
BRANCH   1   3
HETATM    3  C   UNL     1     -19.852  -8.224  -2.039  1.00  0.00     0.021 C 
BRANCH   3   4
HETATM    4  C   UNL     1     -19.288  -9.619  -2.365  1.00  0.00     0.028 C 
BRANCH   4   5
HETATM    5  C   UNL     1     -17.865  -9.615  -2.850  1.00  0.00    -0.025 C 
HETATM    6  C   UNL     1     -17.461  -9.656  -4.135  1.00  0.00    -0.091 C 
HETATM    7  C   UNL     1     -18.374  -9.558  -5.324  1.00  0.00     0.042 C 
HETATM    8  C   UNL     1     -16.000  -9.839  -4.455  1.00  0.00     0.042 C 
ENDBRANCH   4   5
ENDBRANCH   3   4
ENDBRANCH   1   3
BRANCH   1   9
HETATM    9  C   UNL     1     -21.986  -6.966  -1.794  1.00  0.00    -0.024 C 
HETATM   10  C   UNL     1     -22.417  -7.245  -0.556  1.00  0.00     0.008 C 
ENDBRANCH   1   9
BRANCH   1  11
HETATM   11  C   UNL     1     -20.933  -7.123  -4.066  1.00  0.00    -0.013 C 
HETATM   12  C   UNL     1     -21.853  -6.577  -4.880  1.00  0.00     0.008 C 
BRANCH  12  13
HETATM   13  C   UNL     1     -21.465  -5.857  -6.092  1.00  0.00    -0.036 A 
HETATM   14  C   UNL     1     -20.206  -6.050  -6.668  1.00  0.00     0.014 A 
HETATM   15  C   UNL     1     -19.859  -5.366  -7.838  1.00  0.00     0.037 A 
HETATM   16  C   UNL     1     -20.771  -4.488  -8.416  1.00  0.00     0.065 A 
HETATM   17  C   UNL     1     -22.017  -4.276  -7.841  1.00  0.00     0.037 A 
HETATM   18  C   UNL     1     -22.366  -4.960  -6.677  1.00  0.00     0.014 A 
BRANCH  16  19
HETATM   19  O   UNL     1     -20.477  -3.807  -9.560  1.00  0.00    -0.361 OA
HETATM   20  H   UNL     1     -20.163  -2.920  -9.319  1.00  0.00     0.217 HD
ENDBRANCH  16  19
ENDBRANCH  12  13
ENDBRANCH   1  11
TORSDOF 7
BEGIN_RES ARG D 557
REMARK  4 active torsions:
REMARK  status: ('A' for Active; 'I' for Inactive)
REMARK    1  A    between atoms: CA   and  CB  
REMARK    2  A    between atoms: CB   and  CG  
REMARK    3  A    between atoms: CG   and  CD  
REMARK    4  A    between atoms: CD   and  NE  
REMARK       I    between atoms: NE   and  CZ  
REMARK       I    between atoms: CZ   and  NH1 
REMARK       I    between atoms: CZ   and  NH2 
ROOT
ATOM      1  CA  ARG D 557     -26.217   2.705 -17.014  1.00 35.49     0.159 C 
ENDROOT
BRANCH   1   2
ATOM      2  CB  ARG D 557     -26.789   1.319 -17.183  1.00 35.49     0.034 C 
BRANCH   2   3
ATOM      3  CG  ARG D 557     -28.235   1.171 -16.975  1.00 35.49     0.027 C 
BRANCH   3   4
ATOM      4  CD  ARG D 557     -28.630  -0.237 -16.744  1.00 35.49     0.116 C 
BRANCH   4   5
ATOM      5  NE  ARG D 557     -27.617  -0.976 -16.038  1.00 35.49    -0.212 N 
ATOM      6  CZ  ARG D 557     -27.432  -2.276 -16.099  1.00 35.49     0.666 C 
ATOM      7  NH1 ARG D 557     -28.194  -3.068 -16.830  1.00 35.49    -0.235 N 
ATOM      8  NH2 ARG D 557     -26.449  -2.775 -15.407  1.00 35.49    -0.235 N 
ATOM      9  HH  ARG D 557     -28.845  -2.760 -17.295  1.00 35.49     0.174 HD
ATOM     10  HH  ARG D 557     -28.024  -3.907 -16.833  1.00 35.49     0.174 HD
ATOM     11  HH  ARG D 557     -25.969  -2.239 -14.949  1.00 35.49     0.174 HD
ATOM     12  HH  ARG D 557     -26.296  -3.609 -15.424  1.00 35.49     0.174 HD
ATOM     13  HE  ARG D 557     -27.127  -0.554 -15.486  1.00 35.49     0.178 HD
ENDBRANCH   4   5
ENDBRANCH   3   4
ENDBRANCH   2   3
ENDBRANCH   1   2
END_RES ARG D 557
BEGIN_RES GLU D 570
REMARK  3 active torsions:
REMARK  status: ('A' for Active; 'I' for Inactive)
REMARK    5  A    between atoms: CA   and  CB  
REMARK    6  A    between atoms: CB   and  CG  
REMARK    7  A    between atoms: CG   and  CD  
ROOT
ATOM     14  CA  GLU D 570     -18.033  -6.348 -13.375  1.00 32.92     0.160 C 
ENDROOT
BRANCH  14  15
ATOM     15  CB  GLU D 570     -19.500  -6.345 -13.794  1.00 32.92     0.043 C 
BRANCH  15  16
ATOM     16  CG  GLU D 570     -19.807  -6.011 -15.209  1.00 32.92     0.100 C 
BRANCH  16  17
ATOM     17  CD  GLU D 570     -21.232  -5.549 -15.409  1.00 32.92     0.185 C 
ATOM     18  OE1 GLU D 570     -22.070  -5.767 -14.514  1.00 32.92    -0.647 OA
ATOM     19  OE2 GLU D 570     -21.516  -4.978 -16.481  1.00 32.92    -0.647 OA
ENDBRANCH  16  17
ENDBRANCH  15  16
ENDBRANCH  14  15
END_RES GLU D 570
ENDMDL
