MODEL 1
REMARK VINA RESULT:      -7.7      0.000      0.000
REMARK  8 active torsions:
REMARK  status: ('A' for Active; 'I' for Inactive)
REMARK    1  A    between atoms: CG_2  and  CB_7 
REMARK    2  A    between atoms: CB_7  and  CA_8 
REMARK    3  A    between atoms: CA_8  and  C_9 
REMARK    4  A    between atoms: CA_8  and  N_12 
REMARK    5  A    between atoms: C_9  and  OXT_11 
REMARK       I    between atoms: N_12  and  C_16 
REMARK    6  A    between atoms: C_16  and  C_18 
REMARK    7  A    between atoms: C_18  and  C_19 
REMARK    8  A    between atoms: C_19  and  N_20 
ROOT
ATOM      1  CA  HIS A   1     -23.512  -4.633 -13.556  1.00  0.00     0.188 C 
ENDROOT
BRANCH   1   2
ATOM      2  CB  HIS A   1     -22.759  -4.833 -12.232  1.00  0.00     0.094 C 
BRANCH   2   3
ATOM      3  CG  HIS A   1     -23.473  -4.274 -11.037  1.00  0.00     0.028 A 
ATOM      4  CD2 HIS A   1     -23.187  -4.363  -9.690  1.00  0.00     0.114 A 
ATOM      5  NE2 HIS A   1     -24.144  -3.733  -8.940  1.00  0.00    -0.360 N 
ATOM      6  CE1 HIS A   1     -24.995  -3.239  -9.807  1.00  0.00     0.180 A 
ATOM      7  HE2 HIS A   1     -24.185  -3.664  -7.924  1.00  0.00     0.166 HD
ATOM      8  ND1 HIS A   1     -24.611  -3.501 -11.090  1.00  0.00    -0.354 N 
ATOM      9  HD1 HIS A   1     -25.107  -3.201 -11.918  1.00  0.00     0.166 HD
ENDBRANCH   2   3
ENDBRANCH   1   2
BRANCH   1  10
ATOM     10  C   HIS A   1     -22.957  -3.440 -14.341  1.00  0.00     0.163 C 
ATOM     11  O   HIS A   1     -23.368  -2.295 -14.259  1.00  0.00    -0.648 OA
BRANCH  10  12
ATOM     12  OXT HIS A   1     -21.974  -3.788 -15.212  1.00  0.00    -0.775 OA
ATOM     13  HXT HIS A   1     -21.736  -3.057 -15.829  1.00  0.00     0.167 HD
ENDBRANCH  10  12
ENDBRANCH   1  10
BRANCH   1  14
ATOM     14  N   HIS A   1     -23.490  -5.836 -14.399  1.00  0.00    -0.346 N 
HETATM   15  C   UNK A   0     -24.518  -6.126 -15.260  1.00  0.00     0.220 C 
HETATM   16  O   UNK A   0     -25.454  -5.343 -15.393  1.00  0.00    -0.274 OA
ATOM     17  H   HIS A   1     -22.602  -6.313 -14.524  1.00  0.00     0.163 HD
BRANCH  15  18
HETATM   18  C   UNK A   0     -24.351  -7.411 -16.038  1.00  0.00     0.132 C 
BRANCH  18  19
HETATM   19  C   UNK A   0     -24.390  -7.141 -17.538  1.00  0.00     0.276 C 
BRANCH  19  20
HETATM   20  N   UNK A   0     -23.055  -7.234 -18.124  1.00  0.00     0.078 N 
HETATM   21  H   UNK A   0     -22.607  -6.318 -18.116  1.00  0.00     0.312 HD
HETATM   22  H   UNK A   0     -23.140  -7.489 -19.109  1.00  0.00     0.312 HD
ENDBRANCH  19  20
ENDBRANCH  18  19
ENDBRANCH  15  18
ENDBRANCH   1  14
TORSDOF 8
BEGIN_RES ARG D 557
REMARK  4 active torsions:
REMARK  status: ('A' for Active; 'I' for Inactive)
REMARK    1  A    between atoms: CA   and  CB  
REMARK    2  A    between atoms: CB   and  CG  
REMARK    3  A    between atoms: CG   and  CD  
REMARK    4  A    between atoms: CD   and  NE  
REMARK       I    between atoms: NE   and  CZ  
REMARK       I    between atoms: CZ   and  NH1 
REMARK       I    between atoms: CZ   and  NH2 
ROOT
ATOM      1  CA  ARG D 557     -26.217   2.705 -17.014  1.00 35.49     0.159 C 
ENDROOT
BRANCH   1   2
ATOM      2  CB  ARG D 557     -26.789   1.319 -17.183  1.00 35.49     0.034 C 
BRANCH   2   3
ATOM      3  CG  ARG D 557     -28.231   1.166 -16.952  1.00 35.49     0.027 C 
BRANCH   3   4
ATOM      4  CD  ARG D 557     -28.607  -0.231 -16.639  1.00 35.49     0.116 C 
BRANCH   4   5
ATOM      5  NE  ARG D 557     -27.574  -0.921 -15.912  1.00 35.49    -0.212 N 
ATOM      6  CZ  ARG D 557     -27.321  -2.209 -15.974  1.00 35.49     0.666 C 
ATOM      7  NH1 ARG D 557     -28.023  -3.035 -16.728  1.00 35.49    -0.235 N 
ATOM      8  NH2 ARG D 557     -26.330  -2.661 -15.261  1.00 35.49    -0.235 N 
ATOM      9  HH  ARG D 557     -28.678  -2.758 -17.207  1.00 35.49     0.174 HD
ATOM     10  HH  ARG D 557     -27.810  -3.864 -16.731  1.00 35.49     0.174 HD
ATOM     11  HH  ARG D 557     -25.889  -2.104 -14.790  1.00 35.49     0.174 HD
ATOM     12  HH  ARG D 557     -26.134  -3.486 -15.279  1.00 35.49     0.174 HD
ATOM     13  HE  ARG D 557     -27.120  -0.478 -15.346  1.00 35.49     0.178 HD
ENDBRANCH   4   5
ENDBRANCH   3   4
ENDBRANCH   2   3
ENDBRANCH   1   2
END_RES ARG D 557
BEGIN_RES GLU D 570
REMARK  3 active torsions:
REMARK  status: ('A' for Active; 'I' for Inactive)
REMARK    5  A    between atoms: CA   and  CB  
REMARK    6  A    between atoms: CB   and  CG  
REMARK    7  A    between atoms: CG   and  CD  
ROOT
ATOM     14  CA  GLU D 570     -18.033  -6.348 -13.375  1.00 32.92     0.160 C 
ENDROOT
BRANCH  14  15
ATOM     15  CB  GLU D 570     -19.500  -6.345 -13.794  1.00 32.92     0.043 C 
BRANCH  15  16
ATOM     16  CG  GLU D 570     -20.085  -7.633 -14.247  1.00 32.92     0.100 C 
BRANCH  16  17
ATOM     17  CD  GLU D 570     -20.686  -7.553 -15.631  1.00 32.92     0.185 C 
ATOM     18  OE1 GLU D 570     -20.872  -8.605 -16.272  1.00 32.92    -0.647 OA
ATOM     19  OE2 GLU D 570     -20.958  -6.425 -16.086  1.00 32.92    -0.647 OA
ENDBRANCH  16  17
ENDBRANCH  15  16
ENDBRANCH  14  15
END_RES GLU D 570
ENDMDL
MODEL 2
REMARK VINA RESULT:      -7.4      2.654      5.091
REMARK  8 active torsions:
REMARK  status: ('A' for Active; 'I' for Inactive)
REMARK    1  A    between atoms: CG_2  and  CB_7 
REMARK    2  A    between atoms: CB_7  and  CA_8 
REMARK    3  A    between atoms: CA_8  and  C_9 
REMARK    4  A    between atoms: CA_8  and  N_12 
REMARK    5  A    between atoms: C_9  and  OXT_11 
REMARK       I    between atoms: N_12  and  C_16 
REMARK    6  A    between atoms: C_16  and  C_18 
REMARK    7  A    between atoms: C_18  and  C_19 
REMARK    8  A    between atoms: C_19  and  N_20 
ROOT
ATOM      1  CA  HIS A   1     -23.459  -3.507 -10.661  1.00  0.00     0.188 C 
ENDROOT
BRANCH   1   2
ATOM      2  CB  HIS A   1     -23.905  -4.157 -11.980  1.00  0.00     0.094 C 
BRANCH   2   3
ATOM      3  CG  HIS A   1     -23.820  -3.244 -13.166  1.00  0.00     0.028 A 
ATOM      4  CD2 HIS A   1     -24.792  -2.511 -13.814  1.00  0.00     0.114 A 
ATOM      5  NE2 HIS A   1     -24.272  -1.845 -14.891  1.00  0.00    -0.360 N 
ATOM      6  CE1 HIS A   1     -22.993  -2.138 -14.897  1.00  0.00     0.180 A 
ATOM      7  HE2 HIS A   1     -24.772  -1.248 -15.550  1.00  0.00     0.166 HD
ATOM      8  ND1 HIS A   1     -22.661  -2.946 -13.848  1.00  0.00    -0.354 N 
ATOM      9  HD1 HIS A   1     -21.730  -3.282 -13.646  1.00  0.00     0.166 HD
ENDBRANCH   2   3
ENDBRANCH   1   2
BRANCH   1  10
ATOM     10  C   HIS A   1     -24.606  -3.452  -9.648  1.00  0.00     0.163 C 
ATOM     11  O   HIS A   1     -25.750  -3.114  -9.903  1.00  0.00    -0.648 OA
BRANCH  10  12
ATOM     12  OXT HIS A   1     -24.215  -3.763  -8.384  1.00  0.00    -0.775 OA
ATOM     13  HXT HIS A   1     -23.959  -4.709  -8.287  1.00  0.00     0.167 HD
ENDBRANCH  10  12
ENDBRANCH   1  10
BRANCH   1  14
ATOM     14  N   HIS A   1     -22.302  -4.189 -10.066  1.00  0.00    -0.346 N 
HETATM   15  C   UNK A   0     -21.020  -3.905 -10.464  1.00  0.00     0.220 C 
HETATM   16  O   UNK A   0     -20.809  -3.018 -11.287  1.00  0.00    -0.274 OA
ATOM     17  H   HIS A   1     -22.440  -4.682  -9.188  1.00  0.00     0.163 HD
BRANCH  15  18
HETATM   18  C   UNK A   0     -19.946  -4.708  -9.768  1.00  0.00     0.132 C 
BRANCH  18  19
HETATM   19  C   UNK A   0     -20.113  -4.633  -8.254  1.00  0.00     0.276 C 
BRANCH  19  20
HETATM   20  N   UNK A   0     -20.119  -5.967  -7.658  1.00  0.00     0.078 N 
HETATM   21  H   UNK A   0     -19.252  -6.123  -7.145  1.00  0.00     0.312 HD
HETATM   22  H   UNK A   0     -20.128  -6.664  -8.403  1.00  0.00     0.312 HD
ENDBRANCH  19  20
ENDBRANCH  18  19
ENDBRANCH  15  18
ENDBRANCH   1  14
TORSDOF 8
BEGIN_RES ARG D 557
REMARK  4 active torsions:
REMARK  status: ('A' for Active; 'I' for Inactive)
REMARK    1  A    between atoms: CA   and  CB  
REMARK    2  A    between atoms: CB   and  CG  
REMARK    3  A    between atoms: CG   and  CD  
REMARK    4  A    between atoms: CD   and  NE  
REMARK       I    between atoms: NE   and  CZ  
REMARK       I    between atoms: CZ   and  NH1 
REMARK       I    between atoms: CZ   and  NH2 
ROOT
ATOM      1  CA  ARG D 557     -26.217   2.705 -17.014  1.00 35.49     0.159 C 
ENDROOT
BRANCH   1   2
ATOM      2  CB  ARG D 557     -26.789   1.319 -17.183  1.00 35.49     0.034 C 
BRANCH   2   3
ATOM      3  CG  ARG D 557     -28.231   1.226 -17.443  1.00 35.49     0.027 C 
BRANCH   3   4
ATOM      4  CD  ARG D 557     -28.915   0.306 -16.506  1.00 35.49     0.116 C 
BRANCH   4   5
ATOM      5  NE  ARG D 557     -29.293  -0.930 -17.139  1.00 35.49    -0.212 N 
ATOM      6  CZ  ARG D 557     -28.656  -2.074 -17.030  1.00 35.49     0.666 C 
ATOM      7  NH1 ARG D 557     -27.555  -2.208 -16.313  1.00 35.49    -0.235 N 
ATOM      8  NH2 ARG D 557     -29.154  -3.100 -17.657  1.00 35.49    -0.235 N 
ATOM      9  HH  ARG D 557     -27.211  -1.547 -15.890  1.00 35.49     0.174 HD
ATOM     10  HH  ARG D 557     -27.185  -2.980 -16.276  1.00 35.49     0.174 HD
ATOM     11  HH  ARG D 557     -29.869  -2.986 -18.106  1.00 35.49     0.174 HD
ATOM     12  HH  ARG D 557     -28.773  -3.856 -17.607  1.00 35.49     0.174 HD
ATOM     13  HE  ARG D 557     -29.950  -0.918 -17.678  1.00 35.49     0.178 HD
ENDBRANCH   4   5
ENDBRANCH   3   4
ENDBRANCH   2   3
ENDBRANCH   1   2
END_RES ARG D 557
BEGIN_RES GLU D 570
REMARK  3 active torsions:
REMARK  status: ('A' for Active; 'I' for Inactive)
REMARK    5  A    between atoms: CA   and  CB  
REMARK    6  A    between atoms: CB   and  CG  
REMARK    7  A    between atoms: CG   and  CD  
ROOT
ATOM     14  CA  GLU D 570     -18.033  -6.348 -13.375  1.00 32.92     0.160 C 
ENDROOT
BRANCH  14  15
ATOM     15  CB  GLU D 570     -19.500  -6.345 -13.794  1.00 32.92     0.043 C 
BRANCH  15  16
ATOM     16  CG  GLU D 570     -19.801  -6.124 -15.232  1.00 32.92     0.100 C 
BRANCH  16  17
ATOM     17  CD  GLU D 570     -21.225  -5.681 -15.475  1.00 32.92     0.185 C 
ATOM     18  OE1 GLU D 570     -21.501  -5.087 -16.535  1.00 32.92    -0.647 OA
ATOM     19  OE2 GLU D 570     -22.069  -5.916 -14.589  1.00 32.92    -0.647 OA
ENDBRANCH  16  17
ENDBRANCH  15  16
ENDBRANCH  14  15
END_RES GLU D 570
ENDMDL
MODEL 3
REMARK VINA RESULT:      -7.3      2.291      3.330
REMARK  8 active torsions:
REMARK  status: ('A' for Active; 'I' for Inactive)
REMARK    1  A    between atoms: CG_2  and  CB_7 
REMARK    2  A    between atoms: CB_7  and  CA_8 
REMARK    3  A    between atoms: CA_8  and  C_9 
REMARK    4  A    between atoms: CA_8  and  N_12 
REMARK    5  A    between atoms: C_9  and  OXT_11 
REMARK       I    between atoms: N_12  and  C_16 
REMARK    6  A    between atoms: C_16  and  C_18 
REMARK    7  A    between atoms: C_18  and  C_19 
REMARK    8  A    between atoms: C_19  and  N_20 
ROOT
ATOM      1  CA  HIS A   1     -24.619  -6.309 -15.786  1.00  0.00     0.188 C 
ENDROOT
BRANCH   1   2
ATOM      2  CB  HIS A   1     -23.802  -6.195 -14.490  1.00  0.00     0.094 C 
BRANCH   2   3
ATOM      3  CG  HIS A   1     -23.962  -4.880 -13.785  1.00  0.00     0.028 A 
ATOM      4  CD2 HIS A   1     -24.565  -3.707 -14.187  1.00  0.00     0.114 A 
ATOM      5  NE2 HIS A   1     -24.436  -2.734 -13.233  1.00  0.00    -0.360 N 
ATOM      6  CE1 HIS A   1     -23.786  -3.300 -12.244  1.00  0.00     0.180 A 
ATOM      7  HE2 HIS A   1     -24.772  -1.772 -13.281  1.00  0.00     0.166 HD
ATOM      8  ND1 HIS A   1     -23.515  -4.612 -12.511  1.00  0.00    -0.354 N 
ATOM      9  HD1 HIS A   1     -23.038  -5.245 -11.884  1.00  0.00     0.166 HD
ENDBRANCH   2   3
ENDBRANCH   1   2
BRANCH   1  10
ATOM     10  C   HIS A   1     -23.950  -7.255 -16.788  1.00  0.00     0.163 C 
ATOM     11  O   HIS A   1     -23.550  -6.934 -17.895  1.00  0.00    -0.648 OA
BRANCH  10  12
ATOM     12  OXT HIS A   1     -23.893  -8.540 -16.349  1.00  0.00    -0.775 OA
ATOM     13  HXT HIS A   1     -24.075  -8.621 -15.384  1.00  0.00     0.167 HD
ENDBRANCH  10  12
ENDBRANCH   1  10
BRANCH   1  14
ATOM     14  N   HIS A   1     -26.001  -6.743 -15.539  1.00  0.00    -0.346 N 
HETATM   15  C   UNK A   0     -27.069  -6.066 -16.069  1.00  0.00     0.220 C 
HETATM   16  O   UNK A   0     -26.888  -5.114 -16.823  1.00  0.00    -0.274 OA
ATOM     17  H   HIS A   1     -26.148  -7.684 -15.188  1.00  0.00     0.163 HD
BRANCH  15  18
HETATM   18  C   UNK A   0     -28.423  -6.629 -15.702  1.00  0.00     0.132 C 
BRANCH  18  19
HETATM   19  C   UNK A   0     -29.283  -6.817 -16.947  1.00  0.00     0.276 C 
BRANCH  19  20
HETATM   20  N   UNK A   0     -29.356  -8.226 -17.327  1.00  0.00     0.078 N 
HETATM   21  H   UNK A   0     -29.700  -8.311 -18.284  1.00  0.00     0.312 HD
HETATM   22  H   UNK A   0     -30.050  -8.694 -16.742  1.00  0.00     0.312 HD
ENDBRANCH  19  20
ENDBRANCH  18  19
ENDBRANCH  15  18
ENDBRANCH   1  14
TORSDOF 8
BEGIN_RES ARG D 557
REMARK  4 active torsions:
REMARK  status: ('A' for Active; 'I' for Inactive)
REMARK    1  A    between atoms: CA   and  CB  
REMARK    2  A    between atoms: CB   and  CG  
REMARK    3  A    between atoms: CG   and  CD  
REMARK    4  A    between atoms: CD   and  NE  
REMARK       I    between atoms: NE   and  CZ  
REMARK       I    between atoms: CZ   and  NH1 
REMARK       I    between atoms: CZ   and  NH2 
ROOT
ATOM      1  CA  ARG D 557     -26.217   2.705 -17.014  1.00 35.49     0.159 C 
ENDROOT
BRANCH   1   2
ATOM      2  CB  ARG D 557     -26.789   1.319 -17.183  1.00 35.49     0.034 C 
BRANCH   2   3
ATOM      3  CG  ARG D 557     -28.232   1.226 -17.435  1.00 35.49     0.027 C 
BRANCH   3   4
ATOM      4  CD  ARG D 557     -28.910   0.299 -16.500  1.00 35.49     0.116 C 
BRANCH   4   5
ATOM      5  NE  ARG D 557     -29.266  -0.944 -17.132  1.00 35.49    -0.212 N 
ATOM      6  CZ  ARG D 557     -28.618  -2.081 -17.010  1.00 35.49     0.666 C 
ATOM      7  NH1 ARG D 557     -27.525  -2.200 -16.279  1.00 35.49    -0.235 N 
ATOM      8  NH2 ARG D 557     -29.096  -3.115 -17.639  1.00 35.49    -0.235 N 
ATOM      9  HH  ARG D 557     -27.194  -1.533 -15.855  1.00 35.49     0.174 HD
ATOM     10  HH  ARG D 557     -27.147  -2.968 -16.234  1.00 35.49     0.174 HD
ATOM     11  HH  ARG D 557     -29.808  -3.011 -18.098  1.00 35.49     0.174 HD
ATOM     12  HH  ARG D 557     -28.708  -3.867 -17.581  1.00 35.49     0.174 HD
ATOM     13  HE  ARG D 557     -29.916  -0.942 -17.680  1.00 35.49     0.178 HD
ENDBRANCH   4   5
ENDBRANCH   3   4
ENDBRANCH   2   3
ENDBRANCH   1   2
END_RES ARG D 557
BEGIN_RES GLU D 570
REMARK  3 active torsions:
REMARK  status: ('A' for Active; 'I' for Inactive)
REMARK    5  A    between atoms: CA   and  CB  
REMARK    6  A    between atoms: CB   and  CG  
REMARK    7  A    between atoms: CG   and  CD  
ROOT
ATOM     14  CA  GLU D 570     -18.033  -6.348 -13.375  1.00 32.92     0.160 C 
ENDROOT
BRANCH  14  15
ATOM     15  CB  GLU D 570     -19.500  -6.345 -13.794  1.00 32.92     0.043 C 
BRANCH  15  16
ATOM     16  CG  GLU D 570     -20.093  -7.639 -14.220  1.00 32.92     0.100 C 
BRANCH  16  17
ATOM     17  CD  GLU D 570     -20.533  -7.638 -15.666  1.00 32.92     0.185 C 
ATOM     18  OE1 GLU D 570     -20.794  -8.723 -16.220  1.00 32.92    -0.647 OA
ATOM     19  OE2 GLU D 570     -20.602  -6.541 -16.255  1.00 32.92    -0.647 OA
ENDBRANCH  16  17
ENDBRANCH  15  16
ENDBRANCH  14  15
END_RES GLU D 570
ENDMDL
MODEL 4
REMARK VINA RESULT:      -6.9      2.972      5.481
REMARK  8 active torsions:
REMARK  status: ('A' for Active; 'I' for Inactive)
REMARK    1  A    between atoms: CG_2  and  CB_7 
REMARK    2  A    between atoms: CB_7  and  CA_8 
REMARK    3  A    between atoms: CA_8  and  C_9 
REMARK    4  A    between atoms: CA_8  and  N_12 
REMARK    5  A    between atoms: C_9  and  OXT_11 
REMARK       I    between atoms: N_12  and  C_16 
REMARK    6  A    between atoms: C_16  and  C_18 
REMARK    7  A    between atoms: C_18  and  C_19 
REMARK    8  A    between atoms: C_19  and  N_20 
ROOT
ATOM      1  CA  HIS A   1     -26.180  -5.851 -16.667  1.00  0.00     0.188 C 
ENDROOT
BRANCH   1   2
ATOM      2  CB  HIS A   1     -27.118  -4.743 -16.166  1.00  0.00     0.094 C 
BRANCH   2   3
ATOM      3  CG  HIS A   1     -28.505  -4.819 -16.730  1.00  0.00     0.028 A 
ATOM      4  CD2 HIS A   1     -29.134  -4.053 -17.689  1.00  0.00     0.114 A 
ATOM      5  NE2 HIS A   1     -30.432  -4.451 -17.865  1.00  0.00    -0.360 N 
ATOM      6  CE1 HIS A   1     -30.600  -5.464 -17.049  1.00  0.00     0.180 A 
ATOM      7  HE2 HIS A   1     -31.123  -4.045 -18.497  1.00  0.00     0.166 HD
ATOM      8  ND1 HIS A   1     -29.450  -5.754 -16.372  1.00  0.00    -0.354 N 
ATOM      9  HD1 HIS A   1     -29.344  -6.505 -15.704  1.00  0.00     0.166 HD
ENDBRANCH   2   3
ENDBRANCH   1   2
BRANCH   1  10
ATOM     10  C   HIS A   1     -26.178  -7.054 -15.719  1.00  0.00     0.163 C 
ATOM     11  O   HIS A   1     -27.172  -7.553 -15.218  1.00  0.00    -0.648 OA
BRANCH  10  12
ATOM     12  OXT HIS A   1     -24.927  -7.496 -15.424  1.00  0.00    -0.775 OA
ATOM     13  HXT HIS A   1     -24.593  -8.156 -16.075  1.00  0.00     0.167 HD
ENDBRANCH  10  12
ENDBRANCH   1  10
BRANCH   1  14
ATOM     14  N   HIS A   1     -26.512  -6.291 -18.029  1.00  0.00    -0.346 N 
HETATM   15  C   UNK A   0     -25.539  -6.682 -18.913  1.00  0.00     0.220 C 
HETATM   16  O   UNK A   0     -24.365  -6.735 -18.559  1.00  0.00    -0.274 OA
ATOM     17  H   HIS A   1     -27.476  -6.544 -18.224  1.00  0.00     0.163 HD
BRANCH  15  18
HETATM   18  C   UNK A   0     -26.047  -7.085 -20.279  1.00  0.00     0.132 C 
BRANCH  18  19
HETATM   19  C   UNK A   0     -24.883  -7.356 -21.227  1.00  0.00     0.276 C 
BRANCH  19  20
HETATM   20  N   UNK A   0     -24.079  -8.484 -20.763  1.00  0.00     0.078 N 
HETATM   21  H   UNK A   0     -23.733  -9.016 -21.561  1.00  0.00     0.312 HD
HETATM   22  H   UNK A   0     -24.676  -9.127 -20.241  1.00  0.00     0.312 HD
ENDBRANCH  19  20
ENDBRANCH  18  19
ENDBRANCH  15  18
ENDBRANCH   1  14
TORSDOF 8
BEGIN_RES ARG D 557
REMARK  4 active torsions:
REMARK  status: ('A' for Active; 'I' for Inactive)
REMARK    1  A    between atoms: CA   and  CB  
REMARK    2  A    between atoms: CB   and  CG  
REMARK    3  A    between atoms: CG   and  CD  
REMARK    4  A    between atoms: CD   and  NE  
REMARK       I    between atoms: NE   and  CZ  
REMARK       I    between atoms: CZ   and  NH1 
REMARK       I    between atoms: CZ   and  NH2 
ROOT
ATOM      1  CA  ARG D 557     -26.217   2.705 -17.014  1.00 35.49     0.159 C 
ENDROOT
BRANCH   1   2
ATOM      2  CB  ARG D 557     -26.789   1.319 -17.183  1.00 35.49     0.034 C 
BRANCH   2   3
ATOM      3  CG  ARG D 557     -25.837   0.203 -17.149  1.00 35.49     0.027 C 
BRANCH   3   4
ATOM      4  CD  ARG D 557     -24.752   0.416 -16.163  1.00 35.49     0.116 C 
BRANCH   4   5
ATOM      5  NE  ARG D 557     -24.893  -0.435 -15.010  1.00 35.49    -0.212 N 
ATOM      6  CZ  ARG D 557     -24.078  -1.408 -14.670  1.00 35.49     0.666 C 
ATOM      7  NH1 ARG D 557     -23.014  -1.725 -15.385  1.00 35.49    -0.235 N 
ATOM      8  NH2 ARG D 557     -24.348  -2.063 -13.578  1.00 35.49    -0.235 N 
ATOM      9  HH  ARG D 557     -22.816  -1.306 -16.106  1.00 35.49     0.174 HD
ATOM     10  HH  ARG D 557     -22.517  -2.368 -15.112  1.00 35.49     0.174 HD
ATOM     11  HH  ARG D 557     -25.037  -1.831 -13.132  1.00 35.49     0.174 HD
ATOM     12  HH  ARG D 557     -23.843  -2.695 -13.324  1.00 35.49     0.174 HD
ATOM     13  HE  ARG D 557     -25.591  -0.347 -14.532  1.00 35.49     0.178 HD
ENDBRANCH   4   5
ENDBRANCH   3   4
ENDBRANCH   2   3
ENDBRANCH   1   2
END_RES ARG D 557
BEGIN_RES GLU D 570
REMARK  3 active torsions:
REMARK  status: ('A' for Active; 'I' for Inactive)
REMARK    5  A    between atoms: CA   and  CB  
REMARK    6  A    between atoms: CB   and  CG  
REMARK    7  A    between atoms: CG   and  CD  
ROOT
ATOM     14  CA  GLU D 570     -18.033  -6.348 -13.375  1.00 32.92     0.160 C 
ENDROOT
BRANCH  14  15
ATOM     15  CB  GLU D 570     -19.500  -6.345 -13.794  1.00 32.92     0.043 C 
BRANCH  15  16
ATOM     16  CG  GLU D 570     -20.445  -5.546 -12.972  1.00 32.92     0.100 C 
BRANCH  16  17
ATOM     17  CD  GLU D 570     -21.751  -5.266 -13.679  1.00 32.92     0.185 C 
ATOM     18  OE1 GLU D 570     -22.277  -6.169 -14.358  1.00 32.92    -0.647 OA
ATOM     19  OE2 GLU D 570     -22.244  -4.127 -13.567  1.00 32.92    -0.647 OA
ENDBRANCH  16  17
ENDBRANCH  15  16
ENDBRANCH  14  15
END_RES GLU D 570
ENDMDL
MODEL 5
REMARK VINA RESULT:      -6.9      3.197      6.076
REMARK  8 active torsions:
REMARK  status: ('A' for Active; 'I' for Inactive)
REMARK    1  A    between atoms: CG_2  and  CB_7 
REMARK    2  A    between atoms: CB_7  and  CA_8 
REMARK    3  A    between atoms: CA_8  and  C_9 
REMARK    4  A    between atoms: CA_8  and  N_12 
REMARK    5  A    between atoms: C_9  and  OXT_11 
REMARK       I    between atoms: N_12  and  C_16 
REMARK    6  A    between atoms: C_16  and  C_18 
REMARK    7  A    between atoms: C_18  and  C_19 
REMARK    8  A    between atoms: C_19  and  N_20 
ROOT
ATOM      1  CA  HIS A   1     -28.099  -5.597 -17.163  1.00  0.00     0.188 C 
ENDROOT
BRANCH   1   2
ATOM      2  CB  HIS A   1     -28.723  -4.203 -17.331  1.00  0.00     0.094 C 
BRANCH   2   3
ATOM      3  CG  HIS A   1     -30.217  -4.185 -17.202  1.00  0.00     0.028 A 
ATOM      4  CD2 HIS A   1     -31.079  -5.055 -16.567  1.00  0.00     0.114 A 
ATOM      5  NE2 HIS A   1     -32.382  -4.674 -16.744  1.00  0.00    -0.360 N 
ATOM      6  CE1 HIS A   1     -32.330  -3.572 -17.454  1.00  0.00     0.180 A 
ATOM      7  HE2 HIS A   1     -33.217  -5.147 -16.397  1.00  0.00     0.166 HD
ATOM      8  ND1 HIS A   1     -31.040  -3.211 -17.719  1.00  0.00    -0.354 N 
ATOM      9  HD1 HIS A   1     -30.763  -2.388 -18.236  1.00  0.00     0.166 HD
ENDBRANCH   2   3
ENDBRANCH   1   2
BRANCH   1  10
ATOM     10  C   HIS A   1     -28.147  -6.393 -18.470  1.00  0.00     0.163 C 
ATOM     11  O   HIS A   1     -27.527  -6.115 -19.483  1.00  0.00    -0.648 OA
BRANCH  10  12
ATOM     12  OXT HIS A   1     -29.016  -7.437 -18.425  1.00  0.00    -0.775 OA
ATOM     13  HXT HIS A   1     -29.778  -7.271 -17.823  1.00  0.00     0.167 HD
ENDBRANCH  10  12
ENDBRANCH   1  10
BRANCH   1  14
ATOM     14  N   HIS A   1     -26.718  -5.534 -16.667  1.00  0.00    -0.346 N 
HETATM   15  C   UNK A   0     -26.222  -6.481 -15.807  1.00  0.00     0.220 C 
HETATM   16  O   UNK A   0     -26.909  -7.445 -15.484  1.00  0.00    -0.274 OA
ATOM     17  H   HIS A   1     -26.062  -4.935 -17.161  1.00  0.00     0.163 HD
BRANCH  15  18
HETATM   18  C   UNK A   0     -24.790  -6.260 -15.377  1.00  0.00     0.132 C 
BRANCH  18  19
HETATM   19  C   UNK A   0     -23.875  -7.316 -15.988  1.00  0.00     0.276 C 
BRANCH  19  20
HETATM   20  N   UNK A   0     -24.277  -7.633 -17.356  1.00  0.00     0.078 N 
HETATM   21  H   UNK A   0     -24.954  -8.395 -17.352  1.00  0.00     0.312 HD
HETATM   22  H   UNK A   0     -23.468  -7.986 -17.868  1.00  0.00     0.312 HD
ENDBRANCH  19  20
ENDBRANCH  18  19
ENDBRANCH  15  18
ENDBRANCH   1  14
TORSDOF 8
BEGIN_RES ARG D 557
REMARK  4 active torsions:
REMARK  status: ('A' for Active; 'I' for Inactive)
REMARK    1  A    between atoms: CA   and  CB  
REMARK    2  A    between atoms: CB   and  CG  
REMARK    3  A    between atoms: CG   and  CD  
REMARK    4  A    between atoms: CD   and  NE  
REMARK       I    between atoms: NE   and  CZ  
REMARK       I    between atoms: CZ   and  NH1 
REMARK       I    between atoms: CZ   and  NH2 
ROOT
ATOM      1  CA  ARG D 557     -26.217   2.705 -17.014  1.00 35.49     0.159 C 
ENDROOT
BRANCH   1   2
ATOM      2  CB  ARG D 557     -26.789   1.319 -17.183  1.00 35.49     0.034 C 
BRANCH   2   3
ATOM      3  CG  ARG D 557     -25.835   0.204 -17.166  1.00 35.49     0.027 C 
BRANCH   3   4
ATOM      4  CD  ARG D 557     -24.768   0.389 -16.156  1.00 35.49     0.116 C 
BRANCH   4   5
ATOM      5  NE  ARG D 557     -24.946  -0.470 -15.015  1.00 35.49    -0.212 N 
ATOM      6  CZ  ARG D 557     -24.140  -1.443 -14.653  1.00 35.49     0.666 C 
ATOM      7  NH1 ARG D 557     -23.052  -1.753 -15.333  1.00 35.49    -0.235 N 
ATOM      8  NH2 ARG D 557     -24.447  -2.107 -13.577  1.00 35.49    -0.235 N 
ATOM      9  HH  ARG D 557     -22.830  -1.328 -16.044  1.00 35.49     0.174 HD
ATOM     10  HH  ARG D 557     -22.563  -2.396 -15.048  1.00 35.49     0.174 HD
ATOM     11  HH  ARG D 557     -25.152  -1.880 -13.154  1.00 35.49     0.174 HD
ATOM     12  HH  ARG D 557     -23.949  -2.740 -13.310  1.00 35.49     0.174 HD
ATOM     13  HE  ARG D 557     -25.660  -0.388 -14.561  1.00 35.49     0.178 HD
ENDBRANCH   4   5
ENDBRANCH   3   4
ENDBRANCH   2   3
ENDBRANCH   1   2
END_RES ARG D 557
BEGIN_RES GLU D 570
REMARK  3 active torsions:
REMARK  status: ('A' for Active; 'I' for Inactive)
REMARK    5  A    between atoms: CA   and  CB  
REMARK    6  A    between atoms: CB   and  CG  
REMARK    7  A    between atoms: CG   and  CD  
ROOT
ATOM     14  CA  GLU D 570     -18.033  -6.348 -13.375  1.00 32.92     0.160 C 
ENDROOT
BRANCH  14  15
ATOM     15  CB  GLU D 570     -19.500  -6.345 -13.794  1.00 32.92     0.043 C 
BRANCH  15  16
ATOM     16  CG  GLU D 570     -20.439  -5.519 -12.992  1.00 32.92     0.100 C 
BRANCH  16  17
ATOM     17  CD  GLU D 570     -21.524  -4.881 -13.828  1.00 32.92     0.185 C 
ATOM     18  OE1 GLU D 570     -21.478  -4.993 -15.068  1.00 32.92    -0.647 OA
ATOM     19  OE2 GLU D 570     -22.422  -4.249 -13.237  1.00 32.92    -0.647 OA
ENDBRANCH  16  17
ENDBRANCH  15  16
ENDBRANCH  14  15
END_RES GLU D 570
ENDMDL
MODEL 6
REMARK VINA RESULT:      -6.9      2.563      5.178
REMARK  8 active torsions:
REMARK  status: ('A' for Active; 'I' for Inactive)
REMARK    1  A    between atoms: CG_2  and  CB_7 
REMARK    2  A    between atoms: CB_7  and  CA_8 
REMARK    3  A    between atoms: CA_8  and  C_9 
REMARK    4  A    between atoms: CA_8  and  N_12 
REMARK    5  A    between atoms: C_9  and  OXT_11 
REMARK       I    between atoms: N_12  and  C_16 
REMARK    6  A    between atoms: C_16  and  C_18 
REMARK    7  A    between atoms: C_18  and  C_19 
REMARK    8  A    between atoms: C_19  and  N_20 
ROOT
ATOM      1  CA  HIS A   1     -23.158  -4.031 -10.473  1.00  0.00     0.188 C 
ENDROOT
BRANCH   1   2
ATOM      2  CB  HIS A   1     -23.428  -5.232 -11.391  1.00  0.00     0.094 C 
BRANCH   2   3
ATOM      3  CG  HIS A   1     -23.102  -4.980 -12.834  1.00  0.00     0.028 A 
ATOM      4  CD2 HIS A   1     -23.468  -5.663 -13.975  1.00  0.00     0.114 A 
ATOM      5  NE2 HIS A   1     -22.900  -5.102 -15.088  1.00  0.00    -0.360 N 
ATOM      6  CE1 HIS A   1     -22.215  -4.073 -14.648  1.00  0.00     0.180 A 
ATOM      7  HE2 HIS A   1     -22.991  -5.417 -16.053  1.00  0.00     0.166 HD
ATOM      8  ND1 HIS A   1     -22.341  -3.930 -13.296  1.00  0.00    -0.354 N 
ATOM      9  HD1 HIS A   1     -21.914  -3.197 -12.748  1.00  0.00     0.166 HD
ENDBRANCH   2   3
ENDBRANCH   1   2
BRANCH   1  10
ATOM     10  C   HIS A   1     -24.431  -3.582  -9.750  1.00  0.00     0.163 C 
ATOM     11  O   HIS A   1     -25.424  -3.130 -10.295  1.00  0.00    -0.648 OA
BRANCH  10  12
ATOM     12  OXT HIS A   1     -24.335  -3.675  -8.398  1.00  0.00    -0.775 OA
ATOM     13  HXT HIS A   1     -23.810  -4.456  -8.106  1.00  0.00     0.167 HD
ENDBRANCH  10  12
ENDBRANCH   1  10
BRANCH   1  14
ATOM     14  N   HIS A   1     -22.099  -4.304  -9.493  1.00  0.00    -0.346 N 
HETATM   15  C   UNK A   0     -20.777  -4.084  -9.786  1.00  0.00     0.220 C 
HETATM   16  O   UNK A   0     -20.456  -3.586 -10.862  1.00  0.00    -0.274 OA
ATOM     17  H   HIS A   1     -22.368  -4.414  -8.519  1.00  0.00     0.163 HD
BRANCH  15  18
HETATM   18  C   UNK A   0     -19.813  -4.435  -8.677  1.00  0.00     0.132 C 
BRANCH  18  19
HETATM   19  C   UNK A   0     -20.562  -4.976  -7.463  1.00  0.00     0.276 C 
BRANCH  19  20
HETATM   20  N   UNK A   0     -20.215  -6.372  -7.210  1.00  0.00     0.078 N 
HETATM   21  H   UNK A   0     -20.384  -6.600  -6.230  1.00  0.00     0.312 HD
HETATM   22  H   UNK A   0     -19.212  -6.498  -7.353  1.00  0.00     0.312 HD
ENDBRANCH  19  20
ENDBRANCH  18  19
ENDBRANCH  15  18
ENDBRANCH   1  14
TORSDOF 8
BEGIN_RES ARG D 557
REMARK  4 active torsions:
REMARK  status: ('A' for Active; 'I' for Inactive)
REMARK    1  A    between atoms: CA   and  CB  
REMARK    2  A    between atoms: CB   and  CG  
REMARK    3  A    between atoms: CG   and  CD  
REMARK    4  A    between atoms: CD   and  NE  
REMARK       I    between atoms: NE   and  CZ  
REMARK       I    between atoms: CZ   and  NH1 
REMARK       I    between atoms: CZ   and  NH2 
ROOT
ATOM      1  CA  ARG D 557     -26.217   2.705 -17.014  1.00 35.49     0.159 C 
ENDROOT
BRANCH   1   2
ATOM      2  CB  ARG D 557     -26.789   1.319 -17.183  1.00 35.49     0.034 C 
BRANCH   2   3
ATOM      3  CG  ARG D 557     -25.954   0.200 -16.731  1.00 35.49     0.027 C 
BRANCH   3   4
ATOM      4  CD  ARG D 557     -26.758  -0.939 -16.232  1.00 35.49     0.116 C 
BRANCH   4   5
ATOM      5  NE  ARG D 557     -26.274  -1.435 -14.971  1.00 35.49    -0.212 N 
ATOM      6  CZ  ARG D 557     -26.207  -2.699 -14.617  1.00 35.49     0.666 C 
ATOM      7  NH1 ARG D 557     -26.605  -3.678 -15.407  1.00 35.49    -0.235 N 
ATOM      8  NH2 ARG D 557     -25.719  -2.967 -13.440  1.00 35.49    -0.235 N 
ATOM      9  HH  ARG D 557     -26.928  -3.525 -16.186  1.00 35.49     0.174 HD
ATOM     10  HH  ARG D 557     -26.535  -4.484 -15.123  1.00 35.49     0.174 HD
ATOM     11  HH  ARG D 557     -25.462  -2.315 -12.955  1.00 35.49     0.174 HD
ATOM     12  HH  ARG D 557     -25.656  -3.771 -13.178  1.00 35.49     0.174 HD
ATOM     13  HE  ARG D 557     -26.063  -0.867 -14.373  1.00 35.49     0.178 HD
ENDBRANCH   4   5
ENDBRANCH   3   4
ENDBRANCH   2   3
ENDBRANCH   1   2
END_RES ARG D 557
BEGIN_RES GLU D 570
REMARK  3 active torsions:
REMARK  status: ('A' for Active; 'I' for Inactive)
REMARK    5  A    between atoms: CA   and  CB  
REMARK    6  A    between atoms: CB   and  CG  
REMARK    7  A    between atoms: CG   and  CD  
ROOT
ATOM     14  CA  GLU D 570     -18.033  -6.348 -13.375  1.00 32.92     0.160 C 
ENDROOT
BRANCH  14  15
ATOM     15  CB  GLU D 570     -19.500  -6.345 -13.794  1.00 32.92     0.043 C 
BRANCH  15  16
ATOM     16  CG  GLU D 570     -20.088  -7.636 -14.236  1.00 32.92     0.100 C 
BRANCH  16  17
ATOM     17  CD  GLU D 570     -20.677  -7.570 -15.626  1.00 32.92     0.185 C 
ATOM     18  OE1 GLU D 570     -21.350  -8.532 -16.044  1.00 32.92    -0.647 OA
ATOM     19  OE2 GLU D 570     -20.448  -6.553 -16.310  1.00 32.92    -0.647 OA
ENDBRANCH  16  17
ENDBRANCH  15  16
ENDBRANCH  14  15
END_RES GLU D 570
ENDMDL
MODEL 7
REMARK VINA RESULT:      -6.8      3.003      5.275
REMARK  8 active torsions:
REMARK  status: ('A' for Active; 'I' for Inactive)
REMARK    1  A    between atoms: CG_2  and  CB_7 
REMARK    2  A    between atoms: CB_7  and  CA_8 
REMARK    3  A    between atoms: CA_8  and  C_9 
REMARK    4  A    between atoms: CA_8  and  N_12 
REMARK    5  A    between atoms: C_9  and  OXT_11 
REMARK       I    between atoms: N_12  and  C_16 
REMARK    6  A    between atoms: C_16  and  C_18 
REMARK    7  A    between atoms: C_18  and  C_19 
REMARK    8  A    between atoms: C_19  and  N_20 
ROOT
ATOM      1  CA  HIS A   1     -26.498  -6.295 -16.446  1.00  0.00     0.188 C 
ENDROOT
BRANCH   1   2
ATOM      2  CB  HIS A   1     -27.584  -7.192 -15.833  1.00  0.00     0.094 C 
BRANCH   2   3
ATOM      3  CG  HIS A   1     -28.946  -6.993 -16.430  1.00  0.00     0.028 A 
ATOM      4  CD2 HIS A   1     -29.892  -6.013 -16.216  1.00  0.00     0.114 A 
ATOM      5  NE2 HIS A   1     -31.023  -6.251 -16.950  1.00  0.00    -0.360 N 
ATOM      6  CE1 HIS A   1     -30.774  -7.346 -17.628  1.00  0.00     0.180 A 
ATOM      7  HE2 HIS A   1     -31.878  -5.695 -16.966  1.00  0.00     0.166 HD
ATOM      8  ND1 HIS A   1     -29.514  -7.809 -17.382  1.00  0.00    -0.354 N 
ATOM      9  HD1 HIS A   1     -29.103  -8.629 -17.808  1.00  0.00     0.166 HD
ENDBRANCH   2   3
ENDBRANCH   1   2
BRANCH   1  10
ATOM     10  C   HIS A   1     -25.240  -6.264 -15.574  1.00  0.00     0.163 C 
ATOM     11  O   HIS A   1     -24.699  -7.244 -15.089  1.00  0.00    -0.648 OA
BRANCH  10  12
ATOM     12  OXT HIS A   1     -24.796  -5.004 -15.325  1.00  0.00    -0.775 OA
ATOM     13  HXT HIS A   1     -24.127  -4.700 -15.982  1.00  0.00     0.167 HD
ENDBRANCH  10  12
ENDBRANCH   1  10
BRANCH   1  14
ATOM     14  N   HIS A   1     -26.147  -6.698 -17.814  1.00  0.00    -0.346 N 
HETATM   15  C   UNK A   0     -26.844  -6.233 -18.899  1.00  0.00     0.220 C 
HETATM   16  O   UNK A   0     -27.742  -5.409 -18.752  1.00  0.00    -0.274 OA
ATOM     17  H   HIS A   1     -25.234  -7.118 -17.966  1.00  0.00     0.163 HD
BRANCH  15  18
HETATM   18  C   UNK A   0     -26.368  -6.760 -20.234  1.00  0.00     0.132 C 
BRANCH  18  19
HETATM   19  C   UNK A   0     -24.923  -7.239 -20.139  1.00  0.00     0.276 C 
BRANCH  19  20
HETATM   20  N   UNK A   0     -24.648  -8.281 -21.125  1.00  0.00     0.078 N 
HETATM   21  H   UNK A   0     -23.850  -8.841 -20.827  1.00  0.00     0.312 HD
HETATM   22  H   UNK A   0     -24.365  -7.843 -22.003  1.00  0.00     0.312 HD
ENDBRANCH  19  20
ENDBRANCH  18  19
ENDBRANCH  15  18
ENDBRANCH   1  14
TORSDOF 8
BEGIN_RES ARG D 557
REMARK  4 active torsions:
REMARK  status: ('A' for Active; 'I' for Inactive)
REMARK    1  A    between atoms: CA   and  CB  
REMARK    2  A    between atoms: CB   and  CG  
REMARK    3  A    between atoms: CG   and  CD  
REMARK    4  A    between atoms: CD   and  NE  
REMARK       I    between atoms: NE   and  CZ  
REMARK       I    between atoms: CZ   and  NH1 
REMARK       I    between atoms: CZ   and  NH2 
ROOT
ATOM      1  CA  ARG D 557     -26.217   2.705 -17.014  1.00 35.49     0.159 C 
ENDROOT
BRANCH   1   2
ATOM      2  CB  ARG D 557     -26.789   1.319 -17.183  1.00 35.49     0.034 C 
BRANCH   2   3
ATOM      3  CG  ARG D 557     -28.237   1.174 -16.991  1.00 35.49     0.027 C 
BRANCH   3   4
ATOM      4  CD  ARG D 557     -28.634  -0.228 -16.729  1.00 35.49     0.116 C 
BRANCH   4   5
ATOM      5  NE  ARG D 557     -27.624  -0.951 -16.002  1.00 35.49    -0.212 N 
ATOM      6  CZ  ARG D 557     -27.408  -2.246 -16.069  1.00 35.49     0.666 C 
ATOM      7  NH1 ARG D 557     -28.133  -3.047 -16.827  1.00 35.49    -0.235 N 
ATOM      8  NH2 ARG D 557     -26.433  -2.729 -15.355  1.00 35.49    -0.235 N 
ATOM      9  HH  ARG D 557     -28.778  -2.751 -17.307  1.00 35.49     0.174 HD
ATOM     10  HH  ARG D 557     -27.944  -3.883 -16.832  1.00 35.49     0.174 HD
ATOM     11  HH  ARG D 557     -25.977  -2.186 -14.880  1.00 35.49     0.174 HD
ATOM     12  HH  ARG D 557     -26.261  -3.559 -15.375  1.00 35.49     0.174 HD
ATOM     13  HE  ARG D 557     -27.158  -0.523 -15.434  1.00 35.49     0.178 HD
ENDBRANCH   4   5
ENDBRANCH   3   4
ENDBRANCH   2   3
ENDBRANCH   1   2
END_RES ARG D 557
BEGIN_RES GLU D 570
REMARK  3 active torsions:
REMARK  status: ('A' for Active; 'I' for Inactive)
REMARK    5  A    between atoms: CA   and  CB  
REMARK    6  A    between atoms: CB   and  CG  
REMARK    7  A    between atoms: CG   and  CD  
ROOT
ATOM     14  CA  GLU D 570     -18.033  -6.348 -13.375  1.00 32.92     0.160 C 
ENDROOT
BRANCH  14  15
ATOM     15  CB  GLU D 570     -19.500  -6.345 -13.794  1.00 32.92     0.043 C 
BRANCH  15  16
ATOM     16  CG  GLU D 570     -20.436  -5.505 -13.003  1.00 32.92     0.100 C 
BRANCH  16  17
ATOM     17  CD  GLU D 570     -21.734  -5.228 -13.726  1.00 32.92     0.185 C 
ATOM     18  OE1 GLU D 570     -22.781  -5.105 -13.063  1.00 32.92    -0.647 OA
ATOM     19  OE2 GLU D 570     -21.705  -5.150 -14.970  1.00 32.92    -0.647 OA
ENDBRANCH  16  17
ENDBRANCH  15  16
ENDBRANCH  14  15
END_RES GLU D 570
ENDMDL
MODEL 8
REMARK VINA RESULT:      -6.5      4.913      7.435
REMARK  8 active torsions:
REMARK  status: ('A' for Active; 'I' for Inactive)
REMARK    1  A    between atoms: CG_2  and  CB_7 
REMARK    2  A    between atoms: CB_7  and  CA_8 
REMARK    3  A    between atoms: CA_8  and  C_9 
REMARK    4  A    between atoms: CA_8  and  N_12 
REMARK    5  A    between atoms: C_9  and  OXT_11 
REMARK       I    between atoms: N_12  and  C_16 
REMARK    6  A    between atoms: C_16  and  C_18 
REMARK    7  A    between atoms: C_18  and  C_19 
REMARK    8  A    between atoms: C_19  and  N_20 
ROOT
ATOM      1  CA  HIS A   1     -21.317  -5.283  -6.658  1.00  0.00     0.188 C 
ENDROOT
BRANCH   1   2
ATOM      2  CB  HIS A   1     -21.854  -3.957  -7.218  1.00  0.00     0.094 C 
BRANCH   2   3
ATOM      3  CG  HIS A   1     -22.699  -4.115  -8.448  1.00  0.00     0.028 A 
ATOM      4  CD2 HIS A   1     -22.391  -4.610  -9.698  1.00  0.00     0.114 A 
ATOM      5  NE2 HIS A   1     -23.467  -4.524 -10.541  1.00  0.00    -0.360 N 
ATOM      6  CE1 HIS A   1     -24.434  -4.009  -9.819  1.00  0.00     0.180 A 
ATOM      7  HE2 HIS A   1     -23.508  -4.801 -11.521  1.00  0.00     0.166 HD
ATOM      8  ND1 HIS A   1     -24.033  -3.785  -8.534  1.00  0.00    -0.354 N 
ATOM      9  HD1 HIS A   1     -24.617  -3.409  -7.800  1.00  0.00     0.166 HD
ENDBRANCH   2   3
ENDBRANCH   1   2
BRANCH   1  10
ATOM     10  C   HIS A   1     -19.865  -5.522  -7.082  1.00  0.00     0.163 C 
ATOM     11  O   HIS A   1     -19.103  -4.661  -7.488  1.00  0.00    -0.648 OA
BRANCH  10  12
ATOM     12  OXT HIS A   1     -19.503  -6.831  -7.024  1.00  0.00    -0.775 OA
ATOM     13  HXT HIS A   1     -20.276  -7.435  -6.927  1.00  0.00     0.167 HD
ENDBRANCH  10  12
ENDBRANCH   1  10
BRANCH   1  14
ATOM     14  N   HIS A   1     -21.427  -5.356  -5.195  1.00  0.00    -0.346 N 
HETATM   15  C   UNK A   0     -21.742  -6.530  -4.558  1.00  0.00     0.220 C 
HETATM   16  O   UNK A   0     -21.874  -7.567  -5.201  1.00  0.00    -0.274 OA
ATOM     17  H   HIS A   1     -21.022  -4.601  -4.649  1.00  0.00     0.163 HD
BRANCH  15  18
HETATM   18  C   UNK A   0     -21.836  -6.430  -3.053  1.00  0.00     0.132 C 
BRANCH  18  19
HETATM   19  C   UNK A   0     -20.967  -7.492  -2.388  1.00  0.00     0.276 C 
BRANCH  19  20
HETATM   20  N   UNK A   0     -21.582  -8.814  -2.490  1.00  0.00     0.078 N 
HETATM   21  H   UNK A   0     -22.580  -8.720  -2.678  1.00  0.00     0.312 HD
HETATM   22  H   UNK A   0     -21.515  -9.283  -1.586  1.00  0.00     0.312 HD
ENDBRANCH  19  20
ENDBRANCH  18  19
ENDBRANCH  15  18
ENDBRANCH   1  14
TORSDOF 8
BEGIN_RES ARG D 557
REMARK  4 active torsions:
REMARK  status: ('A' for Active; 'I' for Inactive)
REMARK    1  A    between atoms: CA   and  CB  
REMARK    2  A    between atoms: CB   and  CG  
REMARK    3  A    between atoms: CG   and  CD  
REMARK    4  A    between atoms: CD   and  NE  
REMARK       I    between atoms: NE   and  CZ  
REMARK       I    between atoms: CZ   and  NH1 
REMARK       I    between atoms: CZ   and  NH2 
ROOT
ATOM      1  CA  ARG D 557     -26.217   2.705 -17.014  1.00 35.49     0.159 C 
ENDROOT
BRANCH   1   2
ATOM      2  CB  ARG D 557     -26.789   1.319 -17.183  1.00 35.49     0.034 C 
BRANCH   2   3
ATOM      3  CG  ARG D 557     -25.836   0.203 -17.155  1.00 35.49     0.027 C 
BRANCH   3   4
ATOM      4  CD  ARG D 557     -24.761   0.404 -16.156  1.00 35.49     0.116 C 
BRANCH   4   5
ATOM      5  NE  ARG D 557     -24.920  -0.452 -15.009  1.00 35.49    -0.212 N 
ATOM      6  CZ  ARG D 557     -24.109  -1.425 -14.659  1.00 35.49     0.666 C 
ATOM      7  NH1 ARG D 557     -23.034  -1.738 -15.357  1.00 35.49    -0.235 N 
ATOM      8  NH2 ARG D 557     -24.397  -2.085 -13.575  1.00 35.49    -0.235 N 
ATOM      9  HH  ARG D 557     -22.824  -1.315 -16.073  1.00 35.49     0.174 HD
ATOM     10  HH  ARG D 557     -22.540  -2.381 -15.079  1.00 35.49     0.174 HD
ATOM     11  HH  ARG D 557     -25.094  -1.856 -13.140  1.00 35.49     0.174 HD
ATOM     12  HH  ARG D 557     -23.896  -2.717 -13.315  1.00 35.49     0.174 HD
ATOM     13  HE  ARG D 557     -25.626  -0.368 -14.543  1.00 35.49     0.178 HD
ENDBRANCH   4   5
ENDBRANCH   3   4
ENDBRANCH   2   3
ENDBRANCH   1   2
END_RES ARG D 557
BEGIN_RES GLU D 570
REMARK  3 active torsions:
REMARK  status: ('A' for Active; 'I' for Inactive)
REMARK    5  A    between atoms: CA   and  CB  
REMARK    6  A    between atoms: CB   and  CG  
REMARK    7  A    between atoms: CG   and  CD  
ROOT
ATOM     14  CA  GLU D 570     -18.033  -6.348 -13.375  1.00 32.92     0.160 C 
ENDROOT
BRANCH  14  15
ATOM     15  CB  GLU D 570     -19.500  -6.345 -13.794  1.00 32.92     0.043 C 
BRANCH  15  16
ATOM     16  CG  GLU D 570     -20.449  -5.566 -12.958  1.00 32.92     0.100 C 
BRANCH  16  17
ATOM     17  CD  GLU D 570     -21.739  -5.242 -13.676  1.00 32.92     0.185 C 
ATOM     18  OE1 GLU D 570     -22.179  -6.045 -14.521  1.00 32.92    -0.647 OA
ATOM     19  OE2 GLU D 570     -22.306  -4.166 -13.403  1.00 32.92    -0.647 OA
ENDBRANCH  16  17
ENDBRANCH  15  16
ENDBRANCH  14  15
END_RES GLU D 570
ENDMDL
MODEL 9
REMARK VINA RESULT:      -6.4      3.304      6.737
REMARK  8 active torsions:
REMARK  status: ('A' for Active; 'I' for Inactive)
REMARK    1  A    between atoms: CG_2  and  CB_7 
REMARK    2  A    between atoms: CB_7  and  CA_8 
REMARK    3  A    between atoms: CA_8  and  C_9 
REMARK    4  A    between atoms: CA_8  and  N_12 
REMARK    5  A    between atoms: C_9  and  OXT_11 
REMARK       I    between atoms: N_12  and  C_16 
REMARK    6  A    between atoms: C_16  and  C_18 
REMARK    7  A    between atoms: C_18  and  C_19 
REMARK    8  A    between atoms: C_19  and  N_20 
ROOT
ATOM      1  CA  HIS A   1     -27.585  -6.629 -17.588  1.00  0.00     0.188 C 
ENDROOT
BRANCH   1   2
ATOM      2  CB  HIS A   1     -27.021  -5.991 -18.866  1.00  0.00     0.094 C 
BRANCH   2   3
ATOM      3  CG  HIS A   1     -25.954  -6.807 -19.533  1.00  0.00     0.028 A 
ATOM      4  CD2 HIS A   1     -24.624  -6.990 -19.216  1.00  0.00     0.114 A 
ATOM      5  NE2 HIS A   1     -24.003  -7.792 -20.136  1.00  0.00    -0.360 N 
ATOM      6  CE1 HIS A   1     -24.937  -8.123 -20.996  1.00  0.00     0.180 A 
ATOM      7  HE2 HIS A   1     -23.023  -8.072 -20.150  1.00  0.00     0.166 HD
ATOM      8  ND1 HIS A   1     -26.145  -7.588 -20.651  1.00  0.00    -0.354 N 
ATOM      9  HD1 HIS A   1     -27.007  -7.725 -21.161  1.00  0.00     0.166 HD
ENDBRANCH   2   3
ENDBRANCH   1   2
BRANCH   1  10
ATOM     10  C   HIS A   1     -26.691  -6.344 -16.378  1.00  0.00     0.163 C 
ATOM     11  O   HIS A   1     -26.167  -5.269 -16.131  1.00  0.00    -0.648 OA
BRANCH  10  12
ATOM     12  OXT HIS A   1     -26.471  -7.441 -15.608  1.00  0.00    -0.775 OA
ATOM     13  HXT HIS A   1     -26.816  -7.338 -14.690  1.00  0.00     0.167 HD
ENDBRANCH  10  12
ENDBRANCH   1  10
BRANCH   1  14
ATOM     14  N   HIS A   1     -28.959  -6.194 -17.305  1.00  0.00    -0.346 N 
HETATM   15  C   UNK A   0     -30.036  -6.998 -17.579  1.00  0.00     0.220 C 
HETATM   16  O   UNK A   0     -29.866  -8.136 -18.007  1.00  0.00    -0.274 OA
ATOM     17  H   HIS A   1     -29.089  -5.405 -16.678  1.00  0.00     0.163 HD
BRANCH  15  18
HETATM   18  C   UNK A   0     -31.381  -6.393 -17.248  1.00  0.00     0.132 C 
BRANCH  18  19
HETATM   19  C   UNK A   0     -31.226  -4.936 -16.825  1.00  0.00     0.276 C 
BRANCH  19  20
HETATM   20  N   UNK A   0     -32.453  -4.433 -16.212  1.00  0.00     0.078 N 
HETATM   21  H   UNK A   0     -32.648  -4.945 -15.352  1.00  0.00     0.312 HD
HETATM   22  H   UNK A   0     -33.240  -4.629 -16.833  1.00  0.00     0.312 HD
ENDBRANCH  19  20
ENDBRANCH  18  19
ENDBRANCH  15  18
ENDBRANCH   1  14
TORSDOF 8
BEGIN_RES ARG D 557
REMARK  4 active torsions:
REMARK  status: ('A' for Active; 'I' for Inactive)
REMARK    1  A    between atoms: CA   and  CB  
REMARK    2  A    between atoms: CB   and  CG  
REMARK    3  A    between atoms: CG   and  CD  
REMARK    4  A    between atoms: CD   and  NE  
REMARK       I    between atoms: NE   and  CZ  
REMARK       I    between atoms: CZ   and  NH1 
REMARK       I    between atoms: CZ   and  NH2 
ROOT
ATOM      1  CA  ARG D 557     -26.217   2.705 -17.014  1.00 35.49     0.159 C 
ENDROOT
BRANCH   1   2
ATOM      2  CB  ARG D 557     -26.789   1.319 -17.183  1.00 35.49     0.034 C 
BRANCH   2   3
ATOM      3  CG  ARG D 557     -25.856   0.196 -17.028  1.00 35.49     0.027 C 
BRANCH   3   4
ATOM      4  CD  ARG D 557     -26.224  -0.692 -15.902  1.00 35.49     0.116 C 
BRANCH   4   5
ATOM      5  NE  ARG D 557     -25.166  -0.805 -14.933  1.00 35.49    -0.212 N 
ATOM      6  CZ  ARG D 557     -24.788  -1.912 -14.334  1.00 35.49     0.666 C 
ATOM      7  NH1 ARG D 557     -25.371  -3.075 -14.559  1.00 35.49    -0.235 N 
ATOM      8  NH2 ARG D 557     -23.794  -1.833 -13.498  1.00 35.49    -0.235 N 
ATOM      9  HH  ARG D 557     -26.025  -3.151 -15.107  1.00 35.49     0.174 HD
ATOM     10  HH  ARG D 557     -25.080  -3.764 -14.142  1.00 35.49     0.174 HD
ATOM     11  HH  ARG D 557     -23.432  -1.070 -13.378  1.00 35.49     0.174 HD
ATOM     12  HH  ARG D 557     -23.519  -2.527 -13.095  1.00 35.49     0.174 HD
ATOM     13  HE  ARG D 557     -24.784  -0.091 -14.674  1.00 35.49     0.178 HD
ENDBRANCH   4   5
ENDBRANCH   3   4
ENDBRANCH   2   3
ENDBRANCH   1   2
END_RES ARG D 557
BEGIN_RES GLU D 570
REMARK  3 active torsions:
REMARK  status: ('A' for Active; 'I' for Inactive)
REMARK    5  A    between atoms: CA   and  CB  
REMARK    6  A    between atoms: CB   and  CG  
REMARK    7  A    between atoms: CG   and  CD  
ROOT
ATOM     14  CA  GLU D 570     -18.033  -6.348 -13.375  1.00 32.92     0.160 C 
ENDROOT
BRANCH  14  15
ATOM     15  CB  GLU D 570     -19.500  -6.345 -13.794  1.00 32.92     0.043 C 
BRANCH  15  16
ATOM     16  CG  GLU D 570     -20.435  -5.500 -13.007  1.00 32.92     0.100 C 
BRANCH  16  17
ATOM     17  CD  GLU D 570     -21.772  -5.310 -13.686  1.00 32.92     0.185 C 
ATOM     18  OE1 GLU D 570     -22.441  -4.292 -13.429  1.00 32.92    -0.647 OA
ATOM     19  OE2 GLU D 570     -22.160  -6.199 -14.470  1.00 32.92    -0.647 OA
ENDBRANCH  16  17
ENDBRANCH  15  16
ENDBRANCH  14  15
END_RES GLU D 570
ENDMDL
