MODEL 1
REMARK VINA RESULT:      -9.5      0.000      0.000
REMARK  19 active torsions:
REMARK  status: ('A' for Active; 'I' for Inactive)
REMARK    1  A    between atoms: C_2  and  C_3 
REMARK    2  A    between atoms: C_3  and  C_4 
REMARK    3  A    between atoms: C_4  and  C_5 
REMARK    4  A    between atoms: C_5  and  C_6 
REMARK       I    between atoms: C_6  and  N_8 
REMARK    5  A    between atoms: N_8  and  C_9 
REMARK    6  A    between atoms: C_9  and  C_10 
REMARK       I    between atoms: C_10  and  N_13 
REMARK    7  A    between atoms: N_13  and  CA_14 
REMARK    8  A    between atoms: CA_14  and  CB_15 
REMARK    9  A    between atoms: CA_14  and  C_20 
REMARK   10  A    between atoms: CB_15  and  CG_16 
REMARK   11  A    between atoms: CG_16  and  CD_17 
REMARK       I    between atoms: CD_17  and  NE2_19 
REMARK       I    between atoms: C_20  and  N_25 
REMARK   12  A    between atoms: CA_29  and  C_30 
REMARK       I    between atoms: C_30  and  N_32 
REMARK   13  A    between atoms: N_32  and  CA_33 
REMARK   14  A    between atoms: CA_33  and  CB_34 
REMARK   15  A    between atoms: CA_33  and  C_42 
REMARK   16  A    between atoms: CB_34  and  CG_35 
REMARK   17  A    between atoms: CG_35  and  CD_36 
REMARK   18  A    between atoms: CD_36  and  NE_37 
REMARK       I    between atoms: NE_37  and  CZ_39 
REMARK       I    between atoms: CZ_39  and  NH1_40 
REMARK   19  A    between atoms: C_42  and  OXT_44 
ROOT
ATOM      1  C   GLN A   1     -27.384  -6.745 -15.962  1.00  0.00     0.243 C 
ATOM      2  O   GLN A   1     -27.620  -7.115 -14.807  1.00  0.00    -0.271 OA
ATOM      3  N   PRO A   2     -26.075  -6.624 -16.397  1.00  0.00    -0.337 N 
ATOM      4  CD  PRO A   2     -25.599  -6.246 -17.714  1.00  0.00     0.127 C 
ATOM      5  CG  PRO A   2     -24.444  -7.187 -17.972  1.00  0.00     0.022 C 
ATOM      6  CB  PRO A   2     -23.816  -7.381 -16.601  1.00  0.00     0.037 C 
ATOM      7  CA  PRO A   2     -24.935  -7.074 -15.581  1.00  0.00     0.179 C 
ENDROOT
BRANCH   1   8
ATOM      8  CA  GLN A   1     -28.547  -6.366 -16.924  1.00  0.00     0.177 C 
BRANCH   8   9
ATOM      9  N   GLN A   1     -29.093  -7.594 -17.519  1.00  0.00    -0.346 N 
HETATM   10  C   UNK A   0     -29.233  -7.872 -18.855  1.00  0.00     0.236 C 
HETATM   11  O   UNK A   0     -29.746  -8.935 -19.202  1.00  0.00    -0.272 OA
ATOM     12  H   GLN A   1     -29.529  -8.265 -16.892  1.00  0.00     0.163 HD
BRANCH  10  13
HETATM   13  C   UNK A   0     -28.609  -6.910 -19.869  1.00  0.00     0.225 C 
BRANCH  13  14
HETATM   14  N   UNK A   0     -27.219  -7.267 -20.085  1.00  0.00    -0.352 N 
HETATM   15  C   UNK A   0     -26.878  -8.178 -21.056  1.00  0.00     0.217 C 
HETATM   16  O   UNK A   0     -27.706  -8.760 -21.748  1.00  0.00    -0.274 OA
HETATM   17  H   UNK A   0     -26.541  -7.006 -19.379  1.00  0.00     0.162 HD
BRANCH  15  18
HETATM   18  C   UNK A   0     -25.385  -8.413 -21.173  1.00  0.00     0.103 C 
BRANCH  18  19
HETATM   19  C   UNK A   0     -24.643  -7.192 -21.718  1.00  0.00     0.009 C 
BRANCH  19  20
HETATM   20  C   UNK A   0     -23.682  -7.547 -22.860  1.00  0.00     0.000 C 
BRANCH  20  21
HETATM   21  C   UNK A   0     -22.984  -8.883 -22.606  1.00  0.00    -0.005 C 
HETATM   22  C   UNK A   0     -21.886  -8.749 -21.564  1.00  0.00     0.005 C 
ENDBRANCH  20  21
ENDBRANCH  19  20
ENDBRANCH  18  19
ENDBRANCH  15  18
ENDBRANCH  13  14
ENDBRANCH  10  13
ENDBRANCH   8   9
BRANCH   8  23
ATOM     23  CB  GLN A   1     -29.692  -5.612 -16.235  1.00  0.00     0.044 C 
BRANCH  23  24
ATOM     24  CG  GLN A   1     -31.054  -5.692 -16.912  1.00  0.00     0.105 C 
BRANCH  24  25
ATOM     25  CD  GLN A   1     -31.894  -4.444 -16.772  1.00  0.00     0.215 C 
ATOM     26  OE1 GLN A   1     -31.805  -3.460 -17.494  1.00  0.00    -0.274 OA
ATOM     27  NE2 GLN A   1     -32.740  -4.462 -15.703  1.00  0.00    -0.370 N 
ATOM     28 1HE2 GLN A   1     -32.885  -5.311 -15.157  1.00  0.00     0.159 HD
ATOM     29 2HE2 GLN A   1     -33.329  -3.657 -15.539  1.00  0.00     0.159 HD
ENDBRANCH  24  25
ENDBRANCH  23  24
ENDBRANCH   8  23
ENDBRANCH   1   8
BRANCH   7  30
ATOM     30  C   PRO A   2     -24.415  -6.016 -14.583  1.00  0.00     0.241 C 
ATOM     31  O   PRO A   2     -23.905  -6.322 -13.504  1.00  0.00    -0.271 OA
ATOM     32  N   ARG A   3     -24.646  -4.703 -14.911  1.00  0.00    -0.345 N 
ATOM     33  H   ARG A   3     -25.336  -4.501 -15.636  1.00  0.00     0.163 HD
BRANCH  32  34
ATOM     34  CA  ARG A   3     -24.221  -3.610 -14.044  1.00  0.00     0.182 C 
BRANCH  34  35
ATOM     35  CB  ARG A   3     -22.688  -3.605 -13.854  1.00  0.00     0.038 C 
BRANCH  35  36
ATOM     36  CG  ARG A   3     -22.191  -3.464 -12.406  1.00  0.00     0.023 C 
BRANCH  36  37
ATOM     37  CD  ARG A   3     -23.300  -3.520 -11.363  1.00  0.00     0.138 C 
BRANCH  37  38
ATOM     38  NE  ARG A   3     -22.757  -3.971 -10.093  1.00  0.00    -0.227 N 
ATOM     39  CZ  ARG A   3     -23.515  -3.784  -9.074  1.00  0.00     0.665 C 
ATOM     40  NH1 ARG A   3     -24.770  -3.266  -9.018  1.00  0.00    -0.235 N 
ATOM     41  NH2 ARG A   3     -23.029  -4.036  -7.847  1.00  0.00    -0.235 N 
ATOM     42 HH11 ARG A   3     -25.274  -3.135  -9.886  1.00  0.00     0.174 HD
ATOM     43 HH12 ARG A   3     -25.362  -3.553  -8.254  1.00  0.00     0.174 HD
ATOM     44 HH21 ARG A   3     -22.159  -4.547  -7.865  1.00  0.00     0.174 HD
ATOM     45 HH22 ARG A   3     -23.673  -4.359  -7.143  1.00  0.00     0.174 HD
ATOM     46  HE  ARG A   3     -21.838  -4.407 -10.016  1.00  0.00     0.177 HD
ENDBRANCH  37  38
ENDBRANCH  36  37
ENDBRANCH  35  36
ENDBRANCH  34  35
BRANCH  34  47
ATOM     47  C   ARG A   3     -24.774  -2.284 -14.589  1.00  0.00     0.163 C 
ATOM     48  O   ARG A   3     -25.921  -1.895 -14.405  1.00  0.00    -0.648 OA
BRANCH  47  49
ATOM     49  OXT ARG A   3     -23.897  -1.572 -15.336  1.00  0.00    -0.775 OA
ATOM     50  HXT ARG A   3     -23.900  -0.610 -15.166  1.00  0.00     0.167 HD
ENDBRANCH  47  49
ENDBRANCH  34  47
ENDBRANCH  32  34
ENDBRANCH   7  30
TORSDOF 19
BEGIN_RES ARG D 557
REMARK  4 active torsions:
REMARK  status: ('A' for Active; 'I' for Inactive)
REMARK    1  A    between atoms: CA   and  CB  
REMARK    2  A    between atoms: CB   and  CG  
REMARK    3  A    between atoms: CG   and  CD  
REMARK    4  A    between atoms: CD   and  NE  
REMARK       I    between atoms: NE   and  CZ  
REMARK       I    between atoms: CZ   and  NH1 
REMARK       I    between atoms: CZ   and  NH2 
ROOT
ATOM      1  CA  ARG D 557     -26.217   2.705 -17.014  1.00 35.49     0.159 C 
ENDROOT
BRANCH   1   2
ATOM      2  CB  ARG D 557     -26.789   1.319 -17.183  1.00 35.49     0.034 C 
BRANCH   2   3
ATOM      3  CG  ARG D 557     -28.239   1.223 -17.388  1.00 35.49     0.027 C 
BRANCH   3   4
ATOM      4  CD  ARG D 557     -28.891   0.335 -16.399  1.00 35.49     0.116 C 
BRANCH   4   5
ATOM      5  NE  ARG D 557     -28.131  -0.864 -16.162  1.00 35.49    -0.212 N 
ATOM      6  CZ  ARG D 557     -28.334  -2.029 -16.735  1.00 35.49     0.666 C 
ATOM      7  NH1 ARG D 557     -29.304  -2.229 -17.609  1.00 35.49    -0.235 N 
ATOM      8  NH2 ARG D 557     -27.532  -3.003 -16.416  1.00 35.49    -0.235 N 
ATOM      9  HH  ARG D 557     -29.842  -1.602 -17.835  1.00 35.49     0.174 HD
ATOM     10  HH  ARG D 557     -29.387  -3.010 -17.952  1.00 35.49     0.174 HD
ATOM     11  HH  ARG D 557     -26.911  -2.842 -15.855  1.00 35.49     0.174 HD
ATOM     12  HH  ARG D 557     -27.630  -3.768 -16.768  1.00 35.49     0.174 HD
ATOM     13  HE  ARG D 557     -27.531  -0.844 -15.559  1.00 35.49     0.178 HD
ENDBRANCH   4   5
ENDBRANCH   3   4
ENDBRANCH   2   3
ENDBRANCH   1   2
END_RES ARG D 557
BEGIN_RES GLU D 570
REMARK  3 active torsions:
REMARK  status: ('A' for Active; 'I' for Inactive)
REMARK    5  A    between atoms: CA   and  CB  
REMARK    6  A    between atoms: CB   and  CG  
REMARK    7  A    between atoms: CG   and  CD  
ROOT
ATOM     14  CA  GLU D 570     -18.033  -6.348 -13.375  1.00 32.92     0.160 C 
ENDROOT
BRANCH  14  15
ATOM     15  CB  GLU D 570     -19.500  -6.345 -13.794  1.00 32.92     0.043 C 
BRANCH  15  16
ATOM     16  CG  GLU D 570     -20.093  -7.639 -14.220  1.00 32.92     0.100 C 
BRANCH  16  17
ATOM     17  CD  GLU D 570     -20.452  -7.668 -15.687  1.00 32.92     0.185 C 
ATOM     18  OE1 GLU D 570     -20.547  -6.593 -16.309  1.00 32.92    -0.647 OA
ATOM     19  OE2 GLU D 570     -20.658  -8.778 -16.216  1.00 32.92    -0.647 OA
ENDBRANCH  16  17
ENDBRANCH  15  16
ENDBRANCH  14  15
END_RES GLU D 570
ENDMDL
MODEL 2
REMARK VINA RESULT:      -8.8      1.732      2.649
REMARK  19 active torsions:
REMARK  status: ('A' for Active; 'I' for Inactive)
REMARK    1  A    between atoms: C_2  and  C_3 
REMARK    2  A    between atoms: C_3  and  C_4 
REMARK    3  A    between atoms: C_4  and  C_5 
REMARK    4  A    between atoms: C_5  and  C_6 
REMARK       I    between atoms: C_6  and  N_8 
REMARK    5  A    between atoms: N_8  and  C_9 
REMARK    6  A    between atoms: C_9  and  C_10 
REMARK       I    between atoms: C_10  and  N_13 
REMARK    7  A    between atoms: N_13  and  CA_14 
REMARK    8  A    between atoms: CA_14  and  CB_15 
REMARK    9  A    between atoms: CA_14  and  C_20 
REMARK   10  A    between atoms: CB_15  and  CG_16 
REMARK   11  A    between atoms: CG_16  and  CD_17 
REMARK       I    between atoms: CD_17  and  NE2_19 
REMARK       I    between atoms: C_20  and  N_25 
REMARK   12  A    between atoms: CA_29  and  C_30 
REMARK       I    between atoms: C_30  and  N_32 
REMARK   13  A    between atoms: N_32  and  CA_33 
REMARK   14  A    between atoms: CA_33  and  CB_34 
REMARK   15  A    between atoms: CA_33  and  C_42 
REMARK   16  A    between atoms: CB_34  and  CG_35 
REMARK   17  A    between atoms: CG_35  and  CD_36 
REMARK   18  A    between atoms: CD_36  and  NE_37 
REMARK       I    between atoms: NE_37  and  CZ_39 
REMARK       I    between atoms: CZ_39  and  NH1_40 
REMARK   19  A    between atoms: C_42  and  OXT_44 
ROOT
ATOM      1  C   GLN A   1     -26.942  -6.376 -16.266  1.00  0.00     0.243 C 
ATOM      2  O   GLN A   1     -27.525  -6.440 -15.179  1.00  0.00    -0.271 OA
ATOM      3  N   PRO A   2     -25.560  -6.448 -16.316  1.00  0.00    -0.337 N 
ATOM      4  CD  PRO A   2     -24.702  -6.432 -17.486  1.00  0.00     0.127 C 
ATOM      5  CG  PRO A   2     -23.652  -7.479 -17.187  1.00  0.00     0.022 C 
ATOM      6  CB  PRO A   2     -23.447  -7.373 -15.683  1.00  0.00     0.037 C 
ATOM      7  CA  PRO A   2     -24.750  -6.758 -15.125  1.00  0.00     0.179 C 
ENDROOT
BRANCH   1   8
ATOM      8  CA  GLN A   1     -27.743  -6.169 -17.583  1.00  0.00     0.177 C 
BRANCH   8   9
ATOM      9  N   GLN A   1     -28.725  -7.256 -17.720  1.00  0.00    -0.346 N 
HETATM   10  C   UNK A   0     -29.238  -7.762 -18.889  1.00  0.00     0.236 C 
HETATM   11  O   UNK A   0     -30.085  -8.652 -18.842  1.00  0.00    -0.272 OA
ATOM     12  H   GLN A   1     -29.171  -7.595 -16.872  1.00  0.00     0.163 HD
BRANCH  10  13
HETATM   13  C   UNK A   0     -28.626  -7.301 -20.213  1.00  0.00     0.225 C 
BRANCH  13  14
HETATM   14  N   UNK A   0     -27.178  -7.297 -20.105  1.00  0.00    -0.352 N 
HETATM   15  C   UNK A   0     -26.417  -8.090 -20.931  1.00  0.00     0.217 C 
HETATM   16  O   UNK A   0     -26.903  -8.857 -21.754  1.00  0.00    -0.274 OA
HETATM   17  H   UNK A   0     -26.760  -6.878 -19.283  1.00  0.00     0.162 HD
BRANCH  15  18
HETATM   18  C   UNK A   0     -24.925  -7.943 -20.709  1.00  0.00     0.103 C 
BRANCH  18  19
HETATM   19  C   UNK A   0     -24.195  -7.451 -21.960  1.00  0.00     0.009 C 
BRANCH  19  20
HETATM   20  C   UNK A   0     -23.280  -8.520 -22.569  1.00  0.00     0.000 C 
BRANCH  20  21
HETATM   21  C   UNK A   0     -22.106  -8.840 -21.644  1.00  0.00    -0.005 C 
HETATM   22  C   UNK A   0     -20.923  -9.400 -22.417  1.00  0.00     0.005 C 
ENDBRANCH  20  21
ENDBRANCH  19  20
ENDBRANCH  18  19
ENDBRANCH  15  18
ENDBRANCH  13  14
ENDBRANCH  10  13
ENDBRANCH   8   9
BRANCH   8  23
ATOM     23  CB  GLN A   1     -28.493  -4.832 -17.642  1.00  0.00     0.044 C 
BRANCH  23  24
ATOM     24  CG  GLN A   1     -30.013  -4.910 -17.620  1.00  0.00     0.105 C 
BRANCH  24  25
ATOM     25  CD  GLN A   1     -30.705  -3.571 -17.521  1.00  0.00     0.215 C 
ATOM     26  OE1 GLN A   1     -31.917  -3.416 -17.463  1.00  0.00    -0.274 OA
ATOM     27  NE2 GLN A   1     -29.858  -2.504 -17.574  1.00  0.00    -0.370 N 
ATOM     28 1HE2 GLN A   1     -28.847  -2.628 -17.528  1.00  0.00     0.159 HD
ATOM     29 2HE2 GLN A   1     -30.248  -1.573 -17.521  1.00  0.00     0.159 HD
ENDBRANCH  24  25
ENDBRANCH  23  24
ENDBRANCH   8  23
ENDBRANCH   1   8
BRANCH   7  30
ATOM     30  C   PRO A   2     -24.385  -5.524 -14.271  1.00  0.00     0.241 C 
ATOM     31  O   PRO A   2     -24.439  -4.376 -14.714  1.00  0.00    -0.271 OA
ATOM     32  N   ARG A   3     -23.893  -5.777 -13.014  1.00  0.00    -0.345 N 
ATOM     33  H   ARG A   3     -23.569  -6.722 -12.804  1.00  0.00     0.163 HD
BRANCH  32  34
ATOM     34  CA  ARG A   3     -23.495  -4.698 -12.116  1.00  0.00     0.182 C 
BRANCH  34  35
ATOM     35  CB  ARG A   3     -23.802  -5.050 -10.643  1.00  0.00     0.038 C 
BRANCH  35  36
ATOM     36  CG  ARG A   3     -23.937  -3.858  -9.682  1.00  0.00     0.023 C 
BRANCH  36  37
ATOM     37  CD  ARG A   3     -22.693  -3.596  -8.842  1.00  0.00     0.138 C 
BRANCH  37  38
ATOM     38  NE  ARG A   3     -22.910  -4.066  -7.484  1.00  0.00    -0.227 N 
ATOM     39  CZ  ARG A   3     -22.055  -4.924  -7.057  1.00  0.00     0.665 C 
ATOM     40  NH1 ARG A   3     -20.951  -5.420  -7.674  1.00  0.00    -0.235 N 
ATOM     41  NH2 ARG A   3     -22.268  -5.518  -5.871  1.00  0.00    -0.235 N 
ATOM     42 HH11 ARG A   3     -20.637  -4.973  -8.527  1.00  0.00     0.174 HD
ATOM     43 HH12 ARG A   3     -20.195  -5.744  -7.093  1.00  0.00     0.174 HD
ATOM     44 HH21 ARG A   3     -22.996  -5.073  -5.332  1.00  0.00     0.174 HD
ATOM     45 HH22 ARG A   3     -21.463  -5.779  -5.324  1.00  0.00     0.174 HD
ATOM     46  HE  ARG A   3     -23.687  -3.738  -6.910  1.00  0.00     0.177 HD
ENDBRANCH  37  38
ENDBRANCH  36  37
ENDBRANCH  35  36
ENDBRANCH  34  35
BRANCH  34  47
ATOM     47  C   ARG A   3     -22.020  -4.347 -12.366  1.00  0.00     0.163 C 
ATOM     48  O   ARG A   3     -21.092  -4.771 -11.687  1.00  0.00    -0.648 OA
BRANCH  47  49
ATOM     49  OXT ARG A   3     -21.811  -3.488 -13.392  1.00  0.00    -0.775 OA
ATOM     50  HXT ARG A   3     -22.568  -2.909 -13.603  1.00  0.00     0.167 HD
ENDBRANCH  47  49
ENDBRANCH  34  47
ENDBRANCH  32  34
ENDBRANCH   7  30
TORSDOF 19
BEGIN_RES ARG D 557
REMARK  4 active torsions:
REMARK  status: ('A' for Active; 'I' for Inactive)
REMARK    1  A    between atoms: CA   and  CB  
REMARK    2  A    between atoms: CB   and  CG  
REMARK    3  A    between atoms: CG   and  CD  
REMARK    4  A    between atoms: CD   and  NE  
REMARK       I    between atoms: NE   and  CZ  
REMARK       I    between atoms: CZ   and  NH1 
REMARK       I    between atoms: CZ   and  NH2 
ROOT
ATOM      1  CA  ARG D 557     -26.217   2.705 -17.014  1.00 35.49     0.159 C 
ENDROOT
BRANCH   1   2
ATOM      2  CB  ARG D 557     -26.789   1.319 -17.183  1.00 35.49     0.034 C 
BRANCH   2   3
ATOM      3  CG  ARG D 557     -25.830   0.209 -17.221  1.00 35.49     0.027 C 
BRANCH   3   4
ATOM      4  CD  ARG D 557     -24.661   0.442 -16.343  1.00 35.49     0.116 C 
BRANCH   4   5
ATOM      5  NE  ARG D 557     -24.767  -0.273 -15.098  1.00 35.49    -0.212 N 
ATOM      6  CZ  ARG D 557     -23.988  -1.257 -14.709  1.00 35.49     0.666 C 
ATOM      7  NH1 ARG D 557     -23.000  -1.717 -15.454  1.00 35.49    -0.235 N 
ATOM      8  NH2 ARG D 557     -24.216  -1.776 -13.537  1.00 35.49    -0.235 N 
ATOM      9  HH  ARG D 557     -22.831  -1.389 -16.228  1.00 35.49     0.174 HD
ATOM     10  HH  ARG D 557     -22.524  -2.360 -15.147  1.00 35.49     0.174 HD
ATOM     11  HH  ARG D 557     -24.856  -1.453 -13.074  1.00 35.49     0.174 HD
ATOM     12  HH  ARG D 557     -23.732  -2.410 -13.250  1.00 35.49     0.174 HD
ATOM     13  HE  ARG D 557     -25.422  -0.090 -14.587  1.00 35.49     0.178 HD
ENDBRANCH   4   5
ENDBRANCH   3   4
ENDBRANCH   2   3
ENDBRANCH   1   2
END_RES ARG D 557
BEGIN_RES GLU D 570
REMARK  3 active torsions:
REMARK  status: ('A' for Active; 'I' for Inactive)
REMARK    5  A    between atoms: CA   and  CB  
REMARK    6  A    between atoms: CB   and  CG  
REMARK    7  A    between atoms: CG   and  CD  
ROOT
ATOM     14  CA  GLU D 570     -18.033  -6.348 -13.375  1.00 32.92     0.160 C 
ENDROOT
BRANCH  14  15
ATOM     15  CB  GLU D 570     -19.500  -6.345 -13.794  1.00 32.92     0.043 C 
BRANCH  15  16
ATOM     16  CG  GLU D 570     -19.829  -6.889 -15.137  1.00 32.92     0.100 C 
BRANCH  16  17
ATOM     17  CD  GLU D 570     -20.439  -5.857 -16.057  1.00 32.92     0.185 C 
ATOM     18  OE1 GLU D 570     -20.225  -5.937 -17.282  1.00 32.92    -0.647 OA
ATOM     19  OE2 GLU D 570     -21.124  -4.949 -15.546  1.00 32.92    -0.647 OA
ENDBRANCH  16  17
ENDBRANCH  15  16
ENDBRANCH  14  15
END_RES GLU D 570
ENDMDL
MODEL 3
REMARK VINA RESULT:      -8.3      6.741     12.798
REMARK  19 active torsions:
REMARK  status: ('A' for Active; 'I' for Inactive)
REMARK    1  A    between atoms: C_2  and  C_3 
REMARK    2  A    between atoms: C_3  and  C_4 
REMARK    3  A    between atoms: C_4  and  C_5 
REMARK    4  A    between atoms: C_5  and  C_6 
REMARK       I    between atoms: C_6  and  N_8 
REMARK    5  A    between atoms: N_8  and  C_9 
REMARK    6  A    between atoms: C_9  and  C_10 
REMARK       I    between atoms: C_10  and  N_13 
REMARK    7  A    between atoms: N_13  and  CA_14 
REMARK    8  A    between atoms: CA_14  and  CB_15 
REMARK    9  A    between atoms: CA_14  and  C_20 
REMARK   10  A    between atoms: CB_15  and  CG_16 
REMARK   11  A    between atoms: CG_16  and  CD_17 
REMARK       I    between atoms: CD_17  and  NE2_19 
REMARK       I    between atoms: C_20  and  N_25 
REMARK   12  A    between atoms: CA_29  and  C_30 
REMARK       I    between atoms: C_30  and  N_32 
REMARK   13  A    between atoms: N_32  and  CA_33 
REMARK   14  A    between atoms: CA_33  and  CB_34 
REMARK   15  A    between atoms: CA_33  and  C_42 
REMARK   16  A    between atoms: CB_34  and  CG_35 
REMARK   17  A    between atoms: CG_35  and  CD_36 
REMARK   18  A    between atoms: CD_36  and  NE_37 
REMARK       I    between atoms: NE_37  and  CZ_39 
REMARK       I    between atoms: CZ_39  and  NH1_40 
REMARK   19  A    between atoms: C_42  and  OXT_44 
ROOT
ATOM      1  C   GLN A   1     -21.998  -6.181  -5.476  1.00  0.00     0.243 C 
ATOM      2  O   GLN A   1     -23.116  -5.670  -5.347  1.00  0.00    -0.271 OA
ATOM      3  N   PRO A   2     -21.099  -5.658  -6.390  1.00  0.00    -0.337 N 
ATOM      4  CD  PRO A   2     -19.740  -6.088  -6.657  1.00  0.00     0.127 C 
ATOM      5  CG  PRO A   2     -18.969  -4.797  -6.814  1.00  0.00     0.022 C 
ATOM      6  CB  PRO A   2     -19.964  -3.855  -7.475  1.00  0.00     0.037 C 
ATOM      7  CA  PRO A   2     -21.362  -4.405  -7.117  1.00  0.00     0.179 C 
ENDROOT
BRANCH   1   8
ATOM      8  CA  GLN A   1     -21.604  -7.440  -4.651  1.00  0.00     0.177 C 
BRANCH   8   9
ATOM      9  N   GLN A   1     -21.107  -8.475  -5.570  1.00  0.00    -0.346 N 
HETATM   10  C   UNK A   0     -21.229  -9.834  -5.424  1.00  0.00     0.236 C 
HETATM   11  O   UNK A   0     -20.725 -10.580  -6.262  1.00  0.00    -0.272 OA
ATOM     12  H   GLN A   1     -20.504  -8.177  -6.331  1.00  0.00     0.163 HD
BRANCH  10  13
HETATM   13  C   UNK A   0     -22.117 -10.370  -4.299  1.00  0.00     0.225 C 
BRANCH  13  14
HETATM   14  N   UNK A   0     -21.286 -10.937  -3.252  1.00  0.00    -0.352 N 
HETATM   15  C   UNK A   0     -21.728 -10.959  -1.950  1.00  0.00     0.217 C 
HETATM   16  O   UNK A   0     -22.799 -10.477  -1.599  1.00  0.00    -0.274 OA
HETATM   17  H   UNK A   0     -20.309 -11.110  -3.455  1.00  0.00     0.162 HD
BRANCH  15  18
HETATM   18  C   UNK A   0     -20.755 -11.613  -0.989  1.00  0.00     0.103 C 
BRANCH  18  19
HETATM   19  C   UNK A   0     -21.376 -11.868   0.385  1.00  0.00     0.009 C 
BRANCH  19  20
HETATM   20  C   UNK A   0     -22.120 -13.207   0.457  1.00  0.00     0.000 C 
BRANCH  20  21
HETATM   21  C   UNK A   0     -22.118 -13.771   1.878  1.00  0.00    -0.005 C 
HETATM   22  C   UNK A   0     -23.528 -14.055   2.369  1.00  0.00     0.005 C 
ENDBRANCH  20  21
ENDBRANCH  19  20
ENDBRANCH  18  19
ENDBRANCH  15  18
ENDBRANCH  13  14
ENDBRANCH  10  13
ENDBRANCH   8   9
BRANCH   8  23
ATOM     23  CB  GLN A   1     -20.522  -7.169  -3.598  1.00  0.00     0.044 C 
BRANCH  23  24
ATOM     24  CG  GLN A   1     -20.841  -7.608  -2.176  1.00  0.00     0.105 C 
BRANCH  24  25
ATOM     25  CD  GLN A   1     -22.028  -6.907  -1.558  1.00  0.00     0.215 C 
ATOM     26  OE1 GLN A   1     -22.514  -5.864  -1.974  1.00  0.00    -0.274 OA
ATOM     27  NE2 GLN A   1     -22.494  -7.500  -0.422  1.00  0.00    -0.370 N 
ATOM     28 1HE2 GLN A   1     -22.154  -8.415  -0.126  1.00  0.00     0.159 HD
ATOM     29 2HE2 GLN A   1     -23.282  -7.083   0.052  1.00  0.00     0.159 HD
ENDBRANCH  24  25
ENDBRANCH  23  24
ENDBRANCH   8  23
ENDBRANCH   1   8
BRANCH   7  30
ATOM     30  C   PRO A   2     -22.168  -4.588  -8.422  1.00  0.00     0.241 C 
ATOM     31  O   PRO A   2     -22.302  -5.686  -8.966  1.00  0.00    -0.271 OA
ATOM     32  N   ARG A   3     -22.645  -3.443  -9.011  1.00  0.00    -0.345 N 
ATOM     33  H   ARG A   3     -22.252  -2.548  -8.713  1.00  0.00     0.163 HD
BRANCH  32  34
ATOM     34  CA  ARG A   3     -23.405  -3.480 -10.256  1.00  0.00     0.182 C 
BRANCH  34  35
ATOM     35  CB  ARG A   3     -22.776  -4.460 -11.271  1.00  0.00     0.038 C 
BRANCH  35  36
ATOM     36  CG  ARG A   3     -23.245  -4.311 -12.727  1.00  0.00     0.023 C 
BRANCH  36  37
ATOM     37  CD  ARG A   3     -22.794  -3.017 -13.393  1.00  0.00     0.138 C 
BRANCH  37  38
ATOM     38  NE  ARG A   3     -23.939  -2.147 -13.601  1.00  0.00    -0.227 N 
ATOM     39  CZ  ARG A   3     -23.871  -1.387 -14.633  1.00  0.00     0.665 C 
ATOM     40  NH1 ARG A   3     -22.903  -1.311 -15.584  1.00  0.00    -0.235 N 
ATOM     41  NH2 ARG A   3     -24.817  -0.450 -14.815  1.00  0.00    -0.235 N 
ATOM     42 HH11 ARG A   3     -22.195  -2.033 -15.606  1.00  0.00     0.174 HD
ATOM     43 HH12 ARG A   3     -23.171  -0.988 -16.500  1.00  0.00     0.174 HD
ATOM     44 HH21 ARG A   3     -25.615  -0.574 -14.208  1.00  0.00     0.174 HD
ATOM     45 HH22 ARG A   3     -25.063  -0.206 -15.761  1.00  0.00     0.174 HD
ATOM     46  HE  ARG A   3     -24.742  -2.141 -12.972  1.00  0.00     0.177 HD
ENDBRANCH  37  38
ENDBRANCH  36  37
ENDBRANCH  35  36
ENDBRANCH  34  35
BRANCH  34  47
ATOM     47  C   ARG A   3     -24.878  -3.787  -9.942  1.00  0.00     0.163 C 
ATOM     48  O   ARG A   3     -25.782  -2.965 -10.037  1.00  0.00    -0.648 OA
BRANCH  47  49
ATOM     49  OXT ARG A   3     -25.112  -5.048  -9.509  1.00  0.00    -0.775 OA
ATOM     50  HXT ARG A   3     -25.830  -5.131  -8.853  1.00  0.00     0.167 HD
ENDBRANCH  47  49
ENDBRANCH  34  47
ENDBRANCH  32  34
ENDBRANCH   7  30
TORSDOF 19
BEGIN_RES ARG D 557
REMARK  4 active torsions:
REMARK  status: ('A' for Active; 'I' for Inactive)
REMARK    1  A    between atoms: CA   and  CB  
REMARK    2  A    between atoms: CB   and  CG  
REMARK    3  A    between atoms: CG   and  CD  
REMARK    4  A    between atoms: CD   and  NE  
REMARK       I    between atoms: NE   and  CZ  
REMARK       I    between atoms: CZ   and  NH1 
REMARK       I    between atoms: CZ   and  NH2 
ROOT
ATOM      1  CA  ARG D 557     -26.217   2.705 -17.014  1.00 35.49     0.159 C 
ENDROOT
BRANCH   1   2
ATOM      2  CB  ARG D 557     -26.789   1.319 -17.183  1.00 35.49     0.034 C 
BRANCH   2   3
ATOM      3  CG  ARG D 557     -28.143   1.095 -16.663  1.00 35.49     0.027 C 
BRANCH   3   4
ATOM      4  CD  ARG D 557     -28.786  -0.099 -17.257  1.00 35.49     0.116 C 
BRANCH   4   5
ATOM      5  NE  ARG D 557     -28.155  -1.322 -16.833  1.00 35.49    -0.212 N 
ATOM      6  CZ  ARG D 557     -28.627  -2.534 -17.020  1.00 35.49     0.666 C 
ATOM      7  NH1 ARG D 557     -29.777  -2.762 -17.627  1.00 35.49    -0.235 N 
ATOM      8  NH2 ARG D 557     -27.910  -3.530 -16.586  1.00 35.49    -0.235 N 
ATOM      9  HH  ARG D 557     -30.264  -2.122 -17.922  1.00 35.49     0.174 HD
ATOM     10  HH  ARG D 557     -30.032  -3.574 -17.723  1.00 35.49     0.174 HD
ATOM     11  HH  ARG D 557     -27.168  -3.353 -16.205  1.00 35.49     0.174 HD
ATOM     12  HH  ARG D 557     -28.179  -4.327 -16.692  1.00 35.49     0.174 HD
ATOM     13  HE  ARG D 557     -27.445  -1.264 -16.369  1.00 35.49     0.178 HD
ENDBRANCH   4   5
ENDBRANCH   3   4
ENDBRANCH   2   3
ENDBRANCH   1   2
END_RES ARG D 557
BEGIN_RES GLU D 570
REMARK  3 active torsions:
REMARK  status: ('A' for Active; 'I' for Inactive)
REMARK    5  A    between atoms: CA   and  CB  
REMARK    6  A    between atoms: CB   and  CG  
REMARK    7  A    between atoms: CG   and  CD  
ROOT
ATOM     14  CA  GLU D 570     -18.033  -6.348 -13.375  1.00 32.92     0.160 C 
ENDROOT
BRANCH  14  15
ATOM     15  CB  GLU D 570     -19.500  -6.345 -13.794  1.00 32.92     0.043 C 
BRANCH  15  16
ATOM     16  CG  GLU D 570     -19.809  -5.984 -15.202  1.00 32.92     0.100 C 
BRANCH  16  17
ATOM     17  CD  GLU D 570     -20.670  -7.011 -15.899  1.00 32.92     0.185 C 
ATOM     18  OE1 GLU D 570     -21.238  -6.703 -16.964  1.00 32.92    -0.647 OA
ATOM     19  OE2 GLU D 570     -20.790  -8.132 -15.365  1.00 32.92    -0.647 OA
ENDBRANCH  16  17
ENDBRANCH  15  16
ENDBRANCH  14  15
END_RES GLU D 570
ENDMDL
MODEL 4
REMARK VINA RESULT:      -8.3      2.156      5.961
REMARK  19 active torsions:
REMARK  status: ('A' for Active; 'I' for Inactive)
REMARK    1  A    between atoms: C_2  and  C_3 
REMARK    2  A    between atoms: C_3  and  C_4 
REMARK    3  A    between atoms: C_4  and  C_5 
REMARK    4  A    between atoms: C_5  and  C_6 
REMARK       I    between atoms: C_6  and  N_8 
REMARK    5  A    between atoms: N_8  and  C_9 
REMARK    6  A    between atoms: C_9  and  C_10 
REMARK       I    between atoms: C_10  and  N_13 
REMARK    7  A    between atoms: N_13  and  CA_14 
REMARK    8  A    between atoms: CA_14  and  CB_15 
REMARK    9  A    between atoms: CA_14  and  C_20 
REMARK   10  A    between atoms: CB_15  and  CG_16 
REMARK   11  A    between atoms: CG_16  and  CD_17 
REMARK       I    between atoms: CD_17  and  NE2_19 
REMARK       I    between atoms: C_20  and  N_25 
REMARK   12  A    between atoms: CA_29  and  C_30 
REMARK       I    between atoms: C_30  and  N_32 
REMARK   13  A    between atoms: N_32  and  CA_33 
REMARK   14  A    between atoms: CA_33  and  CB_34 
REMARK   15  A    between atoms: CA_33  and  C_42 
REMARK   16  A    between atoms: CB_34  and  CG_35 
REMARK   17  A    between atoms: CG_35  and  CD_36 
REMARK   18  A    between atoms: CD_36  and  NE_37 
REMARK       I    between atoms: NE_37  and  CZ_39 
REMARK       I    between atoms: CZ_39  and  NH1_40 
REMARK   19  A    between atoms: C_42  and  OXT_44 
ROOT
ATOM      1  C   GLN A   1     -28.291  -6.460 -16.597  1.00  0.00     0.243 C 
ATOM      2  O   GLN A   1     -28.614  -6.710 -15.431  1.00  0.00    -0.271 OA
ATOM      3  N   PRO A   2     -26.953  -6.343 -16.935  1.00  0.00    -0.337 N 
ATOM      4  CD  PRO A   2     -26.376  -6.096 -18.243  1.00  0.00     0.127 C 
ATOM      5  CG  PRO A   2     -25.180  -7.019 -18.298  1.00  0.00     0.022 C 
ATOM      6  CB  PRO A   2     -24.666  -7.039 -16.866  1.00  0.00     0.037 C 
ATOM      7  CA  PRO A   2     -25.875  -6.662 -15.983  1.00  0.00     0.179 C 
ENDROOT
BRANCH   1   8
ATOM      8  CA  GLN A   1     -29.376  -6.229 -17.688  1.00  0.00     0.177 C 
BRANCH   8   9
ATOM      9  N   GLN A   1     -29.713  -4.798 -17.729  1.00  0.00    -0.346 N 
HETATM   10  C   UNK A   0     -30.906  -4.222 -17.371  1.00  0.00     0.236 C 
HETATM   11  O   UNK A   0     -31.053  -3.007 -17.497  1.00  0.00    -0.272 OA
ATOM     12  H   GLN A   1     -29.052  -4.173 -18.181  1.00  0.00     0.163 HD
BRANCH  10  13
HETATM   13  C   UNK A   0     -31.962  -5.094 -16.688  1.00  0.00     0.225 C 
BRANCH  13  14
HETATM   14  N   UNK A   0     -32.361  -4.481 -15.434  1.00  0.00    -0.352 N 
HETATM   15  C   UNK A   0     -33.688  -4.422 -15.081  1.00  0.00     0.217 C 
HETATM   16  O   UNK A   0     -34.591  -4.832 -15.802  1.00  0.00    -0.274 OA
HETATM   17  H   UNK A   0     -31.683  -3.914 -14.939  1.00  0.00     0.162 HD
BRANCH  15  18
HETATM   18  C   UNK A   0     -33.931  -3.780 -13.729  1.00  0.00     0.103 C 
BRANCH  18  19
HETATM   19  C   UNK A   0     -32.914  -4.230 -12.679  1.00  0.00     0.009 C 
BRANCH  19  20
HETATM   20  C   UNK A   0     -33.326  -3.840 -11.254  1.00  0.00     0.000 C 
BRANCH  20  21
HETATM   21  C   UNK A   0     -34.610  -4.552 -10.831  1.00  0.00    -0.005 C 
HETATM   22  C   UNK A   0     -34.344  -5.996 -10.436  1.00  0.00     0.005 C 
ENDBRANCH  20  21
ENDBRANCH  19  20
ENDBRANCH  18  19
ENDBRANCH  15  18
ENDBRANCH  13  14
ENDBRANCH  10  13
ENDBRANCH   8   9
BRANCH   8  23
ATOM     23  CB  GLN A   1     -28.937  -6.662 -19.093  1.00  0.00     0.044 C 
BRANCH  23  24
ATOM     24  CG  GLN A   1     -29.038  -8.149 -19.402  1.00  0.00     0.105 C 
BRANCH  24  25
ATOM     25  CD  GLN A   1     -28.263  -8.586 -20.624  1.00  0.00     0.215 C 
ATOM     26  OE1 GLN A   1     -28.641  -9.432 -21.422  1.00  0.00    -0.274 OA
ATOM     27  NE2 GLN A   1     -27.037  -8.001 -20.740  1.00  0.00    -0.370 N 
ATOM     28 1HE2 GLN A   1     -26.757  -7.231 -20.133  1.00  0.00     0.159 HD
ATOM     29 2HE2 GLN A   1     -26.456  -8.250 -21.529  1.00  0.00     0.159 HD
ENDBRANCH  24  25
ENDBRANCH  23  24
ENDBRANCH   8  23
ENDBRANCH   1   8
BRANCH   7  30
ATOM     30  C   PRO A   2     -25.469  -5.483 -15.070  1.00  0.00     0.241 C 
ATOM     31  O   PRO A   2     -26.229  -4.543 -14.830  1.00  0.00    -0.271 OA
ATOM     32  N   ARG A   3     -24.173  -5.480 -14.619  1.00  0.00    -0.345 N 
ATOM     33  H   ARG A   3     -23.498  -6.088 -15.085  1.00  0.00     0.163 HD
BRANCH  32  34
ATOM     34  CA  ARG A   3     -23.661  -4.413 -13.765  1.00  0.00     0.182 C 
BRANCH  34  35
ATOM     35  CB  ARG A   3     -22.594  -4.942 -12.781  1.00  0.00     0.038 C 
BRANCH  35  36
ATOM     36  CG  ARG A   3     -21.846  -3.876 -11.966  1.00  0.00     0.023 C 
BRANCH  36  37
ATOM     37  CD  ARG A   3     -22.719  -3.146 -10.952  1.00  0.00     0.138 C 
BRANCH  37  38
ATOM     38  NE  ARG A   3     -22.628  -3.806  -9.660  1.00  0.00    -0.227 N 
ATOM     39  CZ  ARG A   3     -23.690  -3.756  -8.942  1.00  0.00     0.665 C 
ATOM     40  NH1 ARG A   3     -24.902  -3.215  -9.234  1.00  0.00    -0.235 N 
ATOM     41  NH2 ARG A   3     -23.643  -4.210  -7.679  1.00  0.00    -0.235 N 
ATOM     42 HH11 ARG A   3     -25.085  -2.935 -10.190  1.00  0.00     0.174 HD
ATOM     43 HH12 ARG A   3     -25.711  -3.598  -8.771  1.00  0.00     0.174 HD
ATOM     44 HH21 ARG A   3     -22.806  -4.739  -7.482  1.00  0.00     0.174 HD
ATOM     45 HH22 ARG A   3     -24.479  -4.619  -7.294  1.00  0.00     0.174 HD
ATOM     46  HE  ARG A   3     -21.779  -4.276  -9.346  1.00  0.00     0.177 HD
ENDBRANCH  37  38
ENDBRANCH  36  37
ENDBRANCH  35  36
ENDBRANCH  34  35
BRANCH  34  47
ATOM     47  C   ARG A   3     -23.163  -3.255 -14.643  1.00  0.00     0.163 C 
ATOM     48  O   ARG A   3     -23.735  -2.176 -14.740  1.00  0.00    -0.648 OA
BRANCH  47  49
ATOM     49  OXT ARG A   3     -22.038  -3.525 -15.349  1.00  0.00    -0.775 OA
ATOM     50  HXT ARG A   3     -21.204  -3.344 -14.876  1.00  0.00     0.167 HD
ENDBRANCH  47  49
ENDBRANCH  34  47
ENDBRANCH  32  34
ENDBRANCH   7  30
TORSDOF 19
BEGIN_RES ARG D 557
REMARK  4 active torsions:
REMARK  status: ('A' for Active; 'I' for Inactive)
REMARK    1  A    between atoms: CA   and  CB  
REMARK    2  A    between atoms: CB   and  CG  
REMARK    3  A    between atoms: CG   and  CD  
REMARK    4  A    between atoms: CD   and  NE  
REMARK       I    between atoms: NE   and  CZ  
REMARK       I    between atoms: CZ   and  NH1 
REMARK       I    between atoms: CZ   and  NH2 
ROOT
ATOM      1  CA  ARG D 557     -26.217   2.705 -17.014  1.00 35.49     0.159 C 
ENDROOT
BRANCH   1   2
ATOM      2  CB  ARG D 557     -26.789   1.319 -17.183  1.00 35.49     0.034 C 
BRANCH   2   3
ATOM      3  CG  ARG D 557     -28.241   1.223 -17.376  1.00 35.49     0.027 C 
BRANCH   3   4
ATOM      4  CD  ARG D 557     -28.881   0.312 -16.399  1.00 35.49     0.116 C 
BRANCH   4   5
ATOM      5  NE  ARG D 557     -28.690  -1.073 -16.743  1.00 35.49    -0.212 N 
ATOM      6  CZ  ARG D 557     -27.731  -1.851 -16.294  1.00 35.49     0.666 C 
ATOM      7  NH1 ARG D 557     -26.801  -1.421 -15.461  1.00 35.49    -0.235 N 
ATOM      8  NH2 ARG D 557     -27.724  -3.088 -16.696  1.00 35.49    -0.235 N 
ATOM      9  HH  ARG D 557     -26.787  -0.611 -15.182  1.00 35.49     0.174 HD
ATOM     10  HH  ARG D 557     -26.202  -1.975 -15.200  1.00 35.49     0.174 HD
ATOM     11  HH  ARG D 557     -28.342  -3.340 -17.227  1.00 35.49     0.174 HD
ATOM     12  HH  ARG D 557     -27.124  -3.622 -16.424  1.00 35.49     0.174 HD
ATOM     13  HE  ARG D 557     -29.202  -1.412 -17.331  1.00 35.49     0.178 HD
ENDBRANCH   4   5
ENDBRANCH   3   4
ENDBRANCH   2   3
ENDBRANCH   1   2
END_RES ARG D 557
BEGIN_RES GLU D 570
REMARK  3 active torsions:
REMARK  status: ('A' for Active; 'I' for Inactive)
REMARK    5  A    between atoms: CA   and  CB  
REMARK    6  A    between atoms: CB   and  CG  
REMARK    7  A    between atoms: CG   and  CD  
ROOT
ATOM     14  CA  GLU D 570     -18.033  -6.348 -13.375  1.00 32.92     0.160 C 
ENDROOT
BRANCH  14  15
ATOM     15  CB  GLU D 570     -19.500  -6.345 -13.794  1.00 32.92     0.043 C 
BRANCH  15  16
ATOM     16  CG  GLU D 570     -20.087  -7.635 -14.241  1.00 32.92     0.100 C 
BRANCH  16  17
ATOM     17  CD  GLU D 570     -20.978  -7.489 -15.452  1.00 32.92     0.185 C 
ATOM     18  OE1 GLU D 570     -21.259  -8.501 -16.122  1.00 32.92    -0.647 OA
ATOM     19  OE2 GLU D 570     -21.386  -6.347 -15.743  1.00 32.92    -0.647 OA
ENDBRANCH  16  17
ENDBRANCH  15  16
ENDBRANCH  14  15
END_RES GLU D 570
ENDMDL
MODEL 5
REMARK VINA RESULT:      -8.2      2.386      9.150
REMARK  19 active torsions:
REMARK  status: ('A' for Active; 'I' for Inactive)
REMARK    1  A    between atoms: C_2  and  C_3 
REMARK    2  A    between atoms: C_3  and  C_4 
REMARK    3  A    between atoms: C_4  and  C_5 
REMARK    4  A    between atoms: C_5  and  C_6 
REMARK       I    between atoms: C_6  and  N_8 
REMARK    5  A    between atoms: N_8  and  C_9 
REMARK    6  A    between atoms: C_9  and  C_10 
REMARK       I    between atoms: C_10  and  N_13 
REMARK    7  A    between atoms: N_13  and  CA_14 
REMARK    8  A    between atoms: CA_14  and  CB_15 
REMARK    9  A    between atoms: CA_14  and  C_20 
REMARK   10  A    between atoms: CB_15  and  CG_16 
REMARK   11  A    between atoms: CG_16  and  CD_17 
REMARK       I    between atoms: CD_17  and  NE2_19 
REMARK       I    between atoms: C_20  and  N_25 
REMARK   12  A    between atoms: CA_29  and  C_30 
REMARK       I    between atoms: C_30  and  N_32 
REMARK   13  A    between atoms: N_32  and  CA_33 
REMARK   14  A    between atoms: CA_33  and  CB_34 
REMARK   15  A    between atoms: CA_33  and  C_42 
REMARK   16  A    between atoms: CB_34  and  CG_35 
REMARK   17  A    between atoms: CG_35  and  CD_36 
REMARK   18  A    between atoms: CD_36  and  NE_37 
REMARK       I    between atoms: NE_37  and  CZ_39 
REMARK       I    between atoms: CZ_39  and  NH1_40 
REMARK   19  A    between atoms: C_42  and  OXT_44 
ROOT
ATOM      1  C   GLN A   1     -24.511  -4.902 -14.354  1.00  0.00     0.243 C 
ATOM      2  O   GLN A   1     -25.316  -4.011 -14.646  1.00  0.00    -0.271 OA
ATOM      3  N   PRO A   2     -24.472  -6.070 -15.097  1.00  0.00    -0.337 N 
ATOM      4  CD  PRO A   2     -23.582  -7.204 -14.939  1.00  0.00     0.127 C 
ATOM      5  CG  PRO A   2     -23.214  -7.584 -16.356  1.00  0.00     0.022 C 
ATOM      6  CB  PRO A   2     -24.477  -7.292 -17.153  1.00  0.00     0.037 C 
ATOM      7  CA  PRO A   2     -25.252  -6.235 -16.336  1.00  0.00     0.179 C 
ENDROOT
BRANCH   1   8
ATOM      8  CA  GLN A   1     -23.569  -4.747 -13.127  1.00  0.00     0.177 C 
BRANCH   8   9
ATOM      9  N   GLN A   1     -23.363  -3.315 -12.862  1.00  0.00    -0.346 N 
HETATM   10  C   UNK A   0     -22.288  -2.738 -12.234  1.00  0.00     0.236 C 
HETATM   11  O   UNK A   0     -22.276  -1.521 -12.050  1.00  0.00    -0.272 OA
ATOM     12  H   GLN A   1     -24.142  -2.687 -13.045  1.00  0.00     0.163 HD
BRANCH  10  13
HETATM   13  C   UNK A   0     -21.073  -3.612 -11.918  1.00  0.00     0.225 C 
BRANCH  13  14
HETATM   14  N   UNK A   0     -20.597  -3.318 -10.578  1.00  0.00    -0.352 N 
HETATM   15  C   UNK A   0     -20.023  -4.305  -9.813  1.00  0.00     0.217 C 
HETATM   16  O   UNK A   0     -19.919  -5.468 -10.188  1.00  0.00    -0.274 OA
HETATM   17  H   UNK A   0     -20.890  -2.450 -10.145  1.00  0.00     0.162 HD
BRANCH  15  18
HETATM   18  C   UNK A   0     -19.552  -3.825  -8.454  1.00  0.00     0.103 C 
BRANCH  18  19
HETATM   19  C   UNK A   0     -19.691  -4.899  -7.375  1.00  0.00     0.009 C 
BRANCH  19  20
HETATM   20  C   UNK A   0     -20.619  -4.470  -6.232  1.00  0.00     0.000 C 
BRANCH  20  21
HETATM   21  C   UNK A   0     -20.787  -5.587  -5.202  1.00  0.00    -0.005 C 
HETATM   22  C   UNK A   0     -20.480  -6.950  -5.802  1.00  0.00     0.005 C 
ENDBRANCH  20  21
ENDBRANCH  19  20
ENDBRANCH  18  19
ENDBRANCH  15  18
ENDBRANCH  13  14
ENDBRANCH  10  13
ENDBRANCH   8   9
BRANCH   8  23
ATOM     23  CB  GLN A   1     -24.110  -5.401 -11.849  1.00  0.00     0.044 C 
BRANCH  23  24
ATOM     24  CG  GLN A   1     -23.550  -4.877 -10.534  1.00  0.00     0.105 C 
BRANCH  24  25
ATOM     25  CD  GLN A   1     -24.474  -3.941  -9.791  1.00  0.00     0.215 C 
ATOM     26  OE1 GLN A   1     -25.361  -3.279 -10.312  1.00  0.00    -0.274 OA
ATOM     27  NE2 GLN A   1     -24.195  -3.827  -8.461  1.00  0.00    -0.370 N 
ATOM     28 1HE2 GLN A   1     -23.522  -4.443  -8.007  1.00  0.00     0.159 HD
ATOM     29 2HE2 GLN A   1     -24.767  -3.212  -7.899  1.00  0.00     0.159 HD
ENDBRANCH  24  25
ENDBRANCH  23  24
ENDBRANCH   8  23
ENDBRANCH   1   8
BRANCH   7  30
ATOM     30  C   PRO A   2     -26.693  -6.746 -16.112  1.00  0.00     0.241 C 
ATOM     31  O   PRO A   2     -27.012  -7.406 -15.121  1.00  0.00    -0.271 OA
ATOM     32  N   ARG A   3     -27.586  -6.518 -17.129  1.00  0.00    -0.345 N 
ATOM     33  H   ARG A   3     -27.217  -6.259 -18.046  1.00  0.00     0.163 HD
BRANCH  32  34
ATOM     34  CA  ARG A   3     -28.972  -6.966 -17.048  1.00  0.00     0.182 C 
BRANCH  34  35
ATOM     35  CB  ARG A   3     -29.906  -5.827 -16.583  1.00  0.00     0.038 C 
BRANCH  35  36
ATOM     36  CG  ARG A   3     -30.100  -4.670 -17.576  1.00  0.00     0.023 C 
BRANCH  36  37
ATOM     37  CD  ARG A   3     -31.478  -4.021 -17.509  1.00  0.00     0.138 C 
BRANCH  37  38
ATOM     38  NE  ARG A   3     -32.181  -4.485 -16.324  1.00  0.00    -0.227 N 
ATOM     39  CZ  ARG A   3     -33.355  -3.994 -16.156  1.00  0.00     0.665 C 
ATOM     40  NH1 ARG A   3     -34.054  -3.140 -16.950  1.00  0.00    -0.235 N 
ATOM     41  NH2 ARG A   3     -34.011  -4.255 -15.013  1.00  0.00    -0.235 N 
ATOM     42 HH11 ARG A   3     -33.702  -2.956 -17.881  1.00  0.00     0.174 HD
ATOM     43 HH12 ARG A   3     -35.059  -3.174 -16.904  1.00  0.00     0.174 HD
ATOM     44 HH21 ARG A   3     -33.582  -4.991 -14.472  1.00  0.00     0.174 HD
ATOM     45 HH22 ARG A   3     -35.016  -4.314 -15.050  1.00  0.00     0.174 HD
ATOM     46  HE  ARG A   3     -31.771  -5.153 -15.672  1.00  0.00     0.177 HD
ENDBRANCH  37  38
ENDBRANCH  36  37
ENDBRANCH  35  36
ENDBRANCH  34  35
BRANCH  34  47
ATOM     47  C   ARG A   3     -29.385  -7.586 -18.392  1.00  0.00     0.163 C 
ATOM     48  O   ARG A   3     -30.500  -8.041 -18.620  1.00  0.00    -0.648 OA
BRANCH  47  49
ATOM     49  OXT ARG A   3     -28.400  -7.628 -19.320  1.00  0.00    -0.775 OA
ATOM     50  HXT ARG A   3     -28.163  -6.764 -19.707  1.00  0.00     0.167 HD
ENDBRANCH  47  49
ENDBRANCH  34  47
ENDBRANCH  32  34
ENDBRANCH   7  30
TORSDOF 19
BEGIN_RES ARG D 557
REMARK  4 active torsions:
REMARK  status: ('A' for Active; 'I' for Inactive)
REMARK    1  A    between atoms: CA   and  CB  
REMARK    2  A    between atoms: CB   and  CG  
REMARK    3  A    between atoms: CG   and  CD  
REMARK    4  A    between atoms: CD   and  NE  
REMARK       I    between atoms: NE   and  CZ  
REMARK       I    between atoms: CZ   and  NH1 
REMARK       I    between atoms: CZ   and  NH2 
ROOT
ATOM      1  CA  ARG D 557     -26.217   2.705 -17.014  1.00 35.49     0.159 C 
ENDROOT
BRANCH   1   2
ATOM      2  CB  ARG D 557     -26.789   1.319 -17.183  1.00 35.49     0.034 C 
BRANCH   2   3
ATOM      3  CG  ARG D 557     -28.249   1.216 -17.295  1.00 35.49     0.027 C 
BRANCH   3   4
ATOM      4  CD  ARG D 557     -28.823   0.256 -16.325  1.00 35.49     0.116 C 
BRANCH   4   5
ATOM      5  NE  ARG D 557     -28.520  -1.108 -16.667  1.00 35.49    -0.212 N 
ATOM      6  CZ  ARG D 557     -27.555  -1.834 -16.149  1.00 35.49     0.666 C 
ATOM      7  NH1 ARG D 557     -26.726  -1.363 -15.236  1.00 35.49    -0.235 N 
ATOM      8  NH2 ARG D 557     -27.439  -3.063 -16.563  1.00 35.49    -0.235 N 
ATOM      9  HH  ARG D 557     -26.785  -0.559 -14.948  1.00 35.49     0.174 HD
ATOM     10  HH  ARG D 557     -26.117  -1.884 -14.932  1.00 35.49     0.174 HD
ATOM     11  HH  ARG D 557     -27.994  -3.342 -17.147  1.00 35.49     0.174 HD
ATOM     12  HH  ARG D 557     -26.831  -3.563 -16.248  1.00 35.49     0.174 HD
ATOM     13  HE  ARG D 557     -28.960  -1.468 -17.300  1.00 35.49     0.178 HD
ENDBRANCH   4   5
ENDBRANCH   3   4
ENDBRANCH   2   3
ENDBRANCH   1   2
END_RES ARG D 557
BEGIN_RES GLU D 570
REMARK  3 active torsions:
REMARK  status: ('A' for Active; 'I' for Inactive)
REMARK    5  A    between atoms: CA   and  CB  
REMARK    6  A    between atoms: CB   and  CG  
REMARK    7  A    between atoms: CG   and  CD  
ROOT
ATOM     14  CA  GLU D 570     -18.033  -6.348 -13.375  1.00 32.92     0.160 C 
ENDROOT
BRANCH  14  15
ATOM     15  CB  GLU D 570     -19.500  -6.345 -13.794  1.00 32.92     0.043 C 
BRANCH  15  16
ATOM     16  CG  GLU D 570     -19.818  -6.788 -15.176  1.00 32.92     0.100 C 
BRANCH  16  17
ATOM     17  CD  GLU D 570     -20.485  -5.711 -16.001  1.00 32.92     0.185 C 
ATOM     18  OE1 GLU D 570     -20.383  -5.750 -17.242  1.00 32.92    -0.647 OA
ATOM     19  OE2 GLU D 570     -21.102  -4.811 -15.398  1.00 32.92    -0.647 OA
ENDBRANCH  16  17
ENDBRANCH  15  16
ENDBRANCH  14  15
END_RES GLU D 570
ENDMDL
MODEL 6
REMARK VINA RESULT:      -8.2      2.444      9.214
REMARK  19 active torsions:
REMARK  status: ('A' for Active; 'I' for Inactive)
REMARK    1  A    between atoms: C_2  and  C_3 
REMARK    2  A    between atoms: C_3  and  C_4 
REMARK    3  A    between atoms: C_4  and  C_5 
REMARK    4  A    between atoms: C_5  and  C_6 
REMARK       I    between atoms: C_6  and  N_8 
REMARK    5  A    between atoms: N_8  and  C_9 
REMARK    6  A    between atoms: C_9  and  C_10 
REMARK       I    between atoms: C_10  and  N_13 
REMARK    7  A    between atoms: N_13  and  CA_14 
REMARK    8  A    between atoms: CA_14  and  CB_15 
REMARK    9  A    between atoms: CA_14  and  C_20 
REMARK   10  A    between atoms: CB_15  and  CG_16 
REMARK   11  A    between atoms: CG_16  and  CD_17 
REMARK       I    between atoms: CD_17  and  NE2_19 
REMARK       I    between atoms: C_20  and  N_25 
REMARK   12  A    between atoms: CA_29  and  C_30 
REMARK       I    between atoms: C_30  and  N_32 
REMARK   13  A    between atoms: N_32  and  CA_33 
REMARK   14  A    between atoms: CA_33  and  CB_34 
REMARK   15  A    between atoms: CA_33  and  C_42 
REMARK   16  A    between atoms: CB_34  and  CG_35 
REMARK   17  A    between atoms: CG_35  and  CD_36 
REMARK   18  A    between atoms: CD_36  and  NE_37 
REMARK       I    between atoms: NE_37  and  CZ_39 
REMARK       I    between atoms: CZ_39  and  NH1_40 
REMARK   19  A    between atoms: C_42  and  OXT_44 
ROOT
ATOM      1  C   GLN A   1     -24.941  -4.341 -14.674  1.00  0.00     0.243 C 
ATOM      2  O   GLN A   1     -25.607  -3.595 -15.399  1.00  0.00    -0.271 OA
ATOM      3  N   PRO A   2     -24.764  -5.669 -15.024  1.00  0.00    -0.337 N 
ATOM      4  CD  PRO A   2     -23.991  -6.684 -14.332  1.00  0.00     0.127 C 
ATOM      5  CG  PRO A   2     -23.293  -7.436 -15.442  1.00  0.00     0.022 C 
ATOM      6  CB  PRO A   2     -24.299  -7.422 -16.583  1.00  0.00     0.037 C 
ATOM      7  CA  PRO A   2     -25.211  -6.203 -16.322  1.00  0.00     0.179 C 
ENDROOT
BRANCH   1   8
ATOM      8  CA  GLN A   1     -24.334  -3.815 -13.342  1.00  0.00     0.177 C 
BRANCH   8   9
ATOM      9  N   GLN A   1     -22.946  -4.290 -13.230  1.00  0.00    -0.346 N 
HETATM   10  C   UNK A   0     -22.214  -4.433 -12.078  1.00  0.00     0.236 C 
HETATM   11  O   UNK A   0     -21.044  -4.808 -12.147  1.00  0.00    -0.272 OA
ATOM     12  H   GLN A   1     -22.421  -4.412 -14.091  1.00  0.00     0.163 HD
BRANCH  10  13
HETATM   13  C   UNK A   0     -22.927  -4.262 -10.735  1.00  0.00     0.225 C 
BRANCH  13  14
HETATM   14  N   UNK A   0     -21.949  -3.995  -9.695  1.00  0.00    -0.352 N 
HETATM   15  C   UNK A   0     -22.334  -3.941  -8.377  1.00  0.00     0.217 C 
HETATM   16  O   UNK A   0     -23.499  -4.067  -8.014  1.00  0.00    -0.274 OA
HETATM   17  H   UNK A   0     -21.042  -3.640  -9.970  1.00  0.00     0.162 HD
BRANCH  15  18
HETATM   18  C   UNK A   0     -21.188  -3.685  -7.418  1.00  0.00     0.103 C 
BRANCH  18  19
HETATM   19  C   UNK A   0     -20.532  -4.978  -6.935  1.00  0.00     0.009 C 
BRANCH  19  20
HETATM   20  C   UNK A   0     -20.676  -5.184  -5.422  1.00  0.00     0.000 C 
BRANCH  20  21
HETATM   21  C   UNK A   0     -21.681  -6.291  -5.103  1.00  0.00    -0.005 C 
HETATM   22  C   UNK A   0     -21.577  -6.739  -3.655  1.00  0.00     0.005 C 
ENDBRANCH  20  21
ENDBRANCH  19  20
ENDBRANCH  18  19
ENDBRANCH  15  18
ENDBRANCH  13  14
ENDBRANCH  10  13
ENDBRANCH   8   9
BRANCH   8  23
ATOM     23  CB  GLN A   1     -24.330  -2.285 -13.230  1.00  0.00     0.044 C 
BRANCH  23  24
ATOM     24  CG  GLN A   1     -23.453  -1.539 -14.226  1.00  0.00     0.105 C 
BRANCH  24  25
ATOM     25  CD  GLN A   1     -24.196  -0.550 -15.093  1.00  0.00     0.215 C 
ATOM     26  OE1 GLN A   1     -23.692   0.436 -15.613  1.00  0.00    -0.274 OA
ATOM     27  NE2 GLN A   1     -25.531  -0.801 -15.201  1.00  0.00    -0.370 N 
ATOM     28 1HE2 GLN A   1     -25.937  -1.668 -14.849  1.00  0.00     0.159 HD
ATOM     29 2HE2 GLN A   1     -26.097  -0.177 -15.760  1.00  0.00     0.159 HD
ENDBRANCH  24  25
ENDBRANCH  23  24
ENDBRANCH   8  23
ENDBRANCH   1   8
BRANCH   7  30
ATOM     30  C   PRO A   2     -26.681  -6.675 -16.338  1.00  0.00     0.241 C 
ATOM     31  O   PRO A   2     -27.180  -7.311 -15.408  1.00  0.00    -0.271 OA
ATOM     32  N   ARG A   3     -27.384  -6.443 -17.495  1.00  0.00    -0.345 N 
ATOM     33  H   ARG A   3     -26.860  -6.207 -18.339  1.00  0.00     0.163 HD
BRANCH  32  34
ATOM     34  CA  ARG A   3     -28.775  -6.856 -17.643  1.00  0.00     0.182 C 
BRANCH  34  35
ATOM     35  CB  ARG A   3     -29.725  -5.638 -17.674  1.00  0.00     0.038 C 
BRANCH  35  36
ATOM     36  CG  ARG A   3     -30.702  -5.518 -16.494  1.00  0.00     0.023 C 
BRANCH  36  37
ATOM     37  CD  ARG A   3     -32.171  -5.555 -16.899  1.00  0.00     0.138 C 
BRANCH  37  38
ATOM     38  NE  ARG A   3     -32.705  -4.204 -16.932  1.00  0.00    -0.227 N 
ATOM     39  CZ  ARG A   3     -33.865  -4.060 -16.402  1.00  0.00     0.665 C 
ATOM     40  NH1 ARG A   3     -34.645  -4.978 -15.774  1.00  0.00    -0.235 N 
ATOM     41  NH2 ARG A   3     -34.493  -2.878 -16.523  1.00  0.00    -0.235 N 
ATOM     42 HH11 ARG A   3     -34.236  -5.873 -15.536  1.00  0.00     0.174 HD
ATOM     43 HH12 ARG A   3     -35.299  -4.644 -15.084  1.00  0.00     0.174 HD
ATOM     44 HH21 ARG A   3     -33.887  -2.143 -16.858  1.00  0.00     0.174 HD
ATOM     45 HH22 ARG A   3     -35.101  -2.589 -15.774  1.00  0.00     0.174 HD
ATOM     46  HE  ARG A   3     -32.194  -3.425 -17.347  1.00  0.00     0.177 HD
ENDBRANCH  37  38
ENDBRANCH  36  37
ENDBRANCH  35  36
ENDBRANCH  34  35
BRANCH  34  47
ATOM     47  C   ARG A   3     -28.906  -7.766 -18.874  1.00  0.00     0.163 C 
ATOM     48  O   ARG A   3     -29.825  -8.558 -19.044  1.00  0.00    -0.648 OA
BRANCH  47  49
ATOM     49  OXT ARG A   3     -27.893  -7.657 -19.767  1.00  0.00    -0.775 OA
ATOM     50  HXT ARG A   3     -27.953  -8.261 -20.531  1.00  0.00     0.167 HD
ENDBRANCH  47  49
ENDBRANCH  34  47
ENDBRANCH  32  34
ENDBRANCH   7  30
TORSDOF 19
BEGIN_RES ARG D 557
REMARK  4 active torsions:
REMARK  status: ('A' for Active; 'I' for Inactive)
REMARK    1  A    between atoms: CA   and  CB  
REMARK    2  A    between atoms: CB   and  CG  
REMARK    3  A    between atoms: CG   and  CD  
REMARK    4  A    between atoms: CD   and  NE  
REMARK       I    between atoms: NE   and  CZ  
REMARK       I    between atoms: CZ   and  NH1 
REMARK       I    between atoms: CZ   and  NH2 
ROOT
ATOM      1  CA  ARG D 557     -26.217   2.705 -17.014  1.00 35.49     0.159 C 
ENDROOT
BRANCH   1   2
ATOM      2  CB  ARG D 557     -26.789   1.319 -17.183  1.00 35.49     0.034 C 
BRANCH   2   3
ATOM      3  CG  ARG D 557     -28.210   1.230 -17.539  1.00 35.49     0.027 C 
BRANCH   3   4
ATOM      4  CD  ARG D 557     -28.969   0.354 -16.617  1.00 35.49     0.116 C 
BRANCH   4   5
ATOM      5  NE  ARG D 557     -28.319  -0.914 -16.415  1.00 35.49    -0.212 N 
ATOM      6  CZ  ARG D 557     -28.721  -2.068 -16.899  1.00 35.49     0.666 C 
ATOM      7  NH1 ARG D 557     -29.810  -2.189 -17.635  1.00 35.49    -0.235 N 
ATOM      8  NH2 ARG D 557     -27.995  -3.115 -16.632  1.00 35.49    -0.235 N 
ATOM      9  HH  ARG D 557     -30.301  -1.513 -17.824  1.00 35.49     0.174 HD
ATOM     10  HH  ARG D 557     -30.021  -2.967 -17.925  1.00 35.49     0.174 HD
ATOM     11  HH  ARG D 557     -27.293  -3.006 -16.160  1.00 35.49     0.174 HD
ATOM     12  HH  ARG D 557     -28.220  -3.877 -16.930  1.00 35.49     0.174 HD
ATOM     13  HE  ARG D 557     -27.649  -0.940 -15.892  1.00 35.49     0.178 HD
ENDBRANCH   4   5
ENDBRANCH   3   4
ENDBRANCH   2   3
ENDBRANCH   1   2
END_RES ARG D 557
BEGIN_RES GLU D 570
REMARK  3 active torsions:
REMARK  status: ('A' for Active; 'I' for Inactive)
REMARK    5  A    between atoms: CA   and  CB  
REMARK    6  A    between atoms: CB   and  CG  
REMARK    7  A    between atoms: CG   and  CD  
ROOT
ATOM     14  CA  GLU D 570     -18.033  -6.348 -13.375  1.00 32.92     0.160 C 
ENDROOT
BRANCH  14  15
ATOM     15  CB  GLU D 570     -19.500  -6.345 -13.794  1.00 32.92     0.043 C 
BRANCH  15  16
ATOM     16  CG  GLU D 570     -19.822  -6.822 -15.164  1.00 32.92     0.100 C 
BRANCH  16  17
ATOM     17  CD  GLU D 570     -20.535  -5.783 -15.997  1.00 32.92     0.185 C 
ATOM     18  OE1 GLU D 570     -20.581  -5.926 -17.234  1.00 32.92    -0.647 OA
ATOM     19  OE2 GLU D 570     -21.040  -4.807 -15.408  1.00 32.92    -0.647 OA
ENDBRANCH  16  17
ENDBRANCH  15  16
ENDBRANCH  14  15
END_RES GLU D 570
ENDMDL
MODEL 7
REMARK VINA RESULT:      -8.2      8.030     14.194
REMARK  19 active torsions:
REMARK  status: ('A' for Active; 'I' for Inactive)
REMARK    1  A    between atoms: C_2  and  C_3 
REMARK    2  A    between atoms: C_3  and  C_4 
REMARK    3  A    between atoms: C_4  and  C_5 
REMARK    4  A    between atoms: C_5  and  C_6 
REMARK       I    between atoms: C_6  and  N_8 
REMARK    5  A    between atoms: N_8  and  C_9 
REMARK    6  A    between atoms: C_9  and  C_10 
REMARK       I    between atoms: C_10  and  N_13 
REMARK    7  A    between atoms: N_13  and  CA_14 
REMARK    8  A    between atoms: CA_14  and  CB_15 
REMARK    9  A    between atoms: CA_14  and  C_20 
REMARK   10  A    between atoms: CB_15  and  CG_16 
REMARK   11  A    between atoms: CG_16  and  CD_17 
REMARK       I    between atoms: CD_17  and  NE2_19 
REMARK       I    between atoms: C_20  and  N_25 
REMARK   12  A    between atoms: CA_29  and  C_30 
REMARK       I    between atoms: C_30  and  N_32 
REMARK   13  A    between atoms: N_32  and  CA_33 
REMARK   14  A    between atoms: CA_33  and  CB_34 
REMARK   15  A    between atoms: CA_33  and  C_42 
REMARK   16  A    between atoms: CB_34  and  CG_35 
REMARK   17  A    between atoms: CG_35  and  CD_36 
REMARK   18  A    between atoms: CD_36  and  NE_37 
REMARK       I    between atoms: NE_37  and  CZ_39 
REMARK       I    between atoms: CZ_39  and  NH1_40 
REMARK   19  A    between atoms: C_42  and  OXT_44 
ROOT
ATOM      1  C   GLN A   1     -20.085  -9.014  -4.564  1.00  0.00     0.243 C 
ATOM      2  O   GLN A   1     -20.574  -9.188  -5.685  1.00  0.00    -0.271 OA
ATOM      3  N   PRO A   2     -20.511  -7.955  -3.780  1.00  0.00    -0.337 N 
ATOM      4  CD  PRO A   2     -20.092  -7.609  -2.435  1.00  0.00     0.127 C 
ATOM      5  CG  PRO A   2     -21.374  -7.211  -1.740  1.00  0.00     0.022 C 
ATOM      6  CB  PRO A   2     -22.190  -6.540  -2.834  1.00  0.00     0.037 C 
ATOM      7  CA  PRO A   2     -21.649  -7.104  -4.166  1.00  0.00     0.179 C 
ENDROOT
BRANCH   1   8
ATOM      8  CA  GLN A   1     -18.959  -9.949  -4.038  1.00  0.00     0.177 C 
BRANCH   8   9
ATOM      9  N   GLN A   1     -19.441 -11.338  -4.064  1.00  0.00    -0.346 N 
HETATM   10  C   UNK A   0     -19.760 -12.121  -2.983  1.00  0.00     0.236 C 
HETATM   11  O   UNK A   0     -20.116 -13.285  -3.162  1.00  0.00    -0.272 OA
ATOM     12  H   GLN A   1     -19.424 -11.823  -4.956  1.00  0.00     0.163 HD
BRANCH  10  13
HETATM   13  C   UNK A   0     -19.804 -11.469  -1.599  1.00  0.00     0.225 C 
BRANCH  13  14
HETATM   14  N   UNK A   0     -21.139 -10.957  -1.345  1.00  0.00    -0.352 N 
HETATM   15  C   UNK A   0     -21.494 -10.539  -0.085  1.00  0.00     0.217 C 
HETATM   16  O   UNK A   0     -20.742 -10.611   0.881  1.00  0.00    -0.274 OA
HETATM   17  H   UNK A   0     -21.855 -11.116  -2.044  1.00  0.00     0.162 HD
BRANCH  15  18
HETATM   18  C   UNK A   0     -22.910 -10.004   0.002  1.00  0.00     0.103 C 
BRANCH  18  19
HETATM   19  C   UNK A   0     -23.958 -11.070  -0.315  1.00  0.00     0.009 C 
BRANCH  19  20
HETATM   20  C   UNK A   0     -23.709 -12.385   0.435  1.00  0.00     0.000 C 
BRANCH  20  21
HETATM   21  C   UNK A   0     -23.704 -13.579  -0.519  1.00  0.00    -0.005 C 
HETATM   22  C   UNK A   0     -22.358 -14.286  -0.523  1.00  0.00     0.005 C 
ENDBRANCH  20  21
ENDBRANCH  19  20
ENDBRANCH  18  19
ENDBRANCH  15  18
ENDBRANCH  13  14
ENDBRANCH  10  13
ENDBRANCH   8   9
BRANCH   8  23
ATOM     23  CB  GLN A   1     -17.664  -9.872  -4.858  1.00  0.00     0.044 C 
BRANCH  23  24
ATOM     24  CG  GLN A   1     -16.481 -10.668  -4.325  1.00  0.00     0.105 C 
BRANCH  24  25
ATOM     25  CD  GLN A   1     -16.122 -10.365  -2.889  1.00  0.00     0.215 C 
ATOM     26  OE1 GLN A   1     -16.154 -11.180  -1.977  1.00  0.00    -0.274 OA
ATOM     27  NE2 GLN A   1     -15.816  -9.057  -2.658  1.00  0.00    -0.370 N 
ATOM     28 1HE2 GLN A   1     -15.698  -8.397  -3.427  1.00  0.00     0.159 HD
ATOM     29 2HE2 GLN A   1     -15.573  -8.776  -1.718  1.00  0.00     0.159 HD
ENDBRANCH  24  25
ENDBRANCH  23  24
ENDBRANCH   8  23
ENDBRANCH   1   8
BRANCH   7  30
ATOM     30  C   PRO A   2     -21.271  -5.920  -5.084  1.00  0.00     0.241 C 
ATOM     31  O   PRO A   2     -20.522  -5.013  -4.717  1.00  0.00    -0.271 OA
ATOM     32  N   ARG A   3     -21.897  -5.872  -6.305  1.00  0.00    -0.345 N 
ATOM     33  H   ARG A   3     -22.729  -6.448  -6.444  1.00  0.00     0.163 HD
BRANCH  32  34
ATOM     34  CA  ARG A   3     -21.640  -4.795  -7.256  1.00  0.00     0.182 C 
BRANCH  34  35
ATOM     35  CB  ARG A   3     -20.709  -5.262  -8.397  1.00  0.00     0.038 C 
BRANCH  35  36
ATOM     36  CG  ARG A   3     -20.098  -4.149  -9.263  1.00  0.00     0.023 C 
BRANCH  36  37
ATOM     37  CD  ARG A   3     -20.300  -4.348 -10.760  1.00  0.00     0.138 C 
BRANCH  37  38
ATOM     38  NE  ARG A   3     -21.006  -3.206 -11.316  1.00  0.00    -0.227 N 
ATOM     39  CZ  ARG A   3     -22.163  -3.463 -11.810  1.00  0.00     0.665 C 
ATOM     40  NH1 ARG A   3     -22.841  -4.640 -11.848  1.00  0.00    -0.235 N 
ATOM     41  NH2 ARG A   3     -22.815  -2.495 -12.475  1.00  0.00    -0.235 N 
ATOM     42 HH11 ARG A   3     -22.493  -5.412 -11.292  1.00  0.00     0.174 HD
ATOM     43 HH12 ARG A   3     -23.847  -4.600 -11.887  1.00  0.00     0.174 HD
ATOM     44 HH21 ARG A   3     -22.404  -1.582 -12.345  1.00  0.00     0.174 HD
ATOM     45 HH22 ARG A   3     -23.822  -2.493 -12.436  1.00  0.00     0.174 HD
ATOM     46  HE  ARG A   3     -20.611  -2.266 -11.314  1.00  0.00     0.177 HD
ENDBRANCH  37  38
ENDBRANCH  36  37
ENDBRANCH  35  36
ENDBRANCH  34  35
BRANCH  34  47
ATOM     47  C   ARG A   3     -22.978  -4.226  -7.753  1.00  0.00     0.163 C 
ATOM     48  O   ARG A   3     -23.126  -3.678  -8.839  1.00  0.00    -0.648 OA
BRANCH  47  49
ATOM     49  OXT ARG A   3     -24.002  -4.342  -6.874  1.00  0.00    -0.775 OA
ATOM     50  HXT ARG A   3     -24.221  -5.258  -6.617  1.00  0.00     0.167 HD
ENDBRANCH  47  49
ENDBRANCH  34  47
ENDBRANCH  32  34
ENDBRANCH   7  30
TORSDOF 19
BEGIN_RES ARG D 557
REMARK  4 active torsions:
REMARK  status: ('A' for Active; 'I' for Inactive)
REMARK    1  A    between atoms: CA   and  CB  
REMARK    2  A    between atoms: CB   and  CG  
REMARK    3  A    between atoms: CG   and  CD  
REMARK    4  A    between atoms: CD   and  NE  
REMARK       I    between atoms: NE   and  CZ  
REMARK       I    between atoms: CZ   and  NH1 
REMARK       I    between atoms: CZ   and  NH2 
ROOT
ATOM      1  CA  ARG D 557     -26.217   2.705 -17.014  1.00 35.49     0.159 C 
ENDROOT
BRANCH   1   2
ATOM      2  CB  ARG D 557     -26.789   1.319 -17.183  1.00 35.49     0.034 C 
BRANCH   2   3
ATOM      3  CG  ARG D 557     -28.233   1.226 -17.428  1.00 35.49     0.027 C 
BRANCH   3   4
ATOM      4  CD  ARG D 557     -28.904   0.290 -16.497  1.00 35.49     0.116 C 
BRANCH   4   5
ATOM      5  NE  ARG D 557     -29.300  -0.932 -17.148  1.00 35.49    -0.212 N 
ATOM      6  CZ  ARG D 557     -28.684  -2.088 -17.050  1.00 35.49     0.666 C 
ATOM      7  NH1 ARG D 557     -27.590  -2.250 -16.329  1.00 35.49    -0.235 N 
ATOM      8  NH2 ARG D 557     -29.196  -3.097 -17.693  1.00 35.49    -0.235 N 
ATOM      9  HH  ARG D 557     -27.237  -1.601 -15.896  1.00 35.49     0.174 HD
ATOM     10  HH  ARG D 557     -27.233  -3.029 -16.300  1.00 35.49     0.174 HD
ATOM     11  HH  ARG D 557     -29.907  -2.965 -18.145  1.00 35.49     0.174 HD
ATOM     12  HH  ARG D 557     -28.829  -3.861 -17.651  1.00 35.49     0.174 HD
ATOM     13  HE  ARG D 557     -29.954  -0.901 -17.691  1.00 35.49     0.178 HD
ENDBRANCH   4   5
ENDBRANCH   3   4
ENDBRANCH   2   3
ENDBRANCH   1   2
END_RES ARG D 557
BEGIN_RES GLU D 570
REMARK  3 active torsions:
REMARK  status: ('A' for Active; 'I' for Inactive)
REMARK    5  A    between atoms: CA   and  CB  
REMARK    6  A    between atoms: CB   and  CG  
REMARK    7  A    between atoms: CG   and  CD  
ROOT
ATOM     14  CA  GLU D 570     -18.033  -6.348 -13.375  1.00 32.92     0.160 C 
ENDROOT
BRANCH  14  15
ATOM     15  CB  GLU D 570     -19.500  -6.345 -13.794  1.00 32.92     0.043 C 
BRANCH  15  16
ATOM     16  CG  GLU D 570     -19.797  -6.400 -15.249  1.00 32.92     0.100 C 
BRANCH  16  17
ATOM     17  CD  GLU D 570     -20.947  -5.506 -15.650  1.00 32.92     0.185 C 
ATOM     18  OE1 GLU D 570     -21.697  -5.051 -14.765  1.00 32.92    -0.647 OA
ATOM     19  OE2 GLU D 570     -21.110  -5.273 -16.864  1.00 32.92    -0.647 OA
ENDBRANCH  16  17
ENDBRANCH  15  16
ENDBRANCH  14  15
END_RES GLU D 570
ENDMDL
MODEL 8
REMARK VINA RESULT:      -8.1      7.637     13.795
REMARK  19 active torsions:
REMARK  status: ('A' for Active; 'I' for Inactive)
REMARK    1  A    between atoms: C_2  and  C_3 
REMARK    2  A    between atoms: C_3  and  C_4 
REMARK    3  A    between atoms: C_4  and  C_5 
REMARK    4  A    between atoms: C_5  and  C_6 
REMARK       I    between atoms: C_6  and  N_8 
REMARK    5  A    between atoms: N_8  and  C_9 
REMARK    6  A    between atoms: C_9  and  C_10 
REMARK       I    between atoms: C_10  and  N_13 
REMARK    7  A    between atoms: N_13  and  CA_14 
REMARK    8  A    between atoms: CA_14  and  CB_15 
REMARK    9  A    between atoms: CA_14  and  C_20 
REMARK   10  A    between atoms: CB_15  and  CG_16 
REMARK   11  A    between atoms: CG_16  and  CD_17 
REMARK       I    between atoms: CD_17  and  NE2_19 
REMARK       I    between atoms: C_20  and  N_25 
REMARK   12  A    between atoms: CA_29  and  C_30 
REMARK       I    between atoms: C_30  and  N_32 
REMARK   13  A    between atoms: N_32  and  CA_33 
REMARK   14  A    between atoms: CA_33  and  CB_34 
REMARK   15  A    between atoms: CA_33  and  C_42 
REMARK   16  A    between atoms: CB_34  and  CG_35 
REMARK   17  A    between atoms: CG_35  and  CD_36 
REMARK   18  A    between atoms: CD_36  and  NE_37 
REMARK       I    between atoms: NE_37  and  CZ_39 
REMARK       I    between atoms: CZ_39  and  NH1_40 
REMARK   19  A    between atoms: C_42  and  OXT_44 
ROOT
ATOM      1  C   GLN A   1     -20.242  -9.579  -5.176  1.00  0.00     0.243 C 
ATOM      2  O   GLN A   1     -21.090  -9.483  -6.070  1.00  0.00    -0.271 OA
ATOM      3  N   PRO A   2     -20.204  -8.644  -4.155  1.00  0.00    -0.337 N 
ATOM      4  CD  PRO A   2     -19.320  -8.606  -3.006  1.00  0.00     0.127 C 
ATOM      5  CG  PRO A   2     -20.222  -8.204  -1.860  1.00  0.00     0.022 C 
ATOM      6  CB  PRO A   2     -21.222  -7.252  -2.498  1.00  0.00     0.037 C 
ATOM      7  CA  PRO A   2     -21.245  -7.613  -3.999  1.00  0.00     0.179 C 
ENDROOT
BRANCH   1   8
ATOM      8  CA  GLN A   1     -19.181 -10.716  -5.209  1.00  0.00     0.177 C 
BRANCH   8   9
ATOM      9  N   GLN A   1     -19.861 -11.995  -5.461  1.00  0.00    -0.346 N 
HETATM   10  C   UNK A   0     -20.310 -12.890  -4.522  1.00  0.00     0.236 C 
HETATM   11  O   UNK A   0     -20.830 -13.943  -4.889  1.00  0.00    -0.272 OA
ATOM     12  H   GLN A   1     -19.902 -12.324  -6.422  1.00  0.00     0.163 HD
BRANCH  10  13
HETATM   13  C   UNK A   0     -20.280 -12.477  -3.049  1.00  0.00     0.225 C 
BRANCH  13  14
HETATM   14  N   UNK A   0     -21.525 -11.813  -2.705  1.00  0.00    -0.352 N 
HETATM   15  C   UNK A   0     -21.768 -11.420  -1.410  1.00  0.00     0.217 C 
HETATM   16  O   UNK A   0     -20.990 -11.637  -0.488  1.00  0.00    -0.274 OA
HETATM   17  H   UNK A   0     -22.285 -11.843  -3.373  1.00  0.00     0.162 HD
BRANCH  15  18
HETATM   18  C   UNK A   0     -23.097 -10.714  -1.228  1.00  0.00     0.103 C 
BRANCH  18  19
HETATM   19  C   UNK A   0     -23.247 -10.103   0.165  1.00  0.00     0.009 C 
BRANCH  19  20
HETATM   20  C   UNK A   0     -23.277  -8.570   0.137  1.00  0.00     0.000 C 
BRANCH  20  21
HETATM   21  C   UNK A   0     -22.396  -7.975   1.236  1.00  0.00    -0.005 C 
HETATM   22  C   UNK A   0     -21.119  -8.777   1.422  1.00  0.00     0.005 C 
ENDBRANCH  20  21
ENDBRANCH  19  20
ENDBRANCH  18  19
ENDBRANCH  15  18
ENDBRANCH  13  14
ENDBRANCH  10  13
ENDBRANCH   8   9
BRANCH   8  23
ATOM     23  CB  GLN A   1     -18.106 -10.521  -6.286  1.00  0.00     0.044 C 
BRANCH  23  24
ATOM     24  CG  GLN A   1     -16.974  -9.563  -5.943  1.00  0.00     0.105 C 
BRANCH  24  25
ATOM     25  CD  GLN A   1     -16.055 -10.051  -4.846  1.00  0.00     0.215 C 
ATOM     26  OE1 GLN A   1     -15.956  -9.537  -3.741  1.00  0.00    -0.274 OA
ATOM     27  NE2 GLN A   1     -15.263 -11.099  -5.212  1.00  0.00    -0.370 N 
ATOM     28 1HE2 GLN A   1     -15.407 -11.588  -6.096  1.00  0.00     0.159 HD
ATOM     29 2HE2 GLN A   1     -14.616 -11.476  -4.533  1.00  0.00     0.159 HD
ENDBRANCH  24  25
ENDBRANCH  23  24
ENDBRANCH   8  23
ENDBRANCH   1   8
BRANCH   7  30
ATOM     30  C   PRO A   2     -20.990  -6.329  -4.819  1.00  0.00     0.241 C 
ATOM     31  O   PRO A   2     -20.502  -5.314  -4.319  1.00  0.00    -0.271 OA
ATOM     32  N   ARG A   3     -21.434  -6.337  -6.118  1.00  0.00    -0.345 N 
ATOM     33  H   ARG A   3     -22.102  -7.058  -6.396  1.00  0.00     0.163 HD
BRANCH  32  34
ATOM     34  CA  ARG A   3     -21.269  -5.179  -6.991  1.00  0.00     0.182 C 
BRANCH  34  35
ATOM     35  CB  ARG A   3     -20.664  -5.583  -8.354  1.00  0.00     0.038 C 
BRANCH  35  36
ATOM     36  CG  ARG A   3     -19.922  -4.472  -9.114  1.00  0.00     0.023 C 
BRANCH  36  37
ATOM     37  CD  ARG A   3     -20.380  -4.297 -10.557  1.00  0.00     0.138 C 
BRANCH  37  38
ATOM     38  NE  ARG A   3     -21.809  -4.543 -10.652  1.00  0.00    -0.227 N 
ATOM     39  CZ  ARG A   3     -22.393  -4.003 -11.659  1.00  0.00     0.665 C 
ATOM     40  NH1 ARG A   3     -21.860  -3.274 -12.675  1.00  0.00    -0.235 N 
ATOM     41  NH2 ARG A   3     -23.733  -4.057 -11.739  1.00  0.00    -0.235 N 
ATOM     42 HH11 ARG A   3     -20.853  -3.254 -12.773  1.00  0.00     0.174 HD
ATOM     43 HH12 ARG A   3     -22.346  -3.276 -13.558  1.00  0.00     0.174 HD
ATOM     44 HH21 ARG A   3     -24.142  -4.704 -11.081  1.00  0.00     0.174 HD
ATOM     45 HH22 ARG A   3     -24.149  -4.097 -12.656  1.00  0.00     0.174 HD
ATOM     46  HE  ARG A   3     -22.313  -5.104  -9.965  1.00  0.00     0.177 HD
ENDBRANCH  37  38
ENDBRANCH  36  37
ENDBRANCH  35  36
ENDBRANCH  34  35
BRANCH  34  47
ATOM     47  C   ARG A   3     -22.611  -4.441  -7.113  1.00  0.00     0.163 C 
ATOM     48  O   ARG A   3     -23.629  -4.771  -6.516  1.00  0.00    -0.648 OA
BRANCH  47  49
ATOM     49  OXT ARG A   3     -22.604  -3.394  -7.972  1.00  0.00    -0.775 OA
ATOM     50  HXT ARG A   3     -23.445  -3.243  -8.442  1.00  0.00     0.167 HD
ENDBRANCH  47  49
ENDBRANCH  34  47
ENDBRANCH  32  34
ENDBRANCH   7  30
TORSDOF 19
BEGIN_RES ARG D 557
REMARK  4 active torsions:
REMARK  status: ('A' for Active; 'I' for Inactive)
REMARK    1  A    between atoms: CA   and  CB  
REMARK    2  A    between atoms: CB   and  CG  
REMARK    3  A    between atoms: CG   and  CD  
REMARK    4  A    between atoms: CD   and  NE  
REMARK       I    between atoms: NE   and  CZ  
REMARK       I    between atoms: CZ   and  NH1 
REMARK       I    between atoms: CZ   and  NH2 
ROOT
ATOM      1  CA  ARG D 557     -26.217   2.705 -17.014  1.00 35.49     0.159 C 
ENDROOT
BRANCH   1   2
ATOM      2  CB  ARG D 557     -26.789   1.319 -17.183  1.00 35.49     0.034 C 
BRANCH   2   3
ATOM      3  CG  ARG D 557     -28.234   1.171 -16.973  1.00 35.49     0.027 C 
BRANCH   3   4
ATOM      4  CD  ARG D 557     -28.627  -0.235 -16.723  1.00 35.49     0.116 C 
BRANCH   4   5
ATOM      5  NE  ARG D 557     -27.603  -0.968 -16.025  1.00 35.49    -0.212 N 
ATOM      6  CZ  ARG D 557     -27.410  -2.266 -16.089  1.00 35.49     0.666 C 
ATOM      7  NH1 ARG D 557     -28.172  -3.062 -16.816  1.00 35.49    -0.235 N 
ATOM      8  NH2 ARG D 557     -26.418  -2.760 -15.405  1.00 35.49    -0.235 N 
ATOM      9  HH  ARG D 557     -28.828  -2.759 -17.276  1.00 35.49     0.174 HD
ATOM     10  HH  ARG D 557     -27.996  -3.901 -16.821  1.00 35.49     0.174 HD
ATOM     11  HH  ARG D 557     -25.938  -2.221 -14.950  1.00 35.49     0.174 HD
ATOM     12  HH  ARG D 557     -26.260  -3.592 -15.424  1.00 35.49     0.174 HD
ATOM     13  HE  ARG D 557     -27.112  -0.543 -15.477  1.00 35.49     0.178 HD
ENDBRANCH   4   5
ENDBRANCH   3   4
ENDBRANCH   2   3
ENDBRANCH   1   2
END_RES ARG D 557
BEGIN_RES GLU D 570
REMARK  3 active torsions:
REMARK  status: ('A' for Active; 'I' for Inactive)
REMARK    5  A    between atoms: CA   and  CB  
REMARK    6  A    between atoms: CB   and  CG  
REMARK    7  A    between atoms: CG   and  CD  
ROOT
ATOM     14  CA  GLU D 570     -18.033  -6.348 -13.375  1.00 32.92     0.160 C 
ENDROOT
BRANCH  14  15
ATOM     15  CB  GLU D 570     -19.500  -6.345 -13.794  1.00 32.92     0.043 C 
BRANCH  15  16
ATOM     16  CG  GLU D 570     -20.111  -7.650 -14.156  1.00 32.92     0.100 C 
BRANCH  16  17
ATOM     17  CD  GLU D 570     -20.627  -7.686 -15.575  1.00 32.92     0.185 C 
ATOM     18  OE1 GLU D 570     -20.669  -8.776 -16.177  1.00 32.92    -0.647 OA
ATOM     19  OE2 GLU D 570     -20.977  -6.609 -16.098  1.00 32.92    -0.647 OA
ENDBRANCH  16  17
ENDBRANCH  15  16
ENDBRANCH  14  15
END_RES GLU D 570
ENDMDL
MODEL 9
REMARK VINA RESULT:      -8.0      2.618      6.460
REMARK  19 active torsions:
REMARK  status: ('A' for Active; 'I' for Inactive)
REMARK    1  A    between atoms: C_2  and  C_3 
REMARK    2  A    between atoms: C_3  and  C_4 
REMARK    3  A    between atoms: C_4  and  C_5 
REMARK    4  A    between atoms: C_5  and  C_6 
REMARK       I    between atoms: C_6  and  N_8 
REMARK    5  A    between atoms: N_8  and  C_9 
REMARK    6  A    between atoms: C_9  and  C_10 
REMARK       I    between atoms: C_10  and  N_13 
REMARK    7  A    between atoms: N_13  and  CA_14 
REMARK    8  A    between atoms: CA_14  and  CB_15 
REMARK    9  A    between atoms: CA_14  and  C_20 
REMARK   10  A    between atoms: CB_15  and  CG_16 
REMARK   11  A    between atoms: CG_16  and  CD_17 
REMARK       I    between atoms: CD_17  and  NE2_19 
REMARK       I    between atoms: C_20  and  N_25 
REMARK   12  A    between atoms: CA_29  and  C_30 
REMARK       I    between atoms: C_30  and  N_32 
REMARK   13  A    between atoms: N_32  and  CA_33 
REMARK   14  A    between atoms: CA_33  and  CB_34 
REMARK   15  A    between atoms: CA_33  and  C_42 
REMARK   16  A    between atoms: CB_34  and  CG_35 
REMARK   17  A    between atoms: CG_35  and  CD_36 
REMARK   18  A    between atoms: CD_36  and  NE_37 
REMARK       I    between atoms: NE_37  and  CZ_39 
REMARK       I    between atoms: CZ_39  and  NH1_40 
REMARK   19  A    between atoms: C_42  and  OXT_44 
ROOT
ATOM      1  C   GLN A   1     -28.883  -6.122 -15.775  1.00  0.00     0.243 C 
ATOM      2  O   GLN A   1     -28.684  -6.560 -14.637  1.00  0.00    -0.271 OA
ATOM      3  N   PRO A   2     -27.814  -5.895 -16.625  1.00  0.00    -0.337 N 
ATOM      4  CD  PRO A   2     -27.843  -5.426 -17.998  1.00  0.00     0.127 C 
ATOM      5  CG  PRO A   2     -26.807  -6.275 -18.699  1.00  0.00     0.022 C 
ATOM      6  CB  PRO A   2     -25.733  -6.489 -17.644  1.00  0.00     0.037 C 
ATOM      7  CA  PRO A   2     -26.441  -6.305 -16.283  1.00  0.00     0.179 C 
ENDROOT
BRANCH   1   8
ATOM      8  CA  GLN A   1     -30.323  -5.777 -16.251  1.00  0.00     0.177 C 
BRANCH   8   9
ATOM      9  N   GLN A   1     -30.269  -4.583 -17.108  1.00  0.00    -0.346 N 
HETATM   10  C   UNK A   0     -31.330  -3.817 -17.522  1.00  0.00     0.236 C 
HETATM   11  O   UNK A   0     -31.130  -2.863 -18.274  1.00  0.00    -0.272 OA
ATOM     12  H   GLN A   1     -29.380  -4.360 -17.546  1.00  0.00     0.163 HD
BRANCH  10  13
HETATM   13  C   UNK A   0     -32.707  -4.089 -16.914  1.00  0.00     0.225 C 
BRANCH  13  14
HETATM   14  N   UNK A   0     -33.606  -2.995 -17.236  1.00  0.00    -0.352 N 
HETATM   15  C   UNK A   0     -34.550  -2.580 -16.327  1.00  0.00     0.217 C 
HETATM   16  O   UNK A   0     -34.714  -3.121 -15.239  1.00  0.00    -0.274 OA
HETATM   17  H   UNK A   0     -33.671  -2.696 -18.202  1.00  0.00     0.162 HD
BRANCH  15  18
HETATM   18  C   UNK A   0     -35.384  -1.409 -16.807  1.00  0.00     0.103 C 
BRANCH  18  19
HETATM   19  C   UNK A   0     -35.434  -0.272 -15.786  1.00  0.00     0.009 C 
BRANCH  19  20
HETATM   20  C   UNK A   0     -36.757  -0.234 -15.010  1.00  0.00     0.000 C 
BRANCH  20  21
HETATM   21  C   UNK A   0     -36.524   0.050 -13.526  1.00  0.00    -0.005 C 
HETATM   22  C   UNK A   0     -35.068  -0.157 -13.140  1.00  0.00     0.005 C 
ENDBRANCH  20  21
ENDBRANCH  19  20
ENDBRANCH  18  19
ENDBRANCH  15  18
ENDBRANCH  13  14
ENDBRANCH  10  13
ENDBRANCH   8   9
BRANCH   8  23
ATOM     23  CB  GLN A   1     -30.996  -6.907 -17.040  1.00  0.00     0.044 C 
BRANCH  23  24
ATOM     24  CG  GLN A   1     -30.587  -7.046 -18.500  1.00  0.00     0.105 C 
BRANCH  24  25
ATOM     25  CD  GLN A   1     -29.730  -8.255 -18.795  1.00  0.00     0.215 C 
ATOM     26  OE1 GLN A   1     -29.518  -8.702 -19.914  1.00  0.00    -0.274 OA
ATOM     27  NE2 GLN A   1     -29.248  -8.877 -17.682  1.00  0.00    -0.370 N 
ATOM     28 1HE2 GLN A   1     -29.343  -8.457 -16.757  1.00  0.00     0.159 HD
ATOM     29 2HE2 GLN A   1     -28.672  -9.700 -17.799  1.00  0.00     0.159 HD
ENDBRANCH  24  25
ENDBRANCH  23  24
ENDBRANCH   8  23
ENDBRANCH   1   8
BRANCH   7  30
ATOM     30  C   PRO A   2     -25.657  -5.262 -15.457  1.00  0.00     0.241 C 
ATOM     31  O   PRO A   2     -26.114  -4.148 -15.196  1.00  0.00    -0.271 OA
ATOM     32  N   ARG A   3     -24.371  -5.599 -15.112  1.00  0.00    -0.345 N 
ATOM     33  H   ARG A   3     -23.927  -6.375 -15.606  1.00  0.00     0.163 HD
BRANCH  32  34
ATOM     34  CA  ARG A   3     -23.520  -4.693 -14.348  1.00  0.00     0.182 C 
BRANCH  34  35
ATOM     35  CB  ARG A   3     -22.903  -5.400 -13.121  1.00  0.00     0.038 C 
BRANCH  35  36
ATOM     36  CG  ARG A   3     -22.086  -4.508 -12.173  1.00  0.00     0.023 C 
BRANCH  36  37
ATOM     37  CD  ARG A   3     -22.661  -4.411 -10.765  1.00  0.00     0.138 C 
BRANCH  37  38
ATOM     38  NE  ARG A   3     -24.037  -3.946 -10.829  1.00  0.00    -0.227 N 
ATOM     39  CZ  ARG A   3     -24.602  -3.746  -9.693  1.00  0.00     0.665 C 
ATOM     40  NH1 ARG A   3     -24.085  -3.861  -8.442  1.00  0.00    -0.235 N 
ATOM     41  NH2 ARG A   3     -25.914  -3.460  -9.661  1.00  0.00    -0.235 N 
ATOM     42 HH11 ARG A   3     -23.083  -3.973  -8.346  1.00  0.00     0.174 HD
ATOM     43 HH12 ARG A   3     -24.495  -3.301  -7.712  1.00  0.00     0.174 HD
ATOM     44 HH21 ARG A   3     -26.290  -3.233 -10.570  1.00  0.00     0.174 HD
ATOM     45 HH22 ARG A   3     -26.248  -2.859  -8.925  1.00  0.00     0.174 HD
ATOM     46  HE  ARG A   3     -24.520  -3.790 -11.713  1.00  0.00     0.177 HD
ENDBRANCH  37  38
ENDBRANCH  36  37
ENDBRANCH  35  36
ENDBRANCH  34  35
BRANCH  34  47
ATOM     47  C   ARG A   3     -22.474  -4.068 -15.285  1.00  0.00     0.163 C 
ATOM     48  O   ARG A   3     -22.264  -2.864 -15.368  1.00  0.00    -0.648 OA
BRANCH  47  49
ATOM     49  OXT ARG A   3     -21.805  -4.957 -16.057  1.00  0.00    -0.775 OA
ATOM     50  HXT ARG A   3     -20.953  -5.260 -15.690  1.00  0.00     0.167 HD
ENDBRANCH  47  49
ENDBRANCH  34  47
ENDBRANCH  32  34
ENDBRANCH   7  30
TORSDOF 19
BEGIN_RES ARG D 557
REMARK  4 active torsions:
REMARK  status: ('A' for Active; 'I' for Inactive)
REMARK    1  A    between atoms: CA   and  CB  
REMARK    2  A    between atoms: CB   and  CG  
REMARK    3  A    between atoms: CG   and  CD  
REMARK    4  A    between atoms: CD   and  NE  
REMARK       I    between atoms: NE   and  CZ  
REMARK       I    between atoms: CZ   and  NH1 
REMARK       I    between atoms: CZ   and  NH2 
ROOT
ATOM      1  CA  ARG D 557     -26.217   2.705 -17.014  1.00 35.49     0.159 C 
ENDROOT
BRANCH   1   2
ATOM      2  CB  ARG D 557     -26.789   1.319 -17.183  1.00 35.49     0.034 C 
BRANCH   2   3
ATOM      3  CG  ARG D 557     -25.947   0.199 -16.746  1.00 35.49     0.027 C 
BRANCH   3   4
ATOM      4  CD  ARG D 557     -26.736  -0.899 -16.143  1.00 35.49     0.116 C 
BRANCH   4   5
ATOM      5  NE  ARG D 557     -26.082  -1.472 -14.997  1.00 35.49    -0.212 N 
ATOM      6  CZ  ARG D 557     -24.854  -1.214 -14.605  1.00 35.49     0.666 C 
ATOM      7  NH1 ARG D 557     -24.062  -0.382 -15.256  1.00 35.49    -0.235 N 
ATOM      8  NH2 ARG D 557     -24.431  -1.808 -13.527  1.00 35.49    -0.235 N 
ATOM      9  HH  ARG D 557     -24.320   0.022 -15.966  1.00 35.49     0.174 HD
ATOM     10  HH  ARG D 557     -23.272  -0.251 -14.951  1.00 35.49     0.174 HD
ATOM     11  HH  ARG D 557     -24.967  -2.334 -13.123  1.00 35.49     0.174 HD
ATOM     12  HH  ARG D 557     -23.646  -1.664 -13.241  1.00 35.49     0.174 HD
ATOM     13  HE  ARG D 557     -26.495  -2.074 -14.560  1.00 35.49     0.178 HD
ENDBRANCH   4   5
ENDBRANCH   3   4
ENDBRANCH   2   3
ENDBRANCH   1   2
END_RES ARG D 557
BEGIN_RES GLU D 570
REMARK  3 active torsions:
REMARK  status: ('A' for Active; 'I' for Inactive)
REMARK    5  A    between atoms: CA   and  CB  
REMARK    6  A    between atoms: CB   and  CG  
REMARK    7  A    between atoms: CG   and  CD  
ROOT
ATOM     14  CA  GLU D 570     -18.033  -6.348 -13.375  1.00 32.92     0.160 C 
ENDROOT
BRANCH  14  15
ATOM     15  CB  GLU D 570     -19.500  -6.345 -13.794  1.00 32.92     0.043 C 
BRANCH  15  16
ATOM     16  CG  GLU D 570     -20.192  -7.658 -13.874  1.00 32.92     0.100 C 
BRANCH  16  17
ATOM     17  CD  GLU D 570     -20.711  -7.966 -15.259  1.00 32.92     0.185 C 
ATOM     18  OE1 GLU D 570     -21.865  -7.611 -15.566  1.00 32.92    -0.647 OA
ATOM     19  OE2 GLU D 570     -19.961  -8.584 -16.040  1.00 32.92    -0.647 OA
ENDBRANCH  16  17
ENDBRANCH  15  16
ENDBRANCH  14  15
END_RES GLU D 570
ENDMDL
