MODEL 1
REMARK VINA RESULT:      -1.3      0.000      0.000
REMARK  12 active torsions:
REMARK  status: ('A' for Active; 'I' for Inactive)
REMARK    1  A    between atoms: C_2  and  C_3 
REMARK    2  A    between atoms: C_3  and  C_4 
REMARK    3  A    between atoms: C_4  and  C_5 
REMARK    4  A    between atoms: C_5  and  C_6 
REMARK    5  A    between atoms: C_6  and  C_7 
REMARK    6  A    between atoms: C_7  and  C_8 
REMARK    7  A    between atoms: C_8  and  C_9 
REMARK    8  A    between atoms: C_9  and  C_10 
REMARK    9  A    between atoms: C_10  and  C_11 
REMARK   10  A    between atoms: C_11  and  C_12 
REMARK       I    between atoms: C_12  and  N_14 
REMARK   11  A    between atoms: N_14  and  C_16 
REMARK   12  A    between atoms: C_16  and  C_17 
ROOT
HETATM    1 NA   UNL     2     -32.349  -8.553   4.536  1.00  0.00     0.000 Na
ENDROOT
TORSDOF 12
BEGIN_RES ARG D 557
REMARK  4 active torsions:
REMARK  status: ('A' for Active; 'I' for Inactive)
REMARK    1  A    between atoms: CA   and  CB  
REMARK    2  A    between atoms: CB   and  CG  
REMARK    3  A    between atoms: CG   and  CD  
REMARK    4  A    between atoms: CD   and  NE  
REMARK       I    between atoms: NE   and  CZ  
REMARK       I    between atoms: CZ   and  NH1 
REMARK       I    between atoms: CZ   and  NH2 
ROOT
ATOM      1  CA  ARG D 557     -26.217   2.705 -17.014  1.00 35.49     0.159 C 
ENDROOT
BRANCH   1   2
ATOM      2  CB  ARG D 557     -26.789   1.319 -17.183  1.00 35.49     0.034 C 
BRANCH   2   3
ATOM      3  CG  ARG D 557     -25.865   0.195 -16.989  1.00 35.49     0.027 C 
BRANCH   3   4
ATOM      4  CD  ARG D 557     -26.294  -0.706 -15.894  1.00 35.49     0.116 C 
BRANCH   4   5
ATOM      5  NE  ARG D 557     -25.246  -0.931 -14.935  1.00 35.49    -0.212 N 
ATOM      6  CZ  ARG D 557     -24.966  -2.078 -14.358  1.00 35.49     0.666 C 
ATOM      7  NH1 ARG D 557     -25.653  -3.179 -14.598  1.00 35.49    -0.235 N 
ATOM      8  NH2 ARG D 557     -23.964  -2.103 -13.527  1.00 35.49    -0.235 N 
ATOM      9  HH  ARG D 557     -26.315  -3.186 -15.143  1.00 35.49     0.174 HD
ATOM     10  HH  ARG D 557     -25.423  -3.899 -14.195  1.00 35.49     0.174 HD
ATOM     11  HH  ARG D 557     -23.534  -1.379 -13.397  1.00 35.49     0.174 HD
ATOM     12  HH  ARG D 557     -23.751  -2.826 -13.138  1.00 35.49     0.174 HD
ATOM     13  HE  ARG D 557     -24.799  -0.259 -14.667  1.00 35.49     0.178 HD
ENDBRANCH   4   5
ENDBRANCH   3   4
ENDBRANCH   2   3
ENDBRANCH   1   2
END_RES ARG D 557
BEGIN_RES GLU D 570
REMARK  3 active torsions:
REMARK  status: ('A' for Active; 'I' for Inactive)
REMARK    5  A    between atoms: CA   and  CB  
REMARK    6  A    between atoms: CB   and  CG  
REMARK    7  A    between atoms: CG   and  CD  
ROOT
ATOM     14  CA  GLU D 570     -18.033  -6.348 -13.375  1.00 32.92     0.160 C 
ENDROOT
BRANCH  14  15
ATOM     15  CB  GLU D 570     -19.500  -6.345 -13.794  1.00 32.92     0.043 C 
BRANCH  15  16
ATOM     16  CG  GLU D 570     -20.445  -5.548 -12.971  1.00 32.92     0.100 C 
BRANCH  16  17
ATOM     17  CD  GLU D 570     -21.682  -5.129 -13.732  1.00 32.92     0.185 C 
ATOM     18  OE1 GLU D 570     -21.619  -5.011 -14.970  1.00 32.92    -0.647 OA
ATOM     19  OE2 GLU D 570     -22.720  -4.902 -13.080  1.00 32.92    -0.647 OA
ENDBRANCH  16  17
ENDBRANCH  15  16
ENDBRANCH  14  15
END_RES GLU D 570
ENDMDL
MODEL 2
REMARK VINA RESULT:      -1.3      3.845      3.975
REMARK  12 active torsions:
REMARK  status: ('A' for Active; 'I' for Inactive)
REMARK    1  A    between atoms: C_2  and  C_3 
REMARK    2  A    between atoms: C_3  and  C_4 
REMARK    3  A    between atoms: C_4  and  C_5 
REMARK    4  A    between atoms: C_5  and  C_6 
REMARK    5  A    between atoms: C_6  and  C_7 
REMARK    6  A    between atoms: C_7  and  C_8 
REMARK    7  A    between atoms: C_8  and  C_9 
REMARK    8  A    between atoms: C_9  and  C_10 
REMARK    9  A    between atoms: C_10  and  C_11 
REMARK   10  A    between atoms: C_11  and  C_12 
REMARK       I    between atoms: C_12  and  N_14 
REMARK   11  A    between atoms: N_14  and  C_16 
REMARK   12  A    between atoms: C_16  and  C_17 
ROOT
HETATM    1 NA   UNL     2     -25.225  -5.259  -4.959  1.00  0.00     0.000 Na
ENDROOT
TORSDOF 12
BEGIN_RES ARG D 557
REMARK  4 active torsions:
REMARK  status: ('A' for Active; 'I' for Inactive)
REMARK    1  A    between atoms: CA   and  CB  
REMARK    2  A    between atoms: CB   and  CG  
REMARK    3  A    between atoms: CG   and  CD  
REMARK    4  A    between atoms: CD   and  NE  
REMARK       I    between atoms: NE   and  CZ  
REMARK       I    between atoms: CZ   and  NH1 
REMARK       I    between atoms: CZ   and  NH2 
ROOT
ATOM      1  CA  ARG D 557     -26.217   2.705 -17.014  1.00 35.49     0.159 C 
ENDROOT
BRANCH   1   2
ATOM      2  CB  ARG D 557     -26.789   1.319 -17.183  1.00 35.49     0.034 C 
BRANCH   2   3
ATOM      3  CG  ARG D 557     -25.834   0.204 -17.168  1.00 35.49     0.027 C 
BRANCH   3   4
ATOM      4  CD  ARG D 557     -24.758   0.396 -16.170  1.00 35.49     0.116 C 
BRANCH   4   5
ATOM      5  NE  ARG D 557     -24.928  -0.452 -15.019  1.00 35.49    -0.212 N 
ATOM      6  CZ  ARG D 557     -24.122  -1.424 -14.655  1.00 35.49     0.666 C 
ATOM      7  NH1 ARG D 557     -23.040  -1.742 -15.342  1.00 35.49    -0.235 N 
ATOM      8  NH2 ARG D 557     -24.420  -2.077 -13.570  1.00 35.49    -0.235 N 
ATOM      9  HH  ARG D 557     -22.823  -1.325 -16.058  1.00 35.49     0.174 HD
ATOM     10  HH  ARG D 557     -22.550  -2.384 -15.055  1.00 35.49     0.174 HD
ATOM     11  HH  ARG D 557     -25.121  -1.844 -13.143  1.00 35.49     0.174 HD
ATOM     12  HH  ARG D 557     -23.922  -2.708 -13.301  1.00 35.49     0.174 HD
ATOM     13  HE  ARG D 557     -25.638  -0.364 -14.560  1.00 35.49     0.178 HD
ENDBRANCH   4   5
ENDBRANCH   3   4
ENDBRANCH   2   3
ENDBRANCH   1   2
END_RES ARG D 557
BEGIN_RES GLU D 570
REMARK  3 active torsions:
REMARK  status: ('A' for Active; 'I' for Inactive)
REMARK    5  A    between atoms: CA   and  CB  
REMARK    6  A    between atoms: CB   and  CG  
REMARK    7  A    between atoms: CG   and  CD  
ROOT
ATOM     14  CA  GLU D 570     -18.033  -6.348 -13.375  1.00 32.92     0.160 C 
ENDROOT
BRANCH  14  15
ATOM     15  CB  GLU D 570     -19.500  -6.345 -13.794  1.00 32.92     0.043 C 
BRANCH  15  16
ATOM     16  CG  GLU D 570     -20.439  -5.520 -12.992  1.00 32.92     0.100 C 
BRANCH  16  17
ATOM     17  CD  GLU D 570     -21.738  -5.237 -13.711  1.00 32.92     0.185 C 
ATOM     18  OE1 GLU D 570     -22.332  -4.165 -13.488  1.00 32.92    -0.647 OA
ATOM     19  OE2 GLU D 570     -22.174  -6.105 -14.493  1.00 32.92    -0.647 OA
ENDBRANCH  16  17
ENDBRANCH  15  16
ENDBRANCH  14  15
END_RES GLU D 570
ENDMDL
MODEL 3
REMARK VINA RESULT:      -1.2      3.145      3.241
REMARK  12 active torsions:
REMARK  status: ('A' for Active; 'I' for Inactive)
REMARK    1  A    between atoms: C_2  and  C_3 
REMARK    2  A    between atoms: C_3  and  C_4 
REMARK    3  A    between atoms: C_4  and  C_5 
REMARK    4  A    between atoms: C_5  and  C_6 
REMARK    5  A    between atoms: C_6  and  C_7 
REMARK    6  A    between atoms: C_7  and  C_8 
REMARK    7  A    between atoms: C_8  and  C_9 
REMARK    8  A    between atoms: C_9  and  C_10 
REMARK    9  A    between atoms: C_10  and  C_11 
REMARK   10  A    between atoms: C_11  and  C_12 
REMARK       I    between atoms: C_12  and  N_14 
REMARK   11  A    between atoms: N_14  and  C_16 
REMARK   12  A    between atoms: C_16  and  C_17 
ROOT
HETATM    1 NA   UNL     2     -32.766  -6.071  -5.005  1.00  0.00     0.000 Na
ENDROOT
TORSDOF 12
BEGIN_RES ARG D 557
REMARK  4 active torsions:
REMARK  status: ('A' for Active; 'I' for Inactive)
REMARK    1  A    between atoms: CA   and  CB  
REMARK    2  A    between atoms: CB   and  CG  
REMARK    3  A    between atoms: CG   and  CD  
REMARK    4  A    between atoms: CD   and  NE  
REMARK       I    between atoms: NE   and  CZ  
REMARK       I    between atoms: CZ   and  NH1 
REMARK       I    between atoms: CZ   and  NH2 
ROOT
ATOM      1  CA  ARG D 557     -26.217   2.705 -17.014  1.00 35.49     0.159 C 
ENDROOT
BRANCH   1   2
ATOM      2  CB  ARG D 557     -26.789   1.319 -17.183  1.00 35.49     0.034 C 
BRANCH   2   3
ATOM      3  CG  ARG D 557     -25.836   0.203 -17.152  1.00 35.49     0.027 C 
BRANCH   3   4
ATOM      4  CD  ARG D 557     -24.759   0.408 -16.157  1.00 35.49     0.116 C 
BRANCH   4   5
ATOM      5  NE  ARG D 557     -24.909  -0.448 -15.010  1.00 35.49    -0.212 N 
ATOM      6  CZ  ARG D 557     -24.093  -1.419 -14.664  1.00 35.49     0.666 C 
ATOM      7  NH1 ARG D 557     -23.021  -1.729 -15.369  1.00 35.49    -0.235 N 
ATOM      8  NH2 ARG D 557     -24.374  -2.080 -13.579  1.00 35.49    -0.235 N 
ATOM      9  HH  ARG D 557     -22.816  -1.306 -16.085  1.00 35.49     0.174 HD
ATOM     10  HH  ARG D 557     -22.524  -2.371 -15.094  1.00 35.49     0.174 HD
ATOM     11  HH  ARG D 557     -25.069  -1.853 -13.140  1.00 35.49     0.174 HD
ATOM     12  HH  ARG D 557     -23.869  -2.711 -13.322  1.00 35.49     0.174 HD
ATOM     13  HE  ARG D 557     -25.612  -0.365 -14.540  1.00 35.49     0.178 HD
ENDBRANCH   4   5
ENDBRANCH   3   4
ENDBRANCH   2   3
ENDBRANCH   1   2
END_RES ARG D 557
BEGIN_RES GLU D 570
REMARK  3 active torsions:
REMARK  status: ('A' for Active; 'I' for Inactive)
REMARK    5  A    between atoms: CA   and  CB  
REMARK    6  A    between atoms: CB   and  CG  
REMARK    7  A    between atoms: CG   and  CD  
ROOT
ATOM     14  CA  GLU D 570     -18.033  -6.348 -13.375  1.00 32.92     0.160 C 
ENDROOT
BRANCH  14  15
ATOM     15  CB  GLU D 570     -19.500  -6.345 -13.794  1.00 32.92     0.043 C 
BRANCH  15  16
ATOM     16  CG  GLU D 570     -20.444  -5.539 -12.977  1.00 32.92     0.100 C 
BRANCH  16  17
ATOM     17  CD  GLU D 570     -21.744  -5.252 -13.690  1.00 32.92     0.185 C 
ATOM     18  OE1 GLU D 570     -22.253  -6.139 -14.402  1.00 32.92    -0.647 OA
ATOM     19  OE2 GLU D 570     -22.251  -4.122 -13.549  1.00 32.92    -0.647 OA
ENDBRANCH  16  17
ENDBRANCH  15  16
ENDBRANCH  14  15
END_RES GLU D 570
ENDMDL
MODEL 4
REMARK VINA RESULT:      -1.2      7.097      7.157
REMARK  12 active torsions:
REMARK  status: ('A' for Active; 'I' for Inactive)
REMARK    1  A    between atoms: C_2  and  C_3 
REMARK    2  A    between atoms: C_3  and  C_4 
REMARK    3  A    between atoms: C_4  and  C_5 
REMARK    4  A    between atoms: C_5  and  C_6 
REMARK    5  A    between atoms: C_6  and  C_7 
REMARK    6  A    between atoms: C_7  and  C_8 
REMARK    7  A    between atoms: C_8  and  C_9 
REMARK    8  A    between atoms: C_9  and  C_10 
REMARK    9  A    between atoms: C_10  and  C_11 
REMARK   10  A    between atoms: C_11  and  C_12 
REMARK       I    between atoms: C_12  and  N_14 
REMARK   11  A    between atoms: N_14  and  C_16 
REMARK   12  A    between atoms: C_16  and  C_17 
ROOT
HETATM    1 NA   UNL     2     -11.212   1.598   2.497  1.00  0.00     0.000 Na
ENDROOT
TORSDOF 12
BEGIN_RES ARG D 557
REMARK  4 active torsions:
REMARK  status: ('A' for Active; 'I' for Inactive)
REMARK    1  A    between atoms: CA   and  CB  
REMARK    2  A    between atoms: CB   and  CG  
REMARK    3  A    between atoms: CG   and  CD  
REMARK    4  A    between atoms: CD   and  NE  
REMARK       I    between atoms: NE   and  CZ  
REMARK       I    between atoms: CZ   and  NH1 
REMARK       I    between atoms: CZ   and  NH2 
ROOT
ATOM      1  CA  ARG D 557     -26.217   2.705 -17.014  1.00 35.49     0.159 C 
ENDROOT
BRANCH   1   2
ATOM      2  CB  ARG D 557     -26.789   1.319 -17.183  1.00 35.49     0.034 C 
BRANCH   2   3
ATOM      3  CG  ARG D 557     -25.860   0.195 -17.012  1.00 35.49     0.027 C 
BRANCH   3   4
ATOM      4  CD  ARG D 557     -26.260  -0.705 -15.907  1.00 35.49     0.116 C 
BRANCH   4   5
ATOM      5  NE  ARG D 557     -25.205  -0.886 -14.945  1.00 35.49    -0.212 N 
ATOM      6  CZ  ARG D 557     -24.891  -2.017 -14.353  1.00 35.49     0.666 C 
ATOM      7  NH1 ARG D 557     -25.547  -3.141 -14.578  1.00 35.49    -0.235 N 
ATOM      8  NH2 ARG D 557     -23.889  -2.002 -13.523  1.00 35.49    -0.235 N 
ATOM      9  HH  ARG D 557     -26.208  -3.174 -15.121  1.00 35.49     0.174 HD
ATOM     10  HH  ARG D 557     -25.295  -3.848 -14.164  1.00 35.49     0.174 HD
ATOM     11  HH  ARG D 557     -23.479  -1.263 -13.403  1.00 35.49     0.174 HD
ATOM     12  HH  ARG D 557     -23.654  -2.712 -13.125  1.00 35.49     0.174 HD
ATOM     13  HE  ARG D 557     -24.777  -0.198 -14.687  1.00 35.49     0.178 HD
ENDBRANCH   4   5
ENDBRANCH   3   4
ENDBRANCH   2   3
ENDBRANCH   1   2
END_RES ARG D 557
BEGIN_RES GLU D 570
REMARK  3 active torsions:
REMARK  status: ('A' for Active; 'I' for Inactive)
REMARK    5  A    between atoms: CA   and  CB  
REMARK    6  A    between atoms: CB   and  CG  
REMARK    7  A    between atoms: CG   and  CD  
ROOT
ATOM     14  CA  GLU D 570     -18.033  -6.348 -13.375  1.00 32.92     0.160 C 
ENDROOT
BRANCH  14  15
ATOM     15  CB  GLU D 570     -19.500  -6.345 -13.794  1.00 32.92     0.043 C 
BRANCH  15  16
ATOM     16  CG  GLU D 570     -20.448  -5.561 -12.961  1.00 32.92     0.100 C 
BRANCH  16  17
ATOM     17  CD  GLU D 570     -21.687  -5.139 -13.717  1.00 32.92     0.185 C 
ATOM     18  OE1 GLU D 570     -22.671  -4.719 -13.079  1.00 32.92    -0.647 OA
ATOM     19  OE2 GLU D 570     -21.678  -5.245 -14.959  1.00 32.92    -0.647 OA
ENDBRANCH  16  17
ENDBRANCH  15  16
ENDBRANCH  14  15
END_RES GLU D 570
ENDMDL
MODEL 5
REMARK VINA RESULT:      -1.2      5.756      5.756
REMARK  12 active torsions:
REMARK  status: ('A' for Active; 'I' for Inactive)
REMARK    1  A    between atoms: C_2  and  C_3 
REMARK    2  A    between atoms: C_3  and  C_4 
REMARK    3  A    between atoms: C_4  and  C_5 
REMARK    4  A    between atoms: C_5  and  C_6 
REMARK    5  A    between atoms: C_6  and  C_7 
REMARK    6  A    between atoms: C_7  and  C_8 
REMARK    7  A    between atoms: C_8  and  C_9 
REMARK    8  A    between atoms: C_9  and  C_10 
REMARK    9  A    between atoms: C_10  and  C_11 
REMARK   10  A    between atoms: C_11  and  C_12 
REMARK       I    between atoms: C_12  and  N_14 
REMARK   11  A    between atoms: N_14  and  C_16 
REMARK   12  A    between atoms: C_16  and  C_17 
ROOT
HETATM    1 NA   UNL     2     -27.099 -13.681 -13.086  1.00  0.00     0.000 Na
ENDROOT
TORSDOF 12
BEGIN_RES ARG D 557
REMARK  4 active torsions:
REMARK  status: ('A' for Active; 'I' for Inactive)
REMARK    1  A    between atoms: CA   and  CB  
REMARK    2  A    between atoms: CB   and  CG  
REMARK    3  A    between atoms: CG   and  CD  
REMARK    4  A    between atoms: CD   and  NE  
REMARK       I    between atoms: NE   and  CZ  
REMARK       I    between atoms: CZ   and  NH1 
REMARK       I    between atoms: CZ   and  NH2 
ROOT
ATOM      1  CA  ARG D 557     -26.217   2.705 -17.014  1.00 35.49     0.159 C 
ENDROOT
BRANCH   1   2
ATOM      2  CB  ARG D 557     -26.789   1.319 -17.183  1.00 35.49     0.034 C 
BRANCH   2   3
ATOM      3  CG  ARG D 557     -25.863   0.195 -16.998  1.00 35.49     0.027 C 
BRANCH   3   4
ATOM      4  CD  ARG D 557     -26.297  -0.722 -15.920  1.00 35.49     0.116 C 
BRANCH   4   5
ATOM      5  NE  ARG D 557     -25.266  -0.931 -14.938  1.00 35.49    -0.212 N 
ATOM      6  CZ  ARG D 557     -24.991  -2.071 -14.344  1.00 35.49     0.666 C 
ATOM      7  NH1 ARG D 557     -25.667  -3.178 -14.586  1.00 35.49    -0.235 N 
ATOM      8  NH2 ARG D 557     -24.005  -2.082 -13.493  1.00 35.49    -0.235 N 
ATOM      9  HH  ARG D 557     -26.318  -3.195 -15.143  1.00 35.49     0.174 HD
ATOM     10  HH  ARG D 557     -25.441  -3.893 -14.171  1.00 35.49     0.174 HD
ATOM     11  HH  ARG D 557     -23.582  -1.353 -13.362  1.00 35.49     0.174 HD
ATOM     12  HH  ARG D 557     -23.796  -2.799 -13.093  1.00 35.49     0.174 HD
ATOM     13  HE  ARG D 557     -24.828  -0.254 -14.668  1.00 35.49     0.178 HD
ENDBRANCH   4   5
ENDBRANCH   3   4
ENDBRANCH   2   3
ENDBRANCH   1   2
END_RES ARG D 557
BEGIN_RES GLU D 570
REMARK  3 active torsions:
REMARK  status: ('A' for Active; 'I' for Inactive)
REMARK    5  A    between atoms: CA   and  CB  
REMARK    6  A    between atoms: CB   and  CG  
REMARK    7  A    between atoms: CG   and  CD  
ROOT
ATOM     14  CA  GLU D 570     -18.033  -6.348 -13.375  1.00 32.92     0.160 C 
ENDROOT
BRANCH  14  15
ATOM     15  CB  GLU D 570     -19.500  -6.345 -13.794  1.00 32.92     0.043 C 
BRANCH  15  16
ATOM     16  CG  GLU D 570     -20.449  -5.565 -12.958  1.00 32.92     0.100 C 
BRANCH  16  17
ATOM     17  CD  GLU D 570     -21.668  -5.106 -13.724  1.00 32.92     0.185 C 
ATOM     18  OE1 GLU D 570     -21.622  -5.065 -14.968  1.00 32.92    -0.647 OA
ATOM     19  OE2 GLU D 570     -22.675  -4.768 -13.071  1.00 32.92    -0.647 OA
ENDBRANCH  16  17
ENDBRANCH  15  16
ENDBRANCH  14  15
END_RES GLU D 570
ENDMDL
MODEL 6
REMARK VINA RESULT:      -1.2      4.762      4.868
REMARK  12 active torsions:
REMARK  status: ('A' for Active; 'I' for Inactive)
REMARK    1  A    between atoms: C_2  and  C_3 
REMARK    2  A    between atoms: C_3  and  C_4 
REMARK    3  A    between atoms: C_4  and  C_5 
REMARK    4  A    between atoms: C_5  and  C_6 
REMARK    5  A    between atoms: C_6  and  C_7 
REMARK    6  A    between atoms: C_7  and  C_8 
REMARK    7  A    between atoms: C_8  and  C_9 
REMARK    8  A    between atoms: C_9  and  C_10 
REMARK    9  A    between atoms: C_10  and  C_11 
REMARK   10  A    between atoms: C_11  and  C_12 
REMARK       I    between atoms: C_12  and  N_14 
REMARK   11  A    between atoms: N_14  and  C_16 
REMARK   12  A    between atoms: C_16  and  C_17 
ROOT
HETATM    1 NA   UNL     2     -32.948  -9.321 -10.872  1.00  0.00     0.000 Na
ENDROOT
TORSDOF 12
BEGIN_RES ARG D 557
REMARK  4 active torsions:
REMARK  status: ('A' for Active; 'I' for Inactive)
REMARK    1  A    between atoms: CA   and  CB  
REMARK    2  A    between atoms: CB   and  CG  
REMARK    3  A    between atoms: CG   and  CD  
REMARK    4  A    between atoms: CD   and  NE  
REMARK       I    between atoms: NE   and  CZ  
REMARK       I    between atoms: CZ   and  NH1 
REMARK       I    between atoms: CZ   and  NH2 
ROOT
ATOM      1  CA  ARG D 557     -26.217   2.705 -17.014  1.00 35.49     0.159 C 
ENDROOT
BRANCH   1   2
ATOM      2  CB  ARG D 557     -26.789   1.319 -17.183  1.00 35.49     0.034 C 
BRANCH   2   3
ATOM      3  CG  ARG D 557     -25.835   0.203 -17.161  1.00 35.49     0.027 C 
BRANCH   3   4
ATOM      4  CD  ARG D 557     -24.751   0.408 -16.174  1.00 35.49     0.116 C 
BRANCH   4   5
ATOM      5  NE  ARG D 557     -24.901  -0.438 -15.019  1.00 35.49    -0.212 N 
ATOM      6  CZ  ARG D 557     -24.088  -1.408 -14.666  1.00 35.49     0.666 C 
ATOM      7  NH1 ARG D 557     -23.017  -1.727 -15.369  1.00 35.49    -0.235 N 
ATOM      8  NH2 ARG D 557     -24.368  -2.060 -13.575  1.00 35.49    -0.235 N 
ATOM      9  HH  ARG D 557     -22.812  -1.310 -16.090  1.00 35.49     0.174 HD
ATOM     10  HH  ARG D 557     -22.522  -2.367 -15.089  1.00 35.49     0.174 HD
ATOM     11  HH  ARG D 557     -25.062  -1.827 -13.137  1.00 35.49     0.174 HD
ATOM     12  HH  ARG D 557     -23.865  -2.690 -13.313  1.00 35.49     0.174 HD
ATOM     13  HE  ARG D 557     -25.604  -0.350 -14.549  1.00 35.49     0.178 HD
ENDBRANCH   4   5
ENDBRANCH   3   4
ENDBRANCH   2   3
ENDBRANCH   1   2
END_RES ARG D 557
BEGIN_RES GLU D 570
REMARK  3 active torsions:
REMARK  status: ('A' for Active; 'I' for Inactive)
REMARK    5  A    between atoms: CA   and  CB  
REMARK    6  A    between atoms: CB   and  CG  
REMARK    7  A    between atoms: CG   and  CD  
ROOT
ATOM     14  CA  GLU D 570     -18.033  -6.348 -13.375  1.00 32.92     0.160 C 
ENDROOT
BRANCH  14  15
ATOM     15  CB  GLU D 570     -19.500  -6.345 -13.794  1.00 32.92     0.043 C 
BRANCH  15  16
ATOM     16  CG  GLU D 570     -20.442  -5.529 -12.984  1.00 32.92     0.100 C 
BRANCH  16  17
ATOM     17  CD  GLU D 570     -21.737  -5.236 -13.705  1.00 32.92     0.185 C 
ATOM     18  OE1 GLU D 570     -22.317  -4.154 -13.490  1.00 32.92    -0.647 OA
ATOM     19  OE2 GLU D 570     -22.185  -6.104 -14.479  1.00 32.92    -0.647 OA
ENDBRANCH  16  17
ENDBRANCH  15  16
ENDBRANCH  14  15
END_RES GLU D 570
ENDMDL
MODEL 7
REMARK VINA RESULT:      -1.2      2.606      3.165
REMARK  12 active torsions:
REMARK  status: ('A' for Active; 'I' for Inactive)
REMARK    1  A    between atoms: C_2  and  C_3 
REMARK    2  A    between atoms: C_3  and  C_4 
REMARK    3  A    between atoms: C_4  and  C_5 
REMARK    4  A    between atoms: C_5  and  C_6 
REMARK    5  A    between atoms: C_6  and  C_7 
REMARK    6  A    between atoms: C_7  and  C_8 
REMARK    7  A    between atoms: C_8  and  C_9 
REMARK    8  A    between atoms: C_9  and  C_10 
REMARK    9  A    between atoms: C_10  and  C_11 
REMARK   10  A    between atoms: C_11  and  C_12 
REMARK       I    between atoms: C_12  and  N_14 
REMARK   11  A    between atoms: N_14  and  C_16 
REMARK   12  A    between atoms: C_16  and  C_17 
ROOT
HETATM    1 NA   UNL     2     -32.395  -8.531   4.520  1.00  0.00     0.000 Na
ENDROOT
TORSDOF 12
BEGIN_RES ARG D 557
REMARK  4 active torsions:
REMARK  status: ('A' for Active; 'I' for Inactive)
REMARK    1  A    between atoms: CA   and  CB  
REMARK    2  A    between atoms: CB   and  CG  
REMARK    3  A    between atoms: CG   and  CD  
REMARK    4  A    between atoms: CD   and  NE  
REMARK       I    between atoms: NE   and  CZ  
REMARK       I    between atoms: CZ   and  NH1 
REMARK       I    between atoms: CZ   and  NH2 
ROOT
ATOM      1  CA  ARG D 557     -26.217   2.705 -17.014  1.00 35.49     0.159 C 
ENDROOT
BRANCH   1   2
ATOM      2  CB  ARG D 557     -26.789   1.319 -17.183  1.00 35.49     0.034 C 
BRANCH   2   3
ATOM      3  CG  ARG D 557     -28.232   1.226 -17.438  1.00 35.49     0.027 C 
BRANCH   3   4
ATOM      4  CD  ARG D 557     -28.912   0.304 -16.501  1.00 35.49     0.116 C 
BRANCH   4   5
ATOM      5  NE  ARG D 557     -29.301  -0.927 -17.137  1.00 35.49    -0.212 N 
ATOM      6  CZ  ARG D 557     -28.673  -2.077 -17.033  1.00 35.49     0.666 C 
ATOM      7  NH1 ARG D 557     -27.573  -2.223 -16.318  1.00 35.49    -0.235 N 
ATOM      8  NH2 ARG D 557     -29.180  -3.097 -17.664  1.00 35.49    -0.235 N 
ATOM      9  HH  ARG D 557     -27.224  -1.566 -15.893  1.00 35.49     0.174 HD
ATOM     10  HH  ARG D 557     -27.209  -2.998 -16.284  1.00 35.49     0.174 HD
ATOM     11  HH  ARG D 557     -29.895  -2.975 -18.112  1.00 35.49     0.174 HD
ATOM     12  HH  ARG D 557     -28.806  -3.856 -17.617  1.00 35.49     0.174 HD
ATOM     13  HE  ARG D 557     -29.958  -0.908 -17.676  1.00 35.49     0.178 HD
ENDBRANCH   4   5
ENDBRANCH   3   4
ENDBRANCH   2   3
ENDBRANCH   1   2
END_RES ARG D 557
BEGIN_RES GLU D 570
REMARK  3 active torsions:
REMARK  status: ('A' for Active; 'I' for Inactive)
REMARK    5  A    between atoms: CA   and  CB  
REMARK    6  A    between atoms: CB   and  CG  
REMARK    7  A    between atoms: CG   and  CD  
ROOT
ATOM     14  CA  GLU D 570     -18.033  -6.348 -13.375  1.00 32.92     0.160 C 
ENDROOT
BRANCH  14  15
ATOM     15  CB  GLU D 570     -19.500  -6.345 -13.794  1.00 32.92     0.043 C 
BRANCH  15  16
ATOM     16  CG  GLU D 570     -20.442  -5.531 -12.983  1.00 32.92     0.100 C 
BRANCH  16  17
ATOM     17  CD  GLU D 570     -21.706  -5.174 -13.729  1.00 32.92     0.185 C 
ATOM     18  OE1 GLU D 570     -21.646  -4.967 -14.957  1.00 32.92    -0.647 OA
ATOM     19  OE2 GLU D 570     -22.765  -5.083 -13.077  1.00 32.92    -0.647 OA
ENDBRANCH  16  17
ENDBRANCH  15  16
ENDBRANCH  14  15
END_RES GLU D 570
ENDMDL
MODEL 8
REMARK VINA RESULT:      -1.1      7.339      7.404
REMARK  12 active torsions:
REMARK  status: ('A' for Active; 'I' for Inactive)
REMARK    1  A    between atoms: C_2  and  C_3 
REMARK    2  A    between atoms: C_3  and  C_4 
REMARK    3  A    between atoms: C_4  and  C_5 
REMARK    4  A    between atoms: C_5  and  C_6 
REMARK    5  A    between atoms: C_6  and  C_7 
REMARK    6  A    between atoms: C_7  and  C_8 
REMARK    7  A    between atoms: C_8  and  C_9 
REMARK    8  A    between atoms: C_9  and  C_10 
REMARK    9  A    between atoms: C_10  and  C_11 
REMARK   10  A    between atoms: C_11  and  C_12 
REMARK       I    between atoms: C_12  and  N_14 
REMARK   11  A    between atoms: N_14  and  C_16 
REMARK   12  A    between atoms: C_16  and  C_17 
ROOT
HETATM    1 NA   UNL     2     -36.187  -0.343 -17.802  1.00  0.00     0.000 Na
ENDROOT
TORSDOF 12
BEGIN_RES ARG D 557
REMARK  4 active torsions:
REMARK  status: ('A' for Active; 'I' for Inactive)
REMARK    1  A    between atoms: CA   and  CB  
REMARK    2  A    between atoms: CB   and  CG  
REMARK    3  A    between atoms: CG   and  CD  
REMARK    4  A    between atoms: CD   and  NE  
REMARK       I    between atoms: NE   and  CZ  
REMARK       I    between atoms: CZ   and  NH1 
REMARK       I    between atoms: CZ   and  NH2 
ROOT
ATOM      1  CA  ARG D 557     -26.217   2.705 -17.014  1.00 35.49     0.159 C 
ENDROOT
BRANCH   1   2
ATOM      2  CB  ARG D 557     -26.789   1.319 -17.183  1.00 35.49     0.034 C 
BRANCH   2   3
ATOM      3  CG  ARG D 557     -25.836   0.203 -17.157  1.00 35.49     0.027 C 
BRANCH   3   4
ATOM      4  CD  ARG D 557     -24.754   0.408 -16.167  1.00 35.49     0.116 C 
BRANCH   4   5
ATOM      5  NE  ARG D 557     -24.907  -0.437 -15.013  1.00 35.49    -0.212 N 
ATOM      6  CZ  ARG D 557     -24.099  -1.413 -14.662  1.00 35.49     0.666 C 
ATOM      7  NH1 ARG D 557     -23.032  -1.738 -15.368  1.00 35.49    -0.235 N 
ATOM      8  NH2 ARG D 557     -24.381  -2.063 -13.571  1.00 35.49    -0.235 N 
ATOM      9  HH  ARG D 557     -22.826  -1.322 -16.088  1.00 35.49     0.174 HD
ATOM     10  HH  ARG D 557     -22.540  -2.381 -15.089  1.00 35.49     0.174 HD
ATOM     11  HH  ARG D 557     -25.073  -1.826 -13.131  1.00 35.49     0.174 HD
ATOM     12  HH  ARG D 557     -23.881  -2.696 -13.310  1.00 35.49     0.174 HD
ATOM     13  HE  ARG D 557     -25.608  -0.345 -14.541  1.00 35.49     0.178 HD
ENDBRANCH   4   5
ENDBRANCH   3   4
ENDBRANCH   2   3
ENDBRANCH   1   2
END_RES ARG D 557
BEGIN_RES GLU D 570
REMARK  3 active torsions:
REMARK  status: ('A' for Active; 'I' for Inactive)
REMARK    5  A    between atoms: CA   and  CB  
REMARK    6  A    between atoms: CB   and  CG  
REMARK    7  A    between atoms: CG   and  CD  
ROOT
ATOM     14  CA  GLU D 570     -18.033  -6.348 -13.375  1.00 32.92     0.160 C 
ENDROOT
BRANCH  14  15
ATOM     15  CB  GLU D 570     -19.500  -6.345 -13.794  1.00 32.92     0.043 C 
BRANCH  15  16
ATOM     16  CG  GLU D 570     -20.448  -5.560 -12.962  1.00 32.92     0.100 C 
BRANCH  16  17
ATOM     17  CD  GLU D 570     -21.733  -5.230 -13.685  1.00 32.92     0.185 C 
ATOM     18  OE1 GLU D 570     -22.255  -4.112 -13.512  1.00 32.92    -0.647 OA
ATOM     19  OE2 GLU D 570     -22.232  -6.105 -14.419  1.00 32.92    -0.647 OA
ENDBRANCH  16  17
ENDBRANCH  15  16
ENDBRANCH  14  15
END_RES GLU D 570
ENDMDL
MODEL 9
REMARK VINA RESULT:      -1.1      5.384      5.441
REMARK  12 active torsions:
REMARK  status: ('A' for Active; 'I' for Inactive)
REMARK    1  A    between atoms: C_2  and  C_3 
REMARK    2  A    between atoms: C_3  and  C_4 
REMARK    3  A    between atoms: C_4  and  C_5 
REMARK    4  A    between atoms: C_5  and  C_6 
REMARK    5  A    between atoms: C_6  and  C_7 
REMARK    6  A    between atoms: C_7  and  C_8 
REMARK    7  A    between atoms: C_8  and  C_9 
REMARK    8  A    between atoms: C_9  and  C_10 
REMARK    9  A    between atoms: C_10  and  C_11 
REMARK   10  A    between atoms: C_11  and  C_12 
REMARK       I    between atoms: C_12  and  N_14 
REMARK   11  A    between atoms: N_14  and  C_16 
REMARK   12  A    between atoms: C_16  and  C_17 
ROOT
HETATM    1 NA   UNL     2     -35.795   1.787  -9.194  1.00  0.00     0.000 Na
ENDROOT
TORSDOF 12
BEGIN_RES ARG D 557
REMARK  4 active torsions:
REMARK  status: ('A' for Active; 'I' for Inactive)
REMARK    1  A    between atoms: CA   and  CB  
REMARK    2  A    between atoms: CB   and  CG  
REMARK    3  A    between atoms: CG   and  CD  
REMARK    4  A    between atoms: CD   and  NE  
REMARK       I    between atoms: NE   and  CZ  
REMARK       I    between atoms: CZ   and  NH1 
REMARK       I    between atoms: CZ   and  NH2 
ROOT
ATOM      1  CA  ARG D 557     -26.217   2.705 -17.014  1.00 35.49     0.159 C 
ENDROOT
BRANCH   1   2
ATOM      2  CB  ARG D 557     -26.789   1.319 -17.183  1.00 35.49     0.034 C 
BRANCH   2   3
ATOM      3  CG  ARG D 557     -25.835   0.203 -17.160  1.00 35.49     0.027 C 
BRANCH   3   4
ATOM      4  CD  ARG D 557     -24.751   0.408 -16.173  1.00 35.49     0.116 C 
BRANCH   4   5
ATOM      5  NE  ARG D 557     -24.898  -0.442 -15.021  1.00 35.49    -0.212 N 
ATOM      6  CZ  ARG D 557     -24.081  -1.410 -14.672  1.00 35.49     0.666 C 
ATOM      7  NH1 ARG D 557     -23.009  -1.722 -15.376  1.00 35.49    -0.235 N 
ATOM      8  NH2 ARG D 557     -24.359  -2.066 -13.582  1.00 35.49    -0.235 N 
ATOM      9  HH  ARG D 557     -22.806  -1.303 -16.095  1.00 35.49     0.174 HD
ATOM     10  HH  ARG D 557     -22.511  -2.362 -15.098  1.00 35.49     0.174 HD
ATOM     11  HH  ARG D 557     -25.054  -1.837 -13.144  1.00 35.49     0.174 HD
ATOM     12  HH  ARG D 557     -23.853  -2.695 -13.323  1.00 35.49     0.174 HD
ATOM     13  HE  ARG D 557     -25.601  -0.358 -14.550  1.00 35.49     0.178 HD
ENDBRANCH   4   5
ENDBRANCH   3   4
ENDBRANCH   2   3
ENDBRANCH   1   2
END_RES ARG D 557
BEGIN_RES GLU D 570
REMARK  3 active torsions:
REMARK  status: ('A' for Active; 'I' for Inactive)
REMARK    5  A    between atoms: CA   and  CB  
REMARK    6  A    between atoms: CB   and  CG  
REMARK    7  A    between atoms: CG   and  CD  
ROOT
ATOM     14  CA  GLU D 570     -18.033  -6.348 -13.375  1.00 32.92     0.160 C 
ENDROOT
BRANCH  14  15
ATOM     15  CB  GLU D 570     -19.500  -6.345 -13.794  1.00 32.92     0.043 C 
BRANCH  15  16
ATOM     16  CG  GLU D 570     -20.446  -5.551 -12.968  1.00 32.92     0.100 C 
BRANCH  16  17
ATOM     17  CD  GLU D 570     -21.747  -5.258 -13.679  1.00 32.92     0.185 C 
ATOM     18  OE1 GLU D 570     -22.258  -6.142 -14.393  1.00 32.92    -0.647 OA
ATOM     19  OE2 GLU D 570     -22.250  -4.127 -13.534  1.00 32.92    -0.647 OA
ENDBRANCH  16  17
ENDBRANCH  15  16
ENDBRANCH  14  15
END_RES GLU D 570
ENDMDL
