MODEL 1
REMARK VINA RESULT:      -7.1      0.000      0.000
REMARK  19 active torsions:
REMARK  status: ('A' for Active; 'I' for Inactive)
REMARK    1  A    between atoms: C_2  and  C_3 
REMARK    2  A    between atoms: C_3  and  C_4 
REMARK    3  A    between atoms: C_4  and  C_5 
REMARK    4  A    between atoms: C_5  and  C_6 
REMARK    5  A    between atoms: C_6  and  C_7 
REMARK    6  A    between atoms: C_7  and  C_8 
REMARK    7  A    between atoms: C_8  and  C_9 
REMARK    8  A    between atoms: C_10  and  C_11 
REMARK    9  A    between atoms: C_11  and  C_12 
REMARK   10  A    between atoms: C_12  and  C_13 
REMARK   11  A    between atoms: C_13  and  C_14 
REMARK   12  A    between atoms: C_14  and  C_15 
REMARK   13  A    between atoms: C_15  and  C_16 
REMARK   14  A    between atoms: C_16  and  C_17 
REMARK   15  A    between atoms: C_17  and  C_18 
REMARK   16  A    between atoms: C_18  and  O_20 
REMARK   17  A    between atoms: O_20  and  C_21 
REMARK   18  A    between atoms: C_21  and  C_22 
REMARK   19  A    between atoms: C_22  and  C_23 
ROOT
HETATM    1  C   UNL     1     -20.110  -4.860  -5.834  1.00  0.00     0.004 C 
ENDROOT
BRANCH   1   2
HETATM    2  C   UNL     1     -21.056  -6.053  -5.825  1.00  0.00     0.027 C 
BRANCH   2   3
HETATM    3  C   UNL     1     -20.905  -6.832  -4.564  1.00  0.00    -0.031 C 
HETATM    4  C   UNL     1     -21.681  -6.618  -3.491  1.00  0.00    -0.031 C 
BRANCH   4   5
HETATM    5  C   UNL     1     -21.530  -7.398  -2.228  1.00  0.00     0.027 C 
BRANCH   5   6
HETATM    6  C   UNL     1     -22.327  -6.753  -1.105  1.00  0.00     0.004 C 
BRANCH   6   7
HETATM    7  C   UNL     1     -22.602  -7.770  -0.005  1.00  0.00     0.000 C 
BRANCH   7   8
HETATM    8  C   UNL     1     -22.603  -9.177  -0.579  1.00  0.00     0.000 C 
BRANCH   8   9
HETATM    9  C   UNL     1     -22.001 -10.154   0.421  1.00  0.00     0.000 C 
BRANCH   9  10
HETATM   10  C   UNL     1     -22.177 -11.585  -0.066  1.00  0.00    -0.000 C 
BRANCH  10  11
HETATM   11  C   UNL     1     -23.476 -12.176   0.464  1.00  0.00    -0.005 C 
HETATM   12  C   UNL     1     -23.188 -13.341   1.393  1.00  0.00     0.005 C 
ENDBRANCH  10  11
ENDBRANCH   9  10
ENDBRANCH   8   9
ENDBRANCH   7   8
ENDBRANCH   6   7
ENDBRANCH   5   6
ENDBRANCH   4   5
ENDBRANCH   2   3
ENDBRANCH   1   2
BRANCH   1  13
HETATM   13  C   UNL     1     -20.125  -4.186  -7.200  1.00  0.00     0.000 C 
BRANCH  13  14
HETATM   14  C   UNL     1     -20.993  -4.970  -8.174  1.00  0.00     0.000 C 
BRANCH  14  15
HETATM   15  C   UNL     1     -22.046  -4.064  -8.809  1.00  0.00     0.000 C 
BRANCH  15  16
HETATM   16  C   UNL     1     -22.303  -4.483 -10.252  1.00  0.00     0.010 C 
BRANCH  16  17
HETATM   17  C   UNL     1     -23.777  -4.772 -10.521  1.00  0.00     0.111 C 
BRANCH  17  18
HETATM   18  C   UNL     1     -24.561  -3.475 -10.582  1.00  0.00     0.258 C 
HETATM   19  O   UNL     1     -25.554  -3.216  -9.930  1.00  0.00    -0.265 OA
BRANCH  18  20
HETATM   20  O   UNL     1     -24.056  -2.681 -11.573  1.00  0.00    -0.321 OA
BRANCH  20  21
HETATM   21  C   UNL     1     -24.324  -3.171 -12.893  1.00  0.00     0.178 C 
BRANCH  21  22
HETATM   22  C   UNL     1     -23.143  -2.966 -13.829  1.00  0.00     0.026 C 
BRANCH  22  23
HETATM   23  C   UNL     1     -22.607  -4.300 -14.357  1.00  0.00    -0.002 C 
HETATM   24  C   UNL     1     -23.571  -5.438 -14.070  1.00  0.00     0.005 C 
ENDBRANCH  22  23
ENDBRANCH  21  22
ENDBRANCH  20  21
ENDBRANCH  18  20
ENDBRANCH  17  18
ENDBRANCH  16  17
ENDBRANCH  15  16
ENDBRANCH  14  15
ENDBRANCH  13  14
ENDBRANCH   1  13
TORSDOF 19
BEGIN_RES ARG D 557
REMARK  4 active torsions:
REMARK  status: ('A' for Active; 'I' for Inactive)
REMARK    1  A    between atoms: CA   and  CB  
REMARK    2  A    between atoms: CB   and  CG  
REMARK    3  A    between atoms: CG   and  CD  
REMARK    4  A    between atoms: CD   and  NE  
REMARK       I    between atoms: NE   and  CZ  
REMARK       I    between atoms: CZ   and  NH1 
REMARK       I    between atoms: CZ   and  NH2 
ROOT
ATOM      1  CA  ARG D 557     -26.217   2.705 -17.014  1.00 35.49     0.159 C 
ENDROOT
BRANCH   1   2
ATOM      2  CB  ARG D 557     -26.789   1.319 -17.183  1.00 35.49     0.034 C 
BRANCH   2   3
ATOM      3  CG  ARG D 557     -28.240   1.223 -17.381  1.00 35.49     0.027 C 
BRANCH   3   4
ATOM      4  CD  ARG D 557     -28.877   0.274 -16.439  1.00 35.49     0.116 C 
BRANCH   4   5
ATOM      5  NE  ARG D 557     -29.289  -0.942 -17.089  1.00 35.49    -0.212 N 
ATOM      6  CZ  ARG D 557     -28.666  -2.097 -17.023  1.00 35.49     0.666 C 
ATOM      7  NH1 ARG D 557     -27.549  -2.262 -16.339  1.00 35.49    -0.235 N 
ATOM      8  NH2 ARG D 557     -29.195  -3.101 -17.659  1.00 35.49    -0.235 N 
ATOM      9  HH  ARG D 557     -27.184  -1.616 -15.911  1.00 35.49     0.174 HD
ATOM     10  HH  ARG D 557     -27.189  -3.040 -16.330  1.00 35.49     0.174 HD
ATOM     11  HH  ARG D 557     -29.921  -2.967 -18.087  1.00 35.49     0.174 HD
ATOM     12  HH  ARG D 557     -28.824  -3.863 -17.637  1.00 35.49     0.174 HD
ATOM     13  HE  ARG D 557     -29.960  -0.908 -17.610  1.00 35.49     0.178 HD
ENDBRANCH   4   5
ENDBRANCH   3   4
ENDBRANCH   2   3
ENDBRANCH   1   2
END_RES ARG D 557
BEGIN_RES GLU D 570
REMARK  3 active torsions:
REMARK  status: ('A' for Active; 'I' for Inactive)
REMARK    5  A    between atoms: CA   and  CB  
REMARK    6  A    between atoms: CB   and  CG  
REMARK    7  A    between atoms: CG   and  CD  
ROOT
ATOM     14  CA  GLU D 570     -18.033  -6.348 -13.375  1.00 32.92     0.160 C 
ENDROOT
BRANCH  14  15
ATOM     15  CB  GLU D 570     -19.500  -6.345 -13.794  1.00 32.92     0.043 C 
BRANCH  15  16
ATOM     16  CG  GLU D 570     -20.047  -7.595 -14.382  1.00 32.92     0.100 C 
BRANCH  16  17
ATOM     17  CD  GLU D 570     -20.779  -7.364 -15.683  1.00 32.92     0.185 C 
ATOM     18  OE1 GLU D 570     -21.646  -8.183 -16.043  1.00 32.92    -0.647 OA
ATOM     19  OE2 GLU D 570     -20.471  -6.362 -16.357  1.00 32.92    -0.647 OA
ENDBRANCH  16  17
ENDBRANCH  15  16
ENDBRANCH  14  15
END_RES GLU D 570
ENDMDL
MODEL 2
REMARK VINA RESULT:      -7.1      2.482      5.086
REMARK  19 active torsions:
REMARK  status: ('A' for Active; 'I' for Inactive)
REMARK    1  A    between atoms: C_2  and  C_3 
REMARK    2  A    between atoms: C_3  and  C_4 
REMARK    3  A    between atoms: C_4  and  C_5 
REMARK    4  A    between atoms: C_5  and  C_6 
REMARK    5  A    between atoms: C_6  and  C_7 
REMARK    6  A    between atoms: C_7  and  C_8 
REMARK    7  A    between atoms: C_8  and  C_9 
REMARK    8  A    between atoms: C_10  and  C_11 
REMARK    9  A    between atoms: C_11  and  C_12 
REMARK   10  A    between atoms: C_12  and  C_13 
REMARK   11  A    between atoms: C_13  and  C_14 
REMARK   12  A    between atoms: C_14  and  C_15 
REMARK   13  A    between atoms: C_15  and  C_16 
REMARK   14  A    between atoms: C_16  and  C_17 
REMARK   15  A    between atoms: C_17  and  C_18 
REMARK   16  A    between atoms: C_18  and  O_20 
REMARK   17  A    between atoms: O_20  and  C_21 
REMARK   18  A    between atoms: C_21  and  C_22 
REMARK   19  A    between atoms: C_22  and  C_23 
ROOT
HETATM    1  C   UNL     1     -22.689  -3.702 -11.271  1.00  0.00     0.004 C 
ENDROOT
BRANCH   1   2
HETATM    2  C   UNL     1     -23.771  -4.063 -10.263  1.00  0.00     0.027 C 
BRANCH   2   3
HETATM    3  C   UNL     1     -23.202  -4.137  -8.888  1.00  0.00    -0.031 C 
HETATM    4  C   UNL     1     -21.910  -3.888  -8.632  1.00  0.00    -0.031 C 
BRANCH   4   5
HETATM    5  C   UNL     1     -21.340  -3.961  -7.255  1.00  0.00     0.027 C 
BRANCH   5   6
HETATM    6  C   UNL     1     -22.024  -5.058  -6.453  1.00  0.00     0.004 C 
BRANCH   6   7
HETATM    7  C   UNL     1     -20.984  -5.918  -5.748  1.00  0.00     0.000 C 
BRANCH   7   8
HETATM    8  C   UNL     1     -21.630  -7.182  -5.203  1.00  0.00     0.000 C 
BRANCH   8   9
HETATM    9  C   UNL     1     -21.186  -7.424  -3.769  1.00  0.00     0.000 C 
BRANCH   9  10
HETATM   10  C   UNL     1     -21.265  -6.133  -2.966  1.00  0.00    -0.000 C 
BRANCH  10  11
HETATM   11  C   UNL     1     -22.310  -6.250  -1.865  1.00  0.00    -0.005 C 
HETATM   12  C   UNL     1     -21.966  -7.391  -0.926  1.00  0.00     0.005 C 
ENDBRANCH  10  11
ENDBRANCH   9  10
ENDBRANCH   8   9
ENDBRANCH   7   8
ENDBRANCH   6   7
ENDBRANCH   5   6
ENDBRANCH   4   5
ENDBRANCH   2   3
ENDBRANCH   1   2
BRANCH   1  13
HETATM   13  C   UNL     1     -23.239  -2.734 -12.312  1.00  0.00     0.000 C 
BRANCH  13  14
HETATM   14  C   UNL     1     -23.479  -3.451 -13.633  1.00  0.00     0.000 C 
BRANCH  14  15
HETATM   15  C   UNL     1     -22.630  -4.717 -13.724  1.00  0.00     0.000 C 
BRANCH  15  16
HETATM   16  C   UNL     1     -23.522  -5.940 -13.897  1.00  0.00     0.010 C 
BRANCH  16  17
HETATM   17  C   UNL     1     -24.509  -5.782 -15.051  1.00  0.00     0.111 C 
BRANCH  17  18
HETATM   18  C   UNL     1     -24.867  -7.142 -15.621  1.00  0.00     0.258 C 
HETATM   19  O   UNL     1     -24.106  -7.886 -16.209  1.00  0.00    -0.265 OA
BRANCH  18  20
HETATM   20  O   UNL     1     -26.210  -7.357 -15.484  1.00  0.00    -0.321 OA
BRANCH  20  21
HETATM   21  C   UNL     1     -27.017  -6.418 -16.204  1.00  0.00     0.178 C 
BRANCH  21  22
HETATM   22  C   UNL     1     -28.498  -6.583 -15.896  1.00  0.00     0.026 C 
BRANCH  22  23
HETATM   23  C   UNL     1     -29.328  -6.698 -17.178  1.00  0.00    -0.002 C 
HETATM   24  C   UNL     1     -28.485  -6.426 -18.412  1.00  0.00     0.005 C 
ENDBRANCH  22  23
ENDBRANCH  21  22
ENDBRANCH  20  21
ENDBRANCH  18  20
ENDBRANCH  17  18
ENDBRANCH  16  17
ENDBRANCH  15  16
ENDBRANCH  14  15
ENDBRANCH  13  14
ENDBRANCH   1  13
TORSDOF 19
BEGIN_RES ARG D 557
REMARK  4 active torsions:
REMARK  status: ('A' for Active; 'I' for Inactive)
REMARK    1  A    between atoms: CA   and  CB  
REMARK    2  A    between atoms: CB   and  CG  
REMARK    3  A    between atoms: CG   and  CD  
REMARK    4  A    between atoms: CD   and  NE  
REMARK       I    between atoms: NE   and  CZ  
REMARK       I    between atoms: CZ   and  NH1 
REMARK       I    between atoms: CZ   and  NH2 
ROOT
ATOM      1  CA  ARG D 557     -26.217   2.705 -17.014  1.00 35.49     0.159 C 
ENDROOT
BRANCH   1   2
ATOM      2  CB  ARG D 557     -26.789   1.319 -17.183  1.00 35.49     0.034 C 
BRANCH   2   3
ATOM      3  CG  ARG D 557     -28.231   1.226 -17.442  1.00 35.49     0.027 C 
BRANCH   3   4
ATOM      4  CD  ARG D 557     -28.917   0.318 -16.495  1.00 35.49     0.116 C 
BRANCH   4   5
ATOM      5  NE  ARG D 557     -29.332  -0.908 -17.123  1.00 35.49    -0.212 N 
ATOM      6  CZ  ARG D 557     -28.714  -2.065 -17.032  1.00 35.49     0.666 C 
ATOM      7  NH1 ARG D 557     -27.601  -2.222 -16.341  1.00 35.49    -0.235 N 
ATOM      8  NH2 ARG D 557     -29.245  -3.079 -17.652  1.00 35.49    -0.235 N 
ATOM      9  HH  ARG D 557     -27.235  -1.569 -15.923  1.00 35.49     0.174 HD
ATOM     10  HH  ARG D 557     -27.244  -3.000 -16.315  1.00 35.49     0.174 HD
ATOM     11  HH  ARG D 557     -29.968  -2.950 -18.085  1.00 35.49     0.174 HD
ATOM     12  HH  ARG D 557     -28.877  -3.842 -17.613  1.00 35.49     0.174 HD
ATOM     13  HE  ARG D 557     -30.000  -0.882 -17.648  1.00 35.49     0.178 HD
ENDBRANCH   4   5
ENDBRANCH   3   4
ENDBRANCH   2   3
ENDBRANCH   1   2
END_RES ARG D 557
BEGIN_RES GLU D 570
REMARK  3 active torsions:
REMARK  status: ('A' for Active; 'I' for Inactive)
REMARK    5  A    between atoms: CA   and  CB  
REMARK    6  A    between atoms: CB   and  CG  
REMARK    7  A    between atoms: CG   and  CD  
ROOT
ATOM     14  CA  GLU D 570     -18.033  -6.348 -13.375  1.00 32.92     0.160 C 
ENDROOT
BRANCH  14  15
ATOM     15  CB  GLU D 570     -19.500  -6.345 -13.794  1.00 32.92     0.043 C 
BRANCH  15  16
ATOM     16  CG  GLU D 570     -20.092  -7.638 -14.223  1.00 32.92     0.100 C 
BRANCH  16  17
ATOM     17  CD  GLU D 570     -20.593  -7.613 -15.649  1.00 32.92     0.185 C 
ATOM     18  OE1 GLU D 570     -20.825  -8.691 -16.228  1.00 32.92    -0.647 OA
ATOM     19  OE2 GLU D 570     -20.739  -6.503 -16.197  1.00 32.92    -0.647 OA
ENDBRANCH  16  17
ENDBRANCH  15  16
ENDBRANCH  14  15
END_RES GLU D 570
ENDMDL
MODEL 3
REMARK VINA RESULT:      -7.0      1.728      2.880
REMARK  19 active torsions:
REMARK  status: ('A' for Active; 'I' for Inactive)
REMARK    1  A    between atoms: C_2  and  C_3 
REMARK    2  A    between atoms: C_3  and  C_4 
REMARK    3  A    between atoms: C_4  and  C_5 
REMARK    4  A    between atoms: C_5  and  C_6 
REMARK    5  A    between atoms: C_6  and  C_7 
REMARK    6  A    between atoms: C_7  and  C_8 
REMARK    7  A    between atoms: C_8  and  C_9 
REMARK    8  A    between atoms: C_10  and  C_11 
REMARK    9  A    between atoms: C_11  and  C_12 
REMARK   10  A    between atoms: C_12  and  C_13 
REMARK   11  A    between atoms: C_13  and  C_14 
REMARK   12  A    between atoms: C_14  and  C_15 
REMARK   13  A    between atoms: C_15  and  C_16 
REMARK   14  A    between atoms: C_16  and  C_17 
REMARK   15  A    between atoms: C_17  and  C_18 
REMARK   16  A    between atoms: C_18  and  O_20 
REMARK   17  A    between atoms: O_20  and  C_21 
REMARK   18  A    between atoms: C_21  and  C_22 
REMARK   19  A    between atoms: C_22  and  C_23 
ROOT
HETATM    1  C   UNL     1     -22.031  -3.934  -7.856  1.00  0.00     0.004 C 
ENDROOT
BRANCH   1   2
HETATM    2  C   UNL     1     -21.127  -5.120  -7.551  1.00  0.00     0.027 C 
BRANCH   2   3
HETATM    3  C   UNL     1     -21.393  -5.643  -6.181  1.00  0.00    -0.031 C 
HETATM    4  C   UNL     1     -20.765  -6.721  -5.691  1.00  0.00    -0.031 C 
BRANCH   4   5
HETATM    5  C   UNL     1     -21.030  -7.246  -4.320  1.00  0.00     0.027 C 
BRANCH   5   6
HETATM    6  C   UNL     1     -22.019  -6.350  -3.589  1.00  0.00     0.004 C 
BRANCH   6   7
HETATM    7  C   UNL     1     -21.884  -6.538  -2.084  1.00  0.00     0.000 C 
BRANCH   7   8
HETATM    8  C   UNL     1     -20.958  -7.705  -1.781  1.00  0.00     0.000 C 
BRANCH   8   9
HETATM    9  C   UNL     1     -21.224  -8.238  -0.381  1.00  0.00     0.000 C 
BRANCH   9  10
HETATM   10  C   UNL     1     -22.669  -8.699  -0.256  1.00  0.00    -0.000 C 
BRANCH  10  11
HETATM   11  C   UNL     1     -22.844 -10.085  -0.861  1.00  0.00    -0.005 C 
HETATM   12  C   UNL     1     -23.944 -10.843  -0.142  1.00  0.00     0.005 C 
ENDBRANCH  10  11
ENDBRANCH   9  10
ENDBRANCH   8   9
ENDBRANCH   7   8
ENDBRANCH   6   7
ENDBRANCH   5   6
ENDBRANCH   4   5
ENDBRANCH   2   3
ENDBRANCH   1   2
BRANCH   1  13
HETATM   13  C   UNL     1     -23.011  -4.290  -8.967  1.00  0.00     0.000 C 
BRANCH  13  14
HETATM   14  C   UNL     1     -22.264  -4.648 -10.244  1.00  0.00     0.000 C 
BRANCH  14  15
HETATM   15  C   UNL     1     -21.606  -3.410 -10.850  1.00  0.00     0.000 C 
BRANCH  15  16
HETATM   16  C   UNL     1     -22.286  -3.040 -12.163  1.00  0.00     0.010 C 
BRANCH  16  17
HETATM   17  C   UNL     1     -22.829  -4.260 -12.902  1.00  0.00     0.111 C 
BRANCH  17  18
HETATM   18  C   UNL     1     -23.137  -3.903 -14.344  1.00  0.00     0.258 C 
HETATM   19  O   UNL     1     -22.595  -3.026 -14.988  1.00  0.00    -0.265 OA
BRANCH  18  20
HETATM   20  O   UNL     1     -24.207  -4.635 -14.778  1.00  0.00    -0.321 OA
BRANCH  20  21
HETATM   21  C   UNL     1     -24.054  -6.046 -14.580  1.00  0.00     0.178 C 
BRANCH  21  22
HETATM   22  C   UNL     1     -24.661  -6.852 -15.719  1.00  0.00     0.026 C 
BRANCH  22  23
HETATM   23  C   UNL     1     -26.176  -6.642 -15.808  1.00  0.00    -0.002 C 
HETATM   24  C   UNL     1     -26.593  -6.191 -17.198  1.00  0.00     0.005 C 
ENDBRANCH  22  23
ENDBRANCH  21  22
ENDBRANCH  20  21
ENDBRANCH  18  20
ENDBRANCH  17  18
ENDBRANCH  16  17
ENDBRANCH  15  16
ENDBRANCH  14  15
ENDBRANCH  13  14
ENDBRANCH   1  13
TORSDOF 19
BEGIN_RES ARG D 557
REMARK  4 active torsions:
REMARK  status: ('A' for Active; 'I' for Inactive)
REMARK    1  A    between atoms: CA   and  CB  
REMARK    2  A    between atoms: CB   and  CG  
REMARK    3  A    between atoms: CG   and  CD  
REMARK    4  A    between atoms: CD   and  NE  
REMARK       I    between atoms: NE   and  CZ  
REMARK       I    between atoms: CZ   and  NH1 
REMARK       I    between atoms: CZ   and  NH2 
ROOT
ATOM      1  CA  ARG D 557     -26.217   2.705 -17.014  1.00 35.49     0.159 C 
ENDROOT
BRANCH   1   2
ATOM      2  CB  ARG D 557     -26.789   1.319 -17.183  1.00 35.49     0.034 C 
BRANCH   2   3
ATOM      3  CG  ARG D 557     -28.241   1.179 -17.019  1.00 35.49     0.027 C 
BRANCH   3   4
ATOM      4  CD  ARG D 557     -28.651  -0.226 -16.797  1.00 35.49     0.116 C 
BRANCH   4   5
ATOM      5  NE  ARG D 557     -27.641  -0.983 -16.106  1.00 35.49    -0.212 N 
ATOM      6  CZ  ARG D 557     -27.491  -2.288 -16.153  1.00 35.49     0.666 C 
ATOM      7  NH1 ARG D 557     -28.292  -3.068 -16.855  1.00 35.49    -0.235 N 
ATOM      8  NH2 ARG D 557     -26.505  -2.804 -15.479  1.00 35.49    -0.235 N 
ATOM      9  HH  ARG D 557     -28.946  -2.750 -17.308  1.00 35.49     0.174 HD
ATOM     10  HH  ARG D 557     -28.145  -3.912 -16.850  1.00 35.49     0.174 HD
ATOM     11  HH  ARG D 557     -26.000  -2.275 -15.040  1.00 35.49     0.174 HD
ATOM     12  HH  ARG D 557     -26.375  -3.642 -15.488  1.00 35.49     0.174 HD
ATOM     13  HE  ARG D 557     -27.125  -0.567 -15.572  1.00 35.49     0.178 HD
ENDBRANCH   4   5
ENDBRANCH   3   4
ENDBRANCH   2   3
ENDBRANCH   1   2
END_RES ARG D 557
BEGIN_RES GLU D 570
REMARK  3 active torsions:
REMARK  status: ('A' for Active; 'I' for Inactive)
REMARK    5  A    between atoms: CA   and  CB  
REMARK    6  A    between atoms: CB   and  CG  
REMARK    7  A    between atoms: CG   and  CD  
ROOT
ATOM     14  CA  GLU D 570     -18.033  -6.348 -13.375  1.00 32.92     0.160 C 
ENDROOT
BRANCH  14  15
ATOM     15  CB  GLU D 570     -19.500  -6.345 -13.794  1.00 32.92     0.043 C 
BRANCH  15  16
ATOM     16  CG  GLU D 570     -19.873  -5.522 -14.973  1.00 32.92     0.100 C 
BRANCH  16  17
ATOM     17  CD  GLU D 570     -20.742  -6.266 -15.960  1.00 32.92     0.185 C 
ATOM     18  OE1 GLU D 570     -21.318  -5.627 -16.862  1.00 32.92    -0.647 OA
ATOM     19  OE2 GLU D 570     -20.861  -7.499 -15.820  1.00 32.92    -0.647 OA
ENDBRANCH  16  17
ENDBRANCH  15  16
ENDBRANCH  14  15
END_RES GLU D 570
ENDMDL
MODEL 4
REMARK VINA RESULT:      -6.8      1.508      2.664
REMARK  19 active torsions:
REMARK  status: ('A' for Active; 'I' for Inactive)
REMARK    1  A    between atoms: C_2  and  C_3 
REMARK    2  A    between atoms: C_3  and  C_4 
REMARK    3  A    between atoms: C_4  and  C_5 
REMARK    4  A    between atoms: C_5  and  C_6 
REMARK    5  A    between atoms: C_6  and  C_7 
REMARK    6  A    between atoms: C_7  and  C_8 
REMARK    7  A    between atoms: C_8  and  C_9 
REMARK    8  A    between atoms: C_10  and  C_11 
REMARK    9  A    between atoms: C_11  and  C_12 
REMARK   10  A    between atoms: C_12  and  C_13 
REMARK   11  A    between atoms: C_13  and  C_14 
REMARK   12  A    between atoms: C_14  and  C_15 
REMARK   13  A    between atoms: C_15  and  C_16 
REMARK   14  A    between atoms: C_16  and  C_17 
REMARK   15  A    between atoms: C_17  and  C_18 
REMARK   16  A    between atoms: C_18  and  O_20 
REMARK   17  A    between atoms: O_20  and  C_21 
REMARK   18  A    between atoms: C_21  and  C_22 
REMARK   19  A    between atoms: C_22  and  C_23 
ROOT
HETATM    1  C   UNL     1     -19.535  -4.700  -7.572  1.00  0.00     0.004 C 
ENDROOT
BRANCH   1   2
HETATM    2  C   UNL     1     -19.894  -4.695  -6.093  1.00  0.00     0.027 C 
BRANCH   2   3
HETATM    3  C   UNL     1     -20.477  -6.006  -5.691  1.00  0.00    -0.031 C 
HETATM    4  C   UNL     1     -21.486  -6.103  -4.814  1.00  0.00    -0.031 C 
BRANCH   4   5
HETATM    5  C   UNL     1     -22.071  -7.415  -4.411  1.00  0.00     0.027 C 
BRANCH   5   6
HETATM    6  C   UNL     1     -21.239  -8.054  -3.310  1.00  0.00     0.004 C 
BRANCH   6   7
HETATM    7  C   UNL     1     -21.026  -7.066  -2.172  1.00  0.00     0.000 C 
BRANCH   7   8
HETATM    8  C   UNL     1     -22.302  -6.920  -1.357  1.00  0.00     0.000 C 
BRANCH   8   9
HETATM    9  C   UNL     1     -22.111  -7.514   0.030  1.00  0.00     0.000 C 
BRANCH   9  10
HETATM   10  C   UNL     1     -23.268  -8.441   0.373  1.00  0.00    -0.000 C 
BRANCH  10  11
HETATM   11  C   UNL     1     -23.094  -9.791  -0.310  1.00  0.00    -0.005 C 
HETATM   12  C   UNL     1     -21.770 -10.419   0.086  1.00  0.00     0.005 C 
ENDBRANCH  10  11
ENDBRANCH   9  10
ENDBRANCH   8   9
ENDBRANCH   7   8
ENDBRANCH   6   7
ENDBRANCH   5   6
ENDBRANCH   4   5
ENDBRANCH   2   3
ENDBRANCH   1   2
BRANCH   1  13
HETATM   13  C   UNL     1     -20.585  -3.937  -8.372  1.00  0.00     0.000 C 
BRANCH  13  14
HETATM   14  C   UNL     1     -20.771  -4.566  -9.746  1.00  0.00     0.000 C 
BRANCH  14  15
HETATM   15  C   UNL     1     -20.147  -3.689 -10.830  1.00  0.00     0.000 C 
BRANCH  15  16
HETATM   16  C   UNL     1     -21.235  -2.976 -11.623  1.00  0.00     0.010 C 
BRANCH  16  17
HETATM   17  C   UNL     1     -21.931  -3.900 -12.619  1.00  0.00     0.111 C 
BRANCH  17  18
HETATM   18  C   UNL     1     -23.002  -3.140 -13.378  1.00  0.00     0.258 C 
HETATM   19  O   UNL     1     -23.080  -3.046 -14.588  1.00  0.00    -0.265 OA
BRANCH  18  20
HETATM   20  O   UNL     1     -23.801  -2.471 -12.495  1.00  0.00    -0.321 OA
BRANCH  20  21
HETATM   21  C   UNL     1     -24.679  -3.327 -11.754  1.00  0.00     0.178 C 
BRANCH  21  22
HETATM   22  C   UNL     1     -24.613  -3.056 -10.258  1.00  0.00     0.026 C 
BRANCH  22  23
HETATM   23  C   UNL     1     -24.356  -4.341  -9.466  1.00  0.00    -0.002 C 
HETATM   24  C   UNL     1     -23.954  -5.486 -10.380  1.00  0.00     0.005 C 
ENDBRANCH  22  23
ENDBRANCH  21  22
ENDBRANCH  20  21
ENDBRANCH  18  20
ENDBRANCH  17  18
ENDBRANCH  16  17
ENDBRANCH  15  16
ENDBRANCH  14  15
ENDBRANCH  13  14
ENDBRANCH   1  13
TORSDOF 19
BEGIN_RES ARG D 557
REMARK  4 active torsions:
REMARK  status: ('A' for Active; 'I' for Inactive)
REMARK    1  A    between atoms: CA   and  CB  
REMARK    2  A    between atoms: CB   and  CG  
REMARK    3  A    between atoms: CG   and  CD  
REMARK    4  A    between atoms: CD   and  NE  
REMARK       I    between atoms: NE   and  CZ  
REMARK       I    between atoms: CZ   and  NH1 
REMARK       I    between atoms: CZ   and  NH2 
ROOT
ATOM      1  CA  ARG D 557     -26.217   2.705 -17.014  1.00 35.49     0.159 C 
ENDROOT
BRANCH   1   2
ATOM      2  CB  ARG D 557     -26.789   1.319 -17.183  1.00 35.49     0.034 C 
BRANCH   2   3
ATOM      3  CG  ARG D 557     -28.197   1.135 -16.810  1.00 35.49     0.027 C 
BRANCH   3   4
ATOM      4  CD  ARG D 557     -28.520  -0.277 -16.506  1.00 35.49     0.116 C 
BRANCH   4   5
ATOM      5  NE  ARG D 557     -27.462  -0.933 -15.784  1.00 35.49    -0.212 N 
ATOM      6  CZ  ARG D 557     -27.163  -2.211 -15.851  1.00 35.49     0.666 C 
ATOM      7  NH1 ARG D 557     -27.838  -3.058 -16.605  1.00 35.49    -0.235 N 
ATOM      8  NH2 ARG D 557     -26.155  -2.630 -15.142  1.00 35.49    -0.235 N 
ATOM      9  HH  ARG D 557     -28.504  -2.804 -17.082  1.00 35.49     0.174 HD
ATOM     10  HH  ARG D 557     -27.596  -3.880 -16.611  1.00 35.49     0.174 HD
ATOM     11  HH  ARG D 557     -25.733  -2.058 -14.670  1.00 35.49     0.174 HD
ATOM     12  HH  ARG D 557     -25.930  -3.447 -15.163  1.00 35.49     0.174 HD
ATOM     13  HE  ARG D 557     -27.021  -0.475 -15.218  1.00 35.49     0.178 HD
ENDBRANCH   4   5
ENDBRANCH   3   4
ENDBRANCH   2   3
ENDBRANCH   1   2
END_RES ARG D 557
BEGIN_RES GLU D 570
REMARK  3 active torsions:
REMARK  status: ('A' for Active; 'I' for Inactive)
REMARK    5  A    between atoms: CA   and  CB  
REMARK    6  A    between atoms: CB   and  CG  
REMARK    7  A    between atoms: CG   and  CD  
ROOT
ATOM     14  CA  GLU D 570     -18.033  -6.348 -13.375  1.00 32.92     0.160 C 
ENDROOT
BRANCH  14  15
ATOM     15  CB  GLU D 570     -19.500  -6.345 -13.794  1.00 32.92     0.043 C 
BRANCH  15  16
ATOM     16  CG  GLU D 570     -19.798  -6.459 -15.245  1.00 32.92     0.100 C 
BRANCH  16  17
ATOM     17  CD  GLU D 570     -21.196  -6.007 -15.597  1.00 32.92     0.185 C 
ATOM     18  OE1 GLU D 570     -21.343  -5.045 -16.376  1.00 32.92    -0.647 OA
ATOM     19  OE2 GLU D 570     -22.154  -6.610 -15.076  1.00 32.92    -0.647 OA
ENDBRANCH  16  17
ENDBRANCH  15  16
ENDBRANCH  14  15
END_RES GLU D 570
ENDMDL
MODEL 5
REMARK VINA RESULT:      -6.7      4.110      9.316
REMARK  19 active torsions:
REMARK  status: ('A' for Active; 'I' for Inactive)
REMARK    1  A    between atoms: C_2  and  C_3 
REMARK    2  A    between atoms: C_3  and  C_4 
REMARK    3  A    between atoms: C_4  and  C_5 
REMARK    4  A    between atoms: C_5  and  C_6 
REMARK    5  A    between atoms: C_6  and  C_7 
REMARK    6  A    between atoms: C_7  and  C_8 
REMARK    7  A    between atoms: C_8  and  C_9 
REMARK    8  A    between atoms: C_10  and  C_11 
REMARK    9  A    between atoms: C_11  and  C_12 
REMARK   10  A    between atoms: C_12  and  C_13 
REMARK   11  A    between atoms: C_13  and  C_14 
REMARK   12  A    between atoms: C_14  and  C_15 
REMARK   13  A    between atoms: C_15  and  C_16 
REMARK   14  A    between atoms: C_16  and  C_17 
REMARK   15  A    between atoms: C_17  and  C_18 
REMARK   16  A    between atoms: C_18  and  O_20 
REMARK   17  A    between atoms: O_20  and  C_21 
REMARK   18  A    between atoms: C_21  and  C_22 
REMARK   19  A    between atoms: C_22  and  C_23 
ROOT
HETATM    1  C   UNL     1     -21.791  -7.671  -0.922  1.00  0.00     0.004 C 
ENDROOT
BRANCH   1   2
HETATM    2  C   UNL     1     -22.247  -6.365  -1.556  1.00  0.00     0.027 C 
BRANCH   2   3
HETATM    3  C   UNL     1     -21.920  -6.346  -3.010  1.00  0.00    -0.031 C 
HETATM    4  C   UNL     1     -20.983  -7.143  -3.545  1.00  0.00    -0.031 C 
BRANCH   4   5
HETATM    5  C   UNL     1     -20.656  -7.126  -5.000  1.00  0.00     0.027 C 
BRANCH   5   6
HETATM    6  C   UNL     1     -21.159  -5.843  -5.644  1.00  0.00     0.004 C 
BRANCH   6   7
HETATM    7  C   UNL     1     -20.034  -4.820  -5.723  1.00  0.00     0.000 C 
BRANCH   7   8
HETATM    8  C   UNL     1     -19.434  -4.805  -7.119  1.00  0.00     0.000 C 
BRANCH   8   9
HETATM    9  C   UNL     1     -20.480  -5.210  -8.146  1.00  0.00     0.000 C 
BRANCH   9  10
HETATM   10  C   UNL     1     -20.421  -4.286  -9.355  1.00  0.00    -0.000 C 
BRANCH  10  11
HETATM   11  C   UNL     1     -21.823  -3.973  -9.860  1.00  0.00    -0.005 C 
HETATM   12  C   UNL     1     -22.817  -3.994  -8.714  1.00  0.00     0.005 C 
ENDBRANCH  10  11
ENDBRANCH   9  10
ENDBRANCH   8   9
ENDBRANCH   7   8
ENDBRANCH   6   7
ENDBRANCH   5   6
ENDBRANCH   4   5
ENDBRANCH   2   3
ENDBRANCH   1   2
BRANCH   1  13
HETATM   13  C   UNL     1     -22.579  -7.941   0.354  1.00  0.00     0.000 C 
BRANCH  13  14
HETATM   14  C   UNL     1     -23.410  -9.208   0.211  1.00  0.00     0.000 C 
BRANCH  14  15
HETATM   15  C   UNL     1     -22.714 -10.210  -0.707  1.00  0.00     0.000 C 
BRANCH  15  16
HETATM   16  C   UNL     1     -22.029 -11.294   0.118  1.00  0.00     0.010 C 
BRANCH  16  17
HETATM   17  C   UNL     1     -20.559 -10.981   0.385  1.00  0.00     0.111 C 
BRANCH  17  18
HETATM   18  C   UNL     1     -19.715 -11.374  -0.813  1.00  0.00     0.258 C 
HETATM   19  O   UNL     1     -19.263 -12.483  -1.027  1.00  0.00    -0.265 OA
BRANCH  18  20
HETATM   20  O   UNL     1     -19.433 -10.265  -1.559  1.00  0.00    -0.321 OA
BRANCH  20  21
HETATM   21  C   UNL     1     -18.577 -10.529  -2.677  1.00  0.00     0.178 C 
BRANCH  21  22
HETATM   22  C   UNL     1     -17.641  -9.365  -2.967  1.00  0.00     0.026 C 
BRANCH  22  23
HETATM   23  C   UNL     1     -16.174  -9.804  -2.936  1.00  0.00    -0.002 C 
HETATM   24  C   UNL     1     -15.945 -10.905  -1.915  1.00  0.00     0.005 C 
ENDBRANCH  22  23
ENDBRANCH  21  22
ENDBRANCH  20  21
ENDBRANCH  18  20
ENDBRANCH  17  18
ENDBRANCH  16  17
ENDBRANCH  15  16
ENDBRANCH  14  15
ENDBRANCH  13  14
ENDBRANCH   1  13
TORSDOF 19
BEGIN_RES ARG D 557
REMARK  4 active torsions:
REMARK  status: ('A' for Active; 'I' for Inactive)
REMARK    1  A    between atoms: CA   and  CB  
REMARK    2  A    between atoms: CB   and  CG  
REMARK    3  A    between atoms: CG   and  CD  
REMARK    4  A    between atoms: CD   and  NE  
REMARK       I    between atoms: NE   and  CZ  
REMARK       I    between atoms: CZ   and  NH1 
REMARK       I    between atoms: CZ   and  NH2 
ROOT
ATOM      1  CA  ARG D 557     -26.217   2.705 -17.014  1.00 35.49     0.159 C 
ENDROOT
BRANCH   1   2
ATOM      2  CB  ARG D 557     -26.789   1.319 -17.183  1.00 35.49     0.034 C 
BRANCH   2   3
ATOM      3  CG  ARG D 557     -25.872   0.194 -16.960  1.00 35.49     0.027 C 
BRANCH   3   4
ATOM      4  CD  ARG D 557     -26.374  -0.748 -15.933  1.00 35.49     0.116 C 
BRANCH   4   5
ATOM      5  NE  ARG D 557     -25.416  -0.965 -14.882  1.00 35.49    -0.212 N 
ATOM      6  CZ  ARG D 557     -25.148  -2.119 -14.314  1.00 35.49     0.666 C 
ATOM      7  NH1 ARG D 557     -25.763  -3.237 -14.653  1.00 35.49    -0.235 N 
ATOM      8  NH2 ARG D 557     -24.232  -2.134 -13.389  1.00 35.49    -0.235 N 
ATOM      9  HH  ARG D 557     -26.367  -3.250 -15.261  1.00 35.49     0.174 HD
ATOM     10  HH  ARG D 557     -25.544  -3.960 -14.250  1.00 35.49     0.174 HD
ATOM     11  HH  ARG D 557     -23.846  -1.399 -13.195  1.00 35.49     0.174 HD
ATOM     12  HH  ARG D 557     -24.028  -2.861 -13.002  1.00 35.49     0.174 HD
ATOM     13  HE  ARG D 557     -25.025  -0.286 -14.551  1.00 35.49     0.178 HD
ENDBRANCH   4   5
ENDBRANCH   3   4
ENDBRANCH   2   3
ENDBRANCH   1   2
END_RES ARG D 557
BEGIN_RES GLU D 570
REMARK  3 active torsions:
REMARK  status: ('A' for Active; 'I' for Inactive)
REMARK    5  A    between atoms: CA   and  CB  
REMARK    6  A    between atoms: CB   and  CG  
REMARK    7  A    between atoms: CG   and  CD  
ROOT
ATOM     14  CA  GLU D 570     -18.033  -6.348 -13.375  1.00 32.92     0.160 C 
ENDROOT
BRANCH  14  15
ATOM     15  CB  GLU D 570     -19.500  -6.345 -13.794  1.00 32.92     0.043 C 
BRANCH  15  16
ATOM     16  CG  GLU D 570     -20.447  -5.555 -12.966  1.00 32.92     0.100 C 
BRANCH  16  17
ATOM     17  CD  GLU D 570     -21.745  -5.256 -13.678  1.00 32.92     0.185 C 
ATOM     18  OE1 GLU D 570     -22.283  -4.143 -13.515  1.00 32.92    -0.647 OA
ATOM     19  OE2 GLU D 570     -22.239  -6.150 -14.393  1.00 32.92    -0.647 OA
ENDBRANCH  16  17
ENDBRANCH  15  16
ENDBRANCH  14  15
END_RES GLU D 570
ENDMDL
MODEL 6
REMARK VINA RESULT:      -6.6      2.337      3.884
REMARK  19 active torsions:
REMARK  status: ('A' for Active; 'I' for Inactive)
REMARK    1  A    between atoms: C_2  and  C_3 
REMARK    2  A    between atoms: C_3  and  C_4 
REMARK    3  A    between atoms: C_4  and  C_5 
REMARK    4  A    between atoms: C_5  and  C_6 
REMARK    5  A    between atoms: C_6  and  C_7 
REMARK    6  A    between atoms: C_7  and  C_8 
REMARK    7  A    between atoms: C_8  and  C_9 
REMARK    8  A    between atoms: C_10  and  C_11 
REMARK    9  A    between atoms: C_11  and  C_12 
REMARK   10  A    between atoms: C_12  and  C_13 
REMARK   11  A    between atoms: C_13  and  C_14 
REMARK   12  A    between atoms: C_14  and  C_15 
REMARK   13  A    between atoms: C_15  and  C_16 
REMARK   14  A    between atoms: C_16  and  C_17 
REMARK   15  A    between atoms: C_17  and  C_18 
REMARK   16  A    between atoms: C_18  and  O_20 
REMARK   17  A    between atoms: O_20  and  C_21 
REMARK   18  A    between atoms: C_21  and  C_22 
REMARK   19  A    between atoms: C_22  and  C_23 
ROOT
HETATM    1  C   UNL     1     -20.433  -4.685  -9.208  1.00  0.00     0.004 C 
ENDROOT
BRANCH   1   2
HETATM    2  C   UNL     1     -20.133  -3.899  -7.939  1.00  0.00     0.027 C 
BRANCH   2   3
HETATM    3  C   UNL     1     -20.916  -4.439  -6.792  1.00  0.00    -0.031 C 
HETATM    4  C   UNL     1     -20.407  -5.340  -5.938  1.00  0.00    -0.031 C 
BRANCH   4   5
HETATM    5  C   UNL     1     -21.189  -5.881  -4.788  1.00  0.00     0.027 C 
BRANCH   5   6
HETATM    6  C   UNL     1     -20.683  -7.262  -4.402  1.00  0.00     0.004 C 
BRANCH   6   7
HETATM    7  C   UNL     1     -21.483  -7.804  -3.225  1.00  0.00     0.000 C 
BRANCH   7   8
HETATM    8  C   UNL     1     -21.874  -6.671  -2.289  1.00  0.00     0.000 C 
BRANCH   8   9
HETATM    9  C   UNL     1     -21.985  -7.182  -0.861  1.00  0.00     0.000 C 
BRANCH   9  10
HETATM   10  C   UNL     1     -22.102  -8.700  -0.850  1.00  0.00    -0.000 C 
BRANCH  10  11
HETATM   11  C   UNL     1     -23.309  -9.139  -0.033  1.00  0.00    -0.005 C 
HETATM   12  C   UNL     1     -23.483 -10.644  -0.111  1.00  0.00     0.005 C 
ENDBRANCH  10  11
ENDBRANCH   9  10
ENDBRANCH   8   9
ENDBRANCH   7   8
ENDBRANCH   6   7
ENDBRANCH   5   6
ENDBRANCH   4   5
ENDBRANCH   2   3
ENDBRANCH   1   2
BRANCH   1  13
HETATM   13  C   UNL     1     -21.810  -4.314  -9.745  1.00  0.00     0.000 C 
BRANCH  13  14
HETATM   14  C   UNL     1     -21.704  -3.788 -11.170  1.00  0.00     0.000 C 
BRANCH  14  15
HETATM   15  C   UNL     1     -23.078  -3.749 -11.834  1.00  0.00     0.000 C 
BRANCH  15  16
HETATM   16  C   UNL     1     -23.468  -5.138 -12.324  1.00  0.00     0.010 C 
BRANCH  16  17
HETATM   17  C   UNL     1     -23.089  -5.368 -13.785  1.00  0.00     0.111 C 
BRANCH  17  18
HETATM   18  C   UNL     1     -24.311  -5.785 -14.582  1.00  0.00     0.258 C 
HETATM   19  O   UNL     1     -24.597  -6.924 -14.895  1.00  0.00    -0.265 OA
BRANCH  18  20
HETATM   20  O   UNL     1     -24.983  -4.673 -15.005  1.00  0.00    -0.321 OA
BRANCH  20  21
HETATM   21  C   UNL     1     -26.241  -4.964 -15.626  1.00  0.00     0.178 C 
BRANCH  21  22
HETATM   22  C   UNL     1     -27.099  -3.719 -15.790  1.00  0.00     0.026 C 
BRANCH  22  23
HETATM   23  C   UNL     1     -28.210  -3.937 -16.822  1.00  0.00    -0.002 C 
HETATM   24  C   UNL     1     -29.157  -5.045 -16.394  1.00  0.00     0.005 C 
ENDBRANCH  22  23
ENDBRANCH  21  22
ENDBRANCH  20  21
ENDBRANCH  18  20
ENDBRANCH  17  18
ENDBRANCH  16  17
ENDBRANCH  15  16
ENDBRANCH  14  15
ENDBRANCH  13  14
ENDBRANCH   1  13
TORSDOF 19
BEGIN_RES ARG D 557
REMARK  4 active torsions:
REMARK  status: ('A' for Active; 'I' for Inactive)
REMARK    1  A    between atoms: CA   and  CB  
REMARK    2  A    between atoms: CB   and  CG  
REMARK    3  A    between atoms: CG   and  CD  
REMARK    4  A    between atoms: CD   and  NE  
REMARK       I    between atoms: NE   and  CZ  
REMARK       I    between atoms: CZ   and  NH1 
REMARK       I    between atoms: CZ   and  NH2 
ROOT
ATOM      1  CA  ARG D 557     -26.217   2.705 -17.014  1.00 35.49     0.159 C 
ENDROOT
BRANCH   1   2
ATOM      2  CB  ARG D 557     -26.789   1.319 -17.183  1.00 35.49     0.034 C 
BRANCH   2   3
ATOM      3  CG  ARG D 557     -25.940   0.198 -16.762  1.00 35.49     0.027 C 
BRANCH   3   4
ATOM      4  CD  ARG D 557     -24.813   0.634 -15.906  1.00 35.49     0.116 C 
BRANCH   4   5
ATOM      5  NE  ARG D 557     -23.795  -0.377 -15.794  1.00 35.49    -0.212 N 
ATOM      6  CZ  ARG D 557     -23.815  -1.399 -14.968  1.00 35.49     0.666 C 
ATOM      7  NH1 ARG D 557     -24.803  -1.603 -14.116  1.00 35.49    -0.235 N 
ATOM      8  NH2 ARG D 557     -22.815  -2.231 -15.018  1.00 35.49    -0.235 N 
ATOM      9  HH  ARG D 557     -25.472  -1.070 -14.068  1.00 35.49     0.174 HD
ATOM     10  HH  ARG D 557     -24.763  -2.289 -13.604  1.00 35.49     0.174 HD
ATOM     11  HH  ARG D 557     -22.195  -2.078 -15.583  1.00 35.49     0.174 HD
ATOM     12  HH  ARG D 557     -22.795  -2.905 -14.503  1.00 35.49     0.174 HD
ATOM     13  HE  ARG D 557     -23.086  -0.283 -16.255  1.00 35.49     0.178 HD
ENDBRANCH   4   5
ENDBRANCH   3   4
ENDBRANCH   2   3
ENDBRANCH   1   2
END_RES ARG D 557
BEGIN_RES GLU D 570
REMARK  3 active torsions:
REMARK  status: ('A' for Active; 'I' for Inactive)
REMARK    5  A    between atoms: CA   and  CB  
REMARK    6  A    between atoms: CB   and  CG  
REMARK    7  A    between atoms: CG   and  CD  
ROOT
ATOM     14  CA  GLU D 570     -18.033  -6.348 -13.375  1.00 32.92     0.160 C 
ENDROOT
BRANCH  14  15
ATOM     15  CB  GLU D 570     -19.500  -6.345 -13.794  1.00 32.92     0.043 C 
BRANCH  15  16
ATOM     16  CG  GLU D 570     -20.105  -7.647 -14.176  1.00 32.92     0.100 C 
BRANCH  16  17
ATOM     17  CD  GLU D 570     -20.584  -7.676 -15.609  1.00 32.92     0.185 C 
ATOM     18  OE1 GLU D 570     -20.888  -6.605 -16.167  1.00 32.92    -0.647 OA
ATOM     19  OE2 GLU D 570     -20.672  -8.785 -16.173  1.00 32.92    -0.647 OA
ENDBRANCH  16  17
ENDBRANCH  15  16
ENDBRANCH  14  15
END_RES GLU D 570
ENDMDL
MODEL 7
REMARK VINA RESULT:      -6.6      3.719      8.986
REMARK  19 active torsions:
REMARK  status: ('A' for Active; 'I' for Inactive)
REMARK    1  A    between atoms: C_2  and  C_3 
REMARK    2  A    between atoms: C_3  and  C_4 
REMARK    3  A    between atoms: C_4  and  C_5 
REMARK    4  A    between atoms: C_5  and  C_6 
REMARK    5  A    between atoms: C_6  and  C_7 
REMARK    6  A    between atoms: C_7  and  C_8 
REMARK    7  A    between atoms: C_8  and  C_9 
REMARK    8  A    between atoms: C_10  and  C_11 
REMARK    9  A    between atoms: C_11  and  C_12 
REMARK   10  A    between atoms: C_12  and  C_13 
REMARK   11  A    between atoms: C_13  and  C_14 
REMARK   12  A    between atoms: C_14  and  C_15 
REMARK   13  A    between atoms: C_15  and  C_16 
REMARK   14  A    between atoms: C_16  and  C_17 
REMARK   15  A    between atoms: C_17  and  C_18 
REMARK   16  A    between atoms: C_18  and  O_20 
REMARK   17  A    between atoms: O_20  and  C_21 
REMARK   18  A    between atoms: C_21  and  C_22 
REMARK   19  A    between atoms: C_22  and  C_23 
ROOT
HETATM    1  C   UNL     1     -22.479  -6.946  -0.905  1.00  0.00     0.004 C 
ENDROOT
BRANCH   1   2
HETATM    2  C   UNL     1     -21.967  -5.983  -1.967  1.00  0.00     0.027 C 
BRANCH   2   3
HETATM    3  C   UNL     1     -21.376  -6.732  -3.111  1.00  0.00    -0.031 C 
HETATM    4  C   UNL     1     -21.301  -6.213  -4.346  1.00  0.00    -0.031 C 
BRANCH   4   5
HETATM    5  C   UNL     1     -20.709  -6.962  -5.492  1.00  0.00     0.027 C 
BRANCH   5   6
HETATM    6  C   UNL     1     -20.285  -6.002  -6.594  1.00  0.00     0.004 C 
BRANCH   6   7
HETATM    7  C   UNL     1     -20.440  -4.562  -6.123  1.00  0.00     0.000 C 
BRANCH   7   8
HETATM    8  C   UNL     1     -21.139  -3.733  -7.189  1.00  0.00     0.000 C 
BRANCH   8   9
HETATM    9  C   UNL     1     -20.838  -4.292  -8.572  1.00  0.00     0.000 C 
BRANCH   9  10
HETATM   10  C   UNL     1     -21.944  -3.915  -9.546  1.00  0.00    -0.000 C 
BRANCH  10  11
HETATM   11  C   UNL     1     -23.296  -3.898  -8.845  1.00  0.00    -0.005 C 
HETATM   12  C   UNL     1     -24.389  -3.477  -9.809  1.00  0.00     0.005 C 
ENDBRANCH  10  11
ENDBRANCH   9  10
ENDBRANCH   8   9
ENDBRANCH   7   8
ENDBRANCH   6   7
ENDBRANCH   5   6
ENDBRANCH   4   5
ENDBRANCH   2   3
ENDBRANCH   1   2
BRANCH   1  13
HETATM   13  C   UNL     1     -21.418  -7.993  -0.587  1.00  0.00     0.000 C 
BRANCH  13  14
HETATM   14  C   UNL     1     -21.608  -8.536   0.822  1.00  0.00     0.000 C 
BRANCH  14  15
HETATM   15  C   UNL     1     -20.855  -9.853   1.000  1.00  0.00     0.000 C 
BRANCH  15  16
HETATM   16  C   UNL     1     -20.569 -10.485  -0.357  1.00  0.00     0.010 C 
BRANCH  16  17
HETATM   17  C   UNL     1     -20.917 -11.971  -0.392  1.00  0.00     0.111 C 
BRANCH  17  18
HETATM   18  C   UNL     1     -22.265 -12.176  -1.057  1.00  0.00     0.258 C 
HETATM   19  O   UNL     1     -22.893 -13.217  -1.078  1.00  0.00    -0.265 OA
BRANCH  18  20
HETATM   20  O   UNL     1     -22.617 -11.045  -1.738  1.00  0.00    -0.321 OA
BRANCH  20  21
HETATM   21  C   UNL     1     -22.699 -11.231  -3.156  1.00  0.00     0.178 C 
BRANCH  21  22
HETATM   22  C   UNL     1     -21.871 -10.206  -3.916  1.00  0.00     0.026 C 
BRANCH  22  23
HETATM   23  C   UNL     1     -20.477 -10.746  -4.249  1.00  0.00    -0.002 C 
HETATM   24  C   UNL     1     -19.386  -9.862  -3.670  1.00  0.00     0.005 C 
ENDBRANCH  22  23
ENDBRANCH  21  22
ENDBRANCH  20  21
ENDBRANCH  18  20
ENDBRANCH  17  18
ENDBRANCH  16  17
ENDBRANCH  15  16
ENDBRANCH  14  15
ENDBRANCH  13  14
ENDBRANCH   1  13
TORSDOF 19
BEGIN_RES ARG D 557
REMARK  4 active torsions:
REMARK  status: ('A' for Active; 'I' for Inactive)
REMARK    1  A    between atoms: CA   and  CB  
REMARK    2  A    between atoms: CB   and  CG  
REMARK    3  A    between atoms: CG   and  CD  
REMARK    4  A    between atoms: CD   and  NE  
REMARK       I    between atoms: NE   and  CZ  
REMARK       I    between atoms: CZ   and  NH1 
REMARK       I    between atoms: CZ   and  NH2 
ROOT
ATOM      1  CA  ARG D 557     -26.217   2.705 -17.014  1.00 35.49     0.159 C 
ENDROOT
BRANCH   1   2
ATOM      2  CB  ARG D 557     -26.789   1.319 -17.183  1.00 35.49     0.034 C 
BRANCH   2   3
ATOM      3  CG  ARG D 557     -25.863   0.195 -16.999  1.00 35.49     0.027 C 
BRANCH   3   4
ATOM      4  CD  ARG D 557     -26.281  -0.708 -15.903  1.00 35.49     0.116 C 
BRANCH   4   5
ATOM      5  NE  ARG D 557     -25.233  -0.911 -14.938  1.00 35.49    -0.212 N 
ATOM      6  CZ  ARG D 557     -24.941  -2.050 -14.350  1.00 35.49     0.666 C 
ATOM      7  NH1 ARG D 557     -25.614  -3.161 -14.583  1.00 35.49    -0.235 N 
ATOM      8  NH2 ARG D 557     -23.942  -2.055 -13.516  1.00 35.49    -0.235 N 
ATOM      9  HH  ARG D 557     -26.273  -3.181 -15.129  1.00 35.49     0.174 HD
ATOM     10  HH  ARG D 557     -25.376  -3.875 -14.172  1.00 35.49     0.174 HD
ATOM     11  HH  ARG D 557     -23.521  -1.324 -13.391  1.00 35.49     0.174 HD
ATOM     12  HH  ARG D 557     -23.721  -2.772 -13.120  1.00 35.49     0.174 HD
ATOM     13  HE  ARG D 557     -24.795  -0.231 -14.675  1.00 35.49     0.178 HD
ENDBRANCH   4   5
ENDBRANCH   3   4
ENDBRANCH   2   3
ENDBRANCH   1   2
END_RES ARG D 557
BEGIN_RES GLU D 570
REMARK  3 active torsions:
REMARK  status: ('A' for Active; 'I' for Inactive)
REMARK    5  A    between atoms: CA   and  CB  
REMARK    6  A    between atoms: CB   and  CG  
REMARK    7  A    between atoms: CG   and  CD  
ROOT
ATOM     14  CA  GLU D 570     -18.033  -6.348 -13.375  1.00 32.92     0.160 C 
ENDROOT
BRANCH  14  15
ATOM     15  CB  GLU D 570     -19.500  -6.345 -13.794  1.00 32.92     0.043 C 
BRANCH  15  16
ATOM     16  CG  GLU D 570     -20.459  -5.617 -12.923  1.00 32.92     0.100 C 
BRANCH  16  17
ATOM     17  CD  GLU D 570     -21.724  -5.216 -13.646  1.00 32.92     0.185 C 
ATOM     18  OE1 GLU D 570     -21.785  -5.356 -14.883  1.00 32.92    -0.647 OA
ATOM     19  OE2 GLU D 570     -22.657  -4.740 -12.971  1.00 32.92    -0.647 OA
ENDBRANCH  16  17
ENDBRANCH  15  16
ENDBRANCH  14  15
END_RES GLU D 570
ENDMDL
MODEL 8
REMARK VINA RESULT:      -6.6      4.664      8.260
REMARK  19 active torsions:
REMARK  status: ('A' for Active; 'I' for Inactive)
REMARK    1  A    between atoms: C_2  and  C_3 
REMARK    2  A    between atoms: C_3  and  C_4 
REMARK    3  A    between atoms: C_4  and  C_5 
REMARK    4  A    between atoms: C_5  and  C_6 
REMARK    5  A    between atoms: C_6  and  C_7 
REMARK    6  A    between atoms: C_7  and  C_8 
REMARK    7  A    between atoms: C_8  and  C_9 
REMARK    8  A    between atoms: C_10  and  C_11 
REMARK    9  A    between atoms: C_11  and  C_12 
REMARK   10  A    between atoms: C_12  and  C_13 
REMARK   11  A    between atoms: C_13  and  C_14 
REMARK   12  A    between atoms: C_14  and  C_15 
REMARK   13  A    between atoms: C_15  and  C_16 
REMARK   14  A    between atoms: C_16  and  C_17 
REMARK   15  A    between atoms: C_17  and  C_18 
REMARK   16  A    between atoms: C_18  and  O_20 
REMARK   17  A    between atoms: O_20  and  C_21 
REMARK   18  A    between atoms: C_21  and  C_22 
REMARK   19  A    between atoms: C_22  and  C_23 
ROOT
HETATM    1  C   UNL     1     -23.663  -6.116 -15.511  1.00  0.00     0.004 C 
ENDROOT
BRANCH   1   2
HETATM    2  C   UNL     1     -23.641  -6.280 -13.998  1.00  0.00     0.027 C 
BRANCH   2   3
HETATM    3  C   UNL     1     -23.137  -5.040 -13.344  1.00  0.00    -0.031 C 
HETATM    4  C   UNL     1     -23.961  -4.115 -12.830  1.00  0.00    -0.031 C 
BRANCH   4   5
HETATM    5  C   UNL     1     -23.457  -2.873 -12.174  1.00  0.00     0.027 C 
BRANCH   5   6
HETATM    6  C   UNL     1     -21.952  -2.953 -11.966  1.00  0.00     0.004 C 
BRANCH   6   7
HETATM    7  C   UNL     1     -21.642  -3.475 -10.570  1.00  0.00     0.000 C 
BRANCH   7   8
HETATM    8  C   UNL     1     -20.414  -4.370 -10.604  1.00  0.00     0.000 C 
BRANCH   8   9
HETATM    9  C   UNL     1     -20.061  -4.833  -9.199  1.00  0.00     0.000 C 
BRANCH   9  10
HETATM   10  C   UNL     1     -20.832  -4.024  -8.166  1.00  0.00    -0.000 C 
BRANCH  10  11
HETATM   11  C   UNL     1     -21.218  -4.898  -6.980  1.00  0.00    -0.005 C 
HETATM   12  C   UNL     1     -20.259  -4.677  -5.825  1.00  0.00     0.005 C 
ENDBRANCH  10  11
ENDBRANCH   9  10
ENDBRANCH   8   9
ENDBRANCH   7   8
ENDBRANCH   6   7
ENDBRANCH   5   6
ENDBRANCH   4   5
ENDBRANCH   2   3
ENDBRANCH   1   2
BRANCH   1  13
HETATM   13  C   UNL     1     -24.818  -6.910 -16.111  1.00  0.00     0.000 C 
BRANCH  13  14
HETATM   14  C   UNL     1     -26.133  -6.171 -15.915  1.00  0.00     0.000 C 
BRANCH  14  15
HETATM   15  C   UNL     1     -27.257  -7.147 -15.576  1.00  0.00     0.000 C 
BRANCH  15  16
HETATM   16  C   UNL     1     -28.614  -6.485 -15.785  1.00  0.00     0.010 C 
BRANCH  16  17
HETATM   17  C   UNL     1     -29.193  -6.769 -17.169  1.00  0.00     0.111 C 
BRANCH  17  18
HETATM   18  C   UNL     1     -29.383  -5.473 -17.932  1.00  0.00     0.258 C 
HETATM   19  O   UNL     1     -30.359  -4.749 -17.868  1.00  0.00    -0.265 OA
BRANCH  18  20
HETATM   20  O   UNL     1     -28.344  -5.296 -18.801  1.00  0.00    -0.321 OA
BRANCH  20  21
HETATM   21  C   UNL     1     -27.731  -6.522 -19.218  1.00  0.00     0.178 C 
BRANCH  21  22
HETATM   22  C   UNL     1     -26.665  -6.296 -20.281  1.00  0.00     0.026 C 
BRANCH  22  23
HETATM   23  C   UNL     1     -25.335  -6.945 -19.887  1.00  0.00    -0.002 C 
HETATM   24  C   UNL     1     -24.818  -7.860 -20.984  1.00  0.00     0.005 C 
ENDBRANCH  22  23
ENDBRANCH  21  22
ENDBRANCH  20  21
ENDBRANCH  18  20
ENDBRANCH  17  18
ENDBRANCH  16  17
ENDBRANCH  15  16
ENDBRANCH  14  15
ENDBRANCH  13  14
ENDBRANCH   1  13
TORSDOF 19
BEGIN_RES ARG D 557
REMARK  4 active torsions:
REMARK  status: ('A' for Active; 'I' for Inactive)
REMARK    1  A    between atoms: CA   and  CB  
REMARK    2  A    between atoms: CB   and  CG  
REMARK    3  A    between atoms: CG   and  CD  
REMARK    4  A    between atoms: CD   and  NE  
REMARK       I    between atoms: NE   and  CZ  
REMARK       I    between atoms: CZ   and  NH1 
REMARK       I    between atoms: CZ   and  NH2 
ROOT
ATOM      1  CA  ARG D 557     -26.217   2.705 -17.014  1.00 35.49     0.159 C 
ENDROOT
BRANCH   1   2
ATOM      2  CB  ARG D 557     -26.789   1.319 -17.183  1.00 35.49     0.034 C 
BRANCH   2   3
ATOM      3  CG  ARG D 557     -28.228   1.164 -16.939  1.00 35.49     0.027 C 
BRANCH   3   4
ATOM      4  CD  ARG D 557     -28.589  -0.218 -16.549  1.00 35.49     0.116 C 
BRANCH   4   5
ATOM      5  NE  ARG D 557     -27.528  -0.873 -15.830  1.00 35.49    -0.212 N 
ATOM      6  CZ  ARG D 557     -27.221  -2.149 -15.907  1.00 35.49     0.666 C 
ATOM      7  NH1 ARG D 557     -27.890  -2.994 -16.669  1.00 35.49    -0.235 N 
ATOM      8  NH2 ARG D 557     -26.212  -2.567 -15.200  1.00 35.49    -0.235 N 
ATOM      9  HH  ARG D 557     -28.556  -2.740 -17.145  1.00 35.49     0.174 HD
ATOM     10  HH  ARG D 557     -27.643  -3.814 -16.681  1.00 35.49     0.174 HD
ATOM     11  HH  ARG D 557     -25.794  -1.997 -14.722  1.00 35.49     0.174 HD
ATOM     12  HH  ARG D 557     -25.982  -3.383 -15.226  1.00 35.49     0.174 HD
ATOM     13  HE  ARG D 557     -27.091  -0.417 -15.260  1.00 35.49     0.178 HD
ENDBRANCH   4   5
ENDBRANCH   3   4
ENDBRANCH   2   3
ENDBRANCH   1   2
END_RES ARG D 557
BEGIN_RES GLU D 570
REMARK  3 active torsions:
REMARK  status: ('A' for Active; 'I' for Inactive)
REMARK    5  A    between atoms: CA   and  CB  
REMARK    6  A    between atoms: CB   and  CG  
REMARK    7  A    between atoms: CG   and  CD  
ROOT
ATOM     14  CA  GLU D 570     -18.033  -6.348 -13.375  1.00 32.92     0.160 C 
ENDROOT
BRANCH  14  15
ATOM     15  CB  GLU D 570     -19.500  -6.345 -13.794  1.00 32.92     0.043 C 
BRANCH  15  16
ATOM     16  CG  GLU D 570     -20.079  -7.629 -14.267  1.00 32.92     0.100 C 
BRANCH  16  17
ATOM     17  CD  GLU D 570     -20.455  -7.601 -15.731  1.00 32.92     0.185 C 
ATOM     18  OE1 GLU D 570     -20.377  -6.526 -16.356  1.00 32.92    -0.647 OA
ATOM     19  OE2 GLU D 570     -20.848  -8.663 -16.253  1.00 32.92    -0.647 OA
ENDBRANCH  16  17
ENDBRANCH  15  16
ENDBRANCH  14  15
END_RES GLU D 570
ENDMDL
MODEL 9
REMARK VINA RESULT:      -6.6      3.436      8.551
REMARK  19 active torsions:
REMARK  status: ('A' for Active; 'I' for Inactive)
REMARK    1  A    between atoms: C_2  and  C_3 
REMARK    2  A    between atoms: C_3  and  C_4 
REMARK    3  A    between atoms: C_4  and  C_5 
REMARK    4  A    between atoms: C_5  and  C_6 
REMARK    5  A    between atoms: C_6  and  C_7 
REMARK    6  A    between atoms: C_7  and  C_8 
REMARK    7  A    between atoms: C_8  and  C_9 
REMARK    8  A    between atoms: C_10  and  C_11 
REMARK    9  A    between atoms: C_11  and  C_12 
REMARK   10  A    between atoms: C_12  and  C_13 
REMARK   11  A    between atoms: C_13  and  C_14 
REMARK   12  A    between atoms: C_14  and  C_15 
REMARK   13  A    between atoms: C_15  and  C_16 
REMARK   14  A    between atoms: C_16  and  C_17 
REMARK   15  A    between atoms: C_17  and  C_18 
REMARK   16  A    between atoms: C_18  and  O_20 
REMARK   17  A    between atoms: O_20  and  C_21 
REMARK   18  A    between atoms: C_21  and  C_22 
REMARK   19  A    between atoms: C_22  and  C_23 
ROOT
HETATM    1  C   UNL     1     -22.309  -6.874  -0.829  1.00  0.00     0.004 C 
ENDROOT
BRANCH   1   2
HETATM    2  C   UNL     1     -21.508  -7.553  -1.930  1.00  0.00     0.027 C 
BRANCH   2   3
HETATM    3  C   UNL     1     -21.334  -6.637  -3.092  1.00  0.00    -0.031 C 
HETATM    4  C   UNL     1     -21.862  -6.899  -4.297  1.00  0.00    -0.031 C 
BRANCH   4   5
HETATM    5  C   UNL     1     -21.689  -5.982  -5.461  1.00  0.00     0.027 C 
BRANCH   5   6
HETATM    6  C   UNL     1     -20.423  -5.155  -5.304  1.00  0.00     0.004 C 
BRANCH   6   7
HETATM    7  C   UNL     1     -19.911  -4.714  -6.669  1.00  0.00     0.000 C 
BRANCH   7   8
HETATM    8  C   UNL     1     -21.076  -4.358  -7.577  1.00  0.00     0.000 C 
BRANCH   8   9
HETATM    9  C   UNL     1     -20.631  -4.364  -9.032  1.00  0.00     0.000 C 
BRANCH   9  10
HETATM   10  C   UNL     1     -21.773  -3.922  -9.936  1.00  0.00    -0.000 C 
BRANCH  10  11
HETATM   11  C   UNL     1     -23.073  -3.824  -9.150  1.00  0.00    -0.005 C 
HETATM   12  C   UNL     1     -24.191  -4.542  -9.882  1.00  0.00     0.005 C 
ENDBRANCH  10  11
ENDBRANCH   9  10
ENDBRANCH   8   9
ENDBRANCH   7   8
ENDBRANCH   6   7
ENDBRANCH   5   6
ENDBRANCH   4   5
ENDBRANCH   2   3
ENDBRANCH   1   2
BRANCH   1  13
HETATM   13  C   UNL     1     -23.028  -7.916   0.020  1.00  0.00     0.000 C 
BRANCH  13  14
HETATM   14  C   UNL     1     -22.551  -9.317  -0.337  1.00  0.00     0.000 C 
BRANCH  14  15
HETATM   15  C   UNL     1     -23.673 -10.335  -0.142  1.00  0.00     0.000 C 
BRANCH  15  16
HETATM   16  C   UNL     1     -23.622 -11.392  -1.238  1.00  0.00     0.010 C 
BRANCH  16  17
HETATM   17  C   UNL     1     -22.873 -10.910  -2.478  1.00  0.00     0.111 C 
BRANCH  17  18
HETATM   18  C   UNL     1     -21.490 -11.530  -2.526  1.00  0.00     0.258 C 
HETATM   19  O   UNL     1     -21.141 -12.530  -1.928  1.00  0.00    -0.265 OA
BRANCH  18  20
HETATM   20  O   UNL     1     -20.652 -10.727  -3.248  1.00  0.00    -0.321 OA
BRANCH  20  21
HETATM   21  C   UNL     1     -19.339 -10.616  -2.687  1.00  0.00     0.178 C 
BRANCH  21  22
HETATM   22  C   UNL     1     -18.567  -9.440  -3.267  1.00  0.00     0.026 C 
BRANCH  22  23
HETATM   23  C   UNL     1     -19.014  -9.128  -4.698  1.00  0.00    -0.002 C 
HETATM   24  C   UNL     1     -18.002  -9.626  -5.717  1.00  0.00     0.005 C 
ENDBRANCH  22  23
ENDBRANCH  21  22
ENDBRANCH  20  21
ENDBRANCH  18  20
ENDBRANCH  17  18
ENDBRANCH  16  17
ENDBRANCH  15  16
ENDBRANCH  14  15
ENDBRANCH  13  14
ENDBRANCH   1  13
TORSDOF 19
BEGIN_RES ARG D 557
REMARK  4 active torsions:
REMARK  status: ('A' for Active; 'I' for Inactive)
REMARK    1  A    between atoms: CA   and  CB  
REMARK    2  A    between atoms: CB   and  CG  
REMARK    3  A    between atoms: CG   and  CD  
REMARK    4  A    between atoms: CD   and  NE  
REMARK       I    between atoms: NE   and  CZ  
REMARK       I    between atoms: CZ   and  NH1 
REMARK       I    between atoms: CZ   and  NH2 
ROOT
ATOM      1  CA  ARG D 557     -26.217   2.705 -17.014  1.00 35.49     0.159 C 
ENDROOT
BRANCH   1   2
ATOM      2  CB  ARG D 557     -26.789   1.319 -17.183  1.00 35.49     0.034 C 
BRANCH   2   3
ATOM      3  CG  ARG D 557     -28.234   1.225 -17.422  1.00 35.49     0.027 C 
BRANCH   3   4
ATOM      4  CD  ARG D 557     -28.902   0.293 -16.485  1.00 35.49     0.116 C 
BRANCH   4   5
ATOM      5  NE  ARG D 557     -29.313  -0.925 -17.131  1.00 35.49    -0.212 N 
ATOM      6  CZ  ARG D 557     -28.698  -2.083 -17.048  1.00 35.49     0.666 C 
ATOM      7  NH1 ARG D 557     -27.591  -2.250 -16.348  1.00 35.49    -0.235 N 
ATOM      8  NH2 ARG D 557     -29.224  -3.089 -17.685  1.00 35.49    -0.235 N 
ATOM      9  HH  ARG D 557     -27.229  -1.603 -15.920  1.00 35.49     0.174 HD
ATOM     10  HH  ARG D 557     -27.236  -3.030 -16.328  1.00 35.49     0.174 HD
ATOM     11  HH  ARG D 557     -29.943  -2.954 -18.123  1.00 35.49     0.174 HD
ATOM     12  HH  ARG D 557     -28.858  -3.853 -17.652  1.00 35.49     0.174 HD
ATOM     13  HE  ARG D 557     -29.976  -0.891 -17.662  1.00 35.49     0.178 HD
ENDBRANCH   4   5
ENDBRANCH   3   4
ENDBRANCH   2   3
ENDBRANCH   1   2
END_RES ARG D 557
BEGIN_RES GLU D 570
REMARK  3 active torsions:
REMARK  status: ('A' for Active; 'I' for Inactive)
REMARK    5  A    between atoms: CA   and  CB  
REMARK    6  A    between atoms: CB   and  CG  
REMARK    7  A    between atoms: CG   and  CD  
ROOT
ATOM     14  CA  GLU D 570     -18.033  -6.348 -13.375  1.00 32.92     0.160 C 
ENDROOT
BRANCH  14  15
ATOM     15  CB  GLU D 570     -19.500  -6.345 -13.794  1.00 32.92     0.043 C 
BRANCH  15  16
ATOM     16  CG  GLU D 570     -20.440  -5.522 -12.990  1.00 32.92     0.100 C 
BRANCH  16  17
ATOM     17  CD  GLU D 570     -21.700  -5.163 -13.742  1.00 32.92     0.185 C 
ATOM     18  OE1 GLU D 570     -22.775  -5.081 -13.117  1.00 32.92    -0.647 OA
ATOM     19  OE2 GLU D 570     -21.614  -4.977 -14.972  1.00 32.92    -0.647 OA
ENDBRANCH  16  17
ENDBRANCH  15  16
ENDBRANCH  14  15
END_RES GLU D 570
ENDMDL
