MODEL 1
REMARK VINA RESULT:      -8.8      0.000      0.000
REMARK  16 active torsions:
REMARK  status: ('A' for Active; 'I' for Inactive)
REMARK       I    between atoms: C_2  and  N_4 
REMARK    1  A    between atoms: N_4  and  C_5 
REMARK    2  A    between atoms: C_5  and  C_6 
REMARK    3  A    between atoms: C_6  and  C_7 
REMARK       I    between atoms: C_7  and  N_10 
REMARK    4  A    between atoms: N_10  and  CA_11 
REMARK    5  A    between atoms: CA_11  and  CB_12 
REMARK    6  A    between atoms: CA_11  and  C_19 
REMARK    7  A    between atoms: CB_12  and  CG_13 
REMARK       I    between atoms: C_19  and  N_23 
REMARK    8  A    between atoms: N_23  and  CA_24 
REMARK    9  A    between atoms: CA_24  and  CB_25 
REMARK   10  A    between atoms: CA_24  and  C_27 
REMARK   11  A    between atoms: CB_25  and  OG_26 
REMARK       I    between atoms: C_27  and  N_31 
REMARK   12  A    between atoms: N_31  and  CA_32 
REMARK   13  A    between atoms: CA_32  and  CB_33 
REMARK   14  A    between atoms: CA_32  and  C_40 
REMARK   15  A    between atoms: CB_33  and  CG_34 
REMARK   16  A    between atoms: C_40  and  OXT_42 
ROOT
ATOM      1  C   HIS A   1     -20.744  -6.463  -5.837  1.00  0.00     0.221 C 
ATOM      2  O   HIS A   1     -21.001  -6.994  -6.918  1.00  0.00    -0.278 OA
ATOM      3  N   SER A   2     -20.791  -5.082  -5.647  1.00  0.00    -0.246 NA
ATOM      4  H   SER A   2     -20.041  -4.867  -4.994  1.00  0.00     0.131 HD
ENDROOT
BRANCH   3   5
ATOM      5  CA  SER A   2     -20.814  -4.075  -6.753  1.00  0.00     0.178 C 
BRANCH   5   6
ATOM      6  CB  SER A   2     -19.573  -4.172  -7.677  1.00  0.00     0.193 C 
BRANCH   6   7
ATOM      7  OG  SER A   2     -19.673  -5.029  -8.817  1.00  0.00    -0.399 OA
ATOM      8  H   SER A   2     -19.844  -5.950  -8.524  1.00  0.00     0.209 HD
ENDBRANCH   6   7
ENDBRANCH   5   6
BRANCH   5   9
ATOM      9  C   SER A   2     -22.185  -4.030  -7.703  1.00  0.00     0.238 C 
ATOM     10  O   SER A   2     -23.262  -4.448  -7.272  1.00  0.00    -0.272 OA
ATOM     11  N   HIS A   3     -22.080  -3.621  -9.043  1.00  0.00    -0.345 N 
ATOM     12  H   HIS A   3     -21.126  -3.443  -9.336  1.00  0.00     0.163 HD
BRANCH  11  13
ATOM     13  CA  HIS A   3     -23.098  -3.734 -10.189  1.00  0.00     0.188 C 
BRANCH  13  14
ATOM     14  CB  HIS A   3     -22.711  -4.938 -11.130  1.00  0.00     0.094 C 
BRANCH  14  15
ATOM     15  CG  HIS A   3     -22.704  -4.638 -12.603  1.00  0.00     0.028 A 
ATOM     16  CD2 HIS A   3     -23.142  -5.402 -13.646  1.00  0.00     0.114 A 
ATOM     17  NE2 HIS A   3     -22.946  -4.842 -14.871  1.00  0.00    -0.360 N 
ATOM     18  CE1 HIS A   3     -22.382  -3.696 -14.601  1.00  0.00     0.180 A 
ATOM     19  HE2 HIS A   3     -23.184  -5.227 -15.785  1.00  0.00     0.166 HD
ATOM     20  ND1 HIS A   3     -22.286  -3.492 -13.244  1.00  0.00    -0.354 N 
ATOM     21  HD1 HIS A   3     -21.934  -2.644 -12.829  1.00  0.00     0.166 HD
ENDBRANCH  14  15
ENDBRANCH  13  14
BRANCH  13  22
ATOM     22  C   HIS A   3     -24.708  -3.804 -10.028  1.00  0.00     0.163 C 
ATOM     23  O   HIS A   3     -25.572  -2.979 -10.275  1.00  0.00    -0.648 OA
BRANCH  22  24
ATOM     24  OXT HIS A   3     -25.150  -4.939  -9.456  1.00  0.00    -0.775 OA
ATOM     25  HXT HIS A   3     -24.464  -5.528  -9.047  1.00  0.00     0.167 HD
ENDBRANCH  22  24
ENDBRANCH  13  22
ENDBRANCH  11  13
ENDBRANCH   5   9
ENDBRANCH   3   5
BRANCH   1  26
ATOM     26  CA  HIS A   1     -20.509  -7.324  -4.550  1.00  0.00     0.176 C 
BRANCH  26  27
ATOM     27  N   HIS A   1     -21.572  -7.114  -3.568  1.00  0.00    -0.348 N 
HETATM   28  C   UNK A   0     -21.267  -7.251  -2.224  1.00  0.00     0.219 C 
HETATM   29  O   UNK A   0     -20.192  -7.693  -1.830  1.00  0.00    -0.274 OA
ATOM     30  H   HIS A   1     -22.490  -6.808  -3.867  1.00  0.00     0.163 HD
BRANCH  28  31
HETATM   31  C   UNK A   0     -22.322  -6.715  -1.294  1.00  0.00     0.122 C 
BRANCH  31  32
HETATM   32  C   UNK A   0     -22.561  -7.631  -0.069  1.00  0.00     0.132 C 
BRANCH  32  33
HETATM   33  N   UNK A   0     -22.147  -9.071  -0.068  1.00  0.00    -0.361 N 
HETATM   34  C   UNK A   0     -21.257  -9.616   0.804  1.00  0.00     0.213 C 
HETATM   35  C   UNK A   0     -20.895 -11.097   0.743  1.00  0.00     0.117 C 
HETATM   36  O   UNK A   0     -20.844  -8.924   1.729  1.00  0.00    -0.274 OA
HETATM   37  H   UNK A   0     -22.868  -9.736  -0.349  1.00  0.00     0.162 HD
ENDBRANCH  32  33
ENDBRANCH  31  32
ENDBRANCH  28  31
ENDBRANCH  26  27
BRANCH  26  38
ATOM     38  CB  HIS A   1     -20.349  -8.791  -4.976  1.00  0.00     0.092 C 
BRANCH  38  39
ATOM     39  CG  HIS A   1     -18.943  -9.309  -4.991  1.00  0.00     0.028 A 
ATOM     40  CD2 HIS A   1     -18.048  -9.658  -4.001  1.00  0.00     0.114 A 
ATOM     41  NE2 HIS A   1     -16.845 -10.041  -4.538  1.00  0.00    -0.360 N 
ATOM     42  CE1 HIS A   1     -16.982  -9.899  -5.835  1.00  0.00     0.180 A 
ATOM     43  HE2 HIS A   1     -16.020 -10.367  -4.035  1.00  0.00     0.166 HD
ATOM     44  ND1 HIS A   1     -18.239  -9.478  -6.160  1.00  0.00    -0.354 N 
ATOM     45  HD1 HIS A   1     -18.575  -9.300  -7.096  1.00  0.00     0.166 HD
ENDBRANCH  38  39
ENDBRANCH  26  38
ENDBRANCH   1  26
TORSDOF 16
BEGIN_RES ARG D 557
REMARK  4 active torsions:
REMARK  status: ('A' for Active; 'I' for Inactive)
REMARK    1  A    between atoms: CA   and  CB  
REMARK    2  A    between atoms: CB   and  CG  
REMARK    3  A    between atoms: CG   and  CD  
REMARK    4  A    between atoms: CD   and  NE  
REMARK       I    between atoms: NE   and  CZ  
REMARK       I    between atoms: CZ   and  NH1 
REMARK       I    between atoms: CZ   and  NH2 
ROOT
ATOM      1  CA  ARG D 557     -26.217   2.705 -17.014  1.00 35.49     0.159 C 
ENDROOT
BRANCH   1   2
ATOM      2  CB  ARG D 557     -26.789   1.319 -17.183  1.00 35.49     0.034 C 
BRANCH   2   3
ATOM      3  CG  ARG D 557     -25.958   0.200 -16.722  1.00 35.49     0.027 C 
BRANCH   3   4
ATOM      4  CD  ARG D 557     -26.767  -0.942 -16.238  1.00 35.49     0.116 C 
BRANCH   4   5
ATOM      5  NE  ARG D 557     -26.292  -1.447 -14.977  1.00 35.49    -0.212 N 
ATOM      6  CZ  ARG D 557     -26.221  -2.714 -14.635  1.00 35.49     0.666 C 
ATOM      7  NH1 ARG D 557     -26.604  -3.688 -15.439  1.00 35.49    -0.235 N 
ATOM      8  NH2 ARG D 557     -25.744  -2.992 -13.456  1.00 35.49    -0.235 N 
ATOM      9  HH  ARG D 557     -26.919  -3.529 -16.220  1.00 35.49     0.174 HD
ATOM     10  HH  ARG D 557     -26.532  -4.496 -15.163  1.00 35.49     0.174 HD
ATOM     11  HH  ARG D 557     -25.497  -2.342 -12.961  1.00 35.49     0.174 HD
ATOM     12  HH  ARG D 557     -25.679  -3.798 -13.202  1.00 35.49     0.174 HD
ATOM     13  HE  ARG D 557     -26.092  -0.885 -14.371  1.00 35.49     0.178 HD
ENDBRANCH   4   5
ENDBRANCH   3   4
ENDBRANCH   2   3
ENDBRANCH   1   2
END_RES ARG D 557
BEGIN_RES GLU D 570
REMARK  3 active torsions:
REMARK  status: ('A' for Active; 'I' for Inactive)
REMARK    5  A    between atoms: CA   and  CB  
REMARK    6  A    between atoms: CB   and  CG  
REMARK    7  A    between atoms: CG   and  CD  
ROOT
ATOM     14  CA  GLU D 570     -18.033  -6.348 -13.375  1.00 32.92     0.160 C 
ENDROOT
BRANCH  14  15
ATOM     15  CB  GLU D 570     -19.500  -6.345 -13.794  1.00 32.92     0.043 C 
BRANCH  15  16
ATOM     16  CG  GLU D 570     -20.084  -7.632 -14.253  1.00 32.92     0.100 C 
BRANCH  16  17
ATOM     17  CD  GLU D 570     -20.686  -7.546 -15.636  1.00 32.92     0.185 C 
ATOM     18  OE1 GLU D 570     -20.685  -6.451 -16.229  1.00 32.92    -0.647 OA
ATOM     19  OE2 GLU D 570     -21.180  -8.582 -16.124  1.00 32.92    -0.647 OA
ENDBRANCH  16  17
ENDBRANCH  15  16
ENDBRANCH  14  15
END_RES GLU D 570
ENDMDL
MODEL 2
REMARK VINA RESULT:      -8.4      1.834      4.009
REMARK  16 active torsions:
REMARK  status: ('A' for Active; 'I' for Inactive)
REMARK       I    between atoms: C_2  and  N_4 
REMARK    1  A    between atoms: N_4  and  C_5 
REMARK    2  A    between atoms: C_5  and  C_6 
REMARK    3  A    between atoms: C_6  and  C_7 
REMARK       I    between atoms: C_7  and  N_10 
REMARK    4  A    between atoms: N_10  and  CA_11 
REMARK    5  A    between atoms: CA_11  and  CB_12 
REMARK    6  A    between atoms: CA_11  and  C_19 
REMARK    7  A    between atoms: CB_12  and  CG_13 
REMARK       I    between atoms: C_19  and  N_23 
REMARK    8  A    between atoms: N_23  and  CA_24 
REMARK    9  A    between atoms: CA_24  and  CB_25 
REMARK   10  A    between atoms: CA_24  and  C_27 
REMARK   11  A    between atoms: CB_25  and  OG_26 
REMARK       I    between atoms: C_27  and  N_31 
REMARK   12  A    between atoms: N_31  and  CA_32 
REMARK   13  A    between atoms: CA_32  and  CB_33 
REMARK   14  A    between atoms: CA_32  and  C_40 
REMARK   15  A    between atoms: CB_33  and  CG_34 
REMARK   16  A    between atoms: C_40  and  OXT_42 
ROOT
ATOM      1  C   HIS A   1     -21.305  -7.277  -5.347  1.00  0.00     0.221 C 
ATOM      2  O   HIS A   1     -21.332  -7.721  -6.497  1.00  0.00    -0.278 OA
ATOM      3  N   SER A   2     -21.289  -5.911  -5.069  1.00  0.00    -0.246 NA
ATOM      4  H   SER A   2     -20.706  -5.804  -4.242  1.00  0.00     0.131 HD
ENDROOT
BRANCH   3   5
ATOM      5  CA  SER A   2     -20.963  -4.847  -6.069  1.00  0.00     0.178 C 
BRANCH   5   6
ATOM      6  CB  SER A   2     -19.684  -5.163  -6.885  1.00  0.00     0.193 C 
BRANCH   6   7
ATOM      7  OG  SER A   2     -19.134  -4.104  -7.673  1.00  0.00    -0.399 OA
ATOM      8  H   SER A   2     -19.638  -4.019  -8.511  1.00  0.00     0.209 HD
ENDBRANCH   6   7
ENDBRANCH   5   6
BRANCH   5   9
ATOM      9  C   SER A   2     -22.177  -4.409  -7.127  1.00  0.00     0.238 C 
ATOM     10  O   SER A   2     -23.360  -4.615  -6.847  1.00  0.00    -0.272 OA
ATOM     11  N   HIS A   3     -21.837  -3.910  -8.396  1.00  0.00    -0.345 N 
ATOM     12  H   HIS A   3     -20.840  -3.922  -8.579  1.00  0.00     0.163 HD
BRANCH  11  13
ATOM     13  CA  HIS A   3     -22.719  -3.687  -9.633  1.00  0.00     0.188 C 
BRANCH  13  14
ATOM     14  CB  HIS A   3     -22.293  -4.682 -10.780  1.00  0.00     0.094 C 
BRANCH  14  15
ATOM     15  CG  HIS A   3     -22.659  -4.262 -12.176  1.00  0.00     0.028 A 
ATOM     16  CD2 HIS A   3     -23.491  -4.867 -13.073  1.00  0.00     0.114 A 
ATOM     17  NE2 HIS A   3     -23.568  -4.239 -14.278  1.00  0.00    -0.360 N 
ATOM     18  CE1 HIS A   3     -22.777  -3.210 -14.142  1.00  0.00     0.180 A 
ATOM     19  HE2 HIS A   3     -24.115  -4.509 -15.096  1.00  0.00     0.166 HD
ATOM     20  ND1 HIS A   3     -22.266  -3.136 -12.866  1.00  0.00    -0.354 N 
ATOM     21  HD1 HIS A   3     -21.681  -2.384 -12.540  1.00  0.00     0.166 HD
ENDBRANCH  14  15
ENDBRANCH  13  14
BRANCH  13  22
ATOM     22  C   HIS A   3     -24.338  -3.659  -9.656  1.00  0.00     0.163 C 
ATOM     23  O   HIS A   3     -25.122  -2.725  -9.663  1.00  0.00    -0.648 OA
BRANCH  22  24
ATOM     24  OXT HIS A   3     -24.904  -4.878  -9.580  1.00  0.00    -0.775 OA
ATOM     25  HXT HIS A   3     -25.328  -5.120  -8.716  1.00  0.00     0.167 HD
ENDBRANCH  22  24
ENDBRANCH  13  22
ENDBRANCH  11  13
ENDBRANCH   5   9
ENDBRANCH   3   5
BRANCH   1  26
ATOM     26  CA  HIS A   1     -21.458  -8.226  -4.111  1.00  0.00     0.176 C 
BRANCH  26  27
ATOM     27  N   HIS A   1     -20.690  -9.458  -4.286  1.00  0.00    -0.348 N 
HETATM   28  C   UNK A   0     -21.361 -10.669  -4.227  1.00  0.00     0.219 C 
HETATM   29  O   UNK A   0     -22.533 -10.760  -3.878  1.00  0.00    -0.274 OA
ATOM     30  H   HIS A   1     -19.704  -9.417  -4.515  1.00  0.00     0.163 HD
BRANCH  28  31
HETATM   31  C   UNK A   0     -20.561 -11.842  -4.727  1.00  0.00     0.122 C 
BRANCH  31  32
HETATM   32  C   UNK A   0     -19.699 -11.496  -5.965  1.00  0.00     0.132 C 
BRANCH  32  33
HETATM   33  N   UNK A   0     -18.221 -11.278  -5.860  1.00  0.00    -0.361 N 
HETATM   34  C   UNK A   0     -17.605 -10.078  -6.040  1.00  0.00     0.213 C 
HETATM   35  C   UNK A   0     -16.091  -9.937  -5.907  1.00  0.00     0.117 C 
HETATM   36  O   UNK A   0     -18.301  -9.077  -6.183  1.00  0.00    -0.274 OA
HETATM   37  H   UNK A   0     -17.737 -11.860  -5.177  1.00  0.00     0.162 HD
ENDBRANCH  32  33
ENDBRANCH  31  32
ENDBRANCH  28  31
ENDBRANCH  26  27
BRANCH  26  38
ATOM     38  CB  HIS A   1     -21.072  -7.438  -2.850  1.00  0.00     0.092 C 
BRANCH  38  39
ATOM     39  CG  HIS A   1     -21.843  -7.783  -1.613  1.00  0.00     0.028 A 
ATOM     40  CD2 HIS A   1     -22.420  -7.029  -0.611  1.00  0.00     0.114 A 
ATOM     41  NE2 HIS A   1     -22.985  -7.834   0.346  1.00  0.00    -0.360 N 
ATOM     42  CE1 HIS A   1     -22.734  -9.063  -0.038  1.00  0.00     0.180 A 
ATOM     43  HE2 HIS A   1     -23.494  -7.539   1.179  1.00  0.00     0.166 HD
ATOM     44  ND1 HIS A   1     -22.062  -9.084  -1.227  1.00  0.00    -0.354 N 
ATOM     45  HD1 HIS A   1     -21.762  -9.916  -1.716  1.00  0.00     0.166 HD
ENDBRANCH  38  39
ENDBRANCH  26  38
ENDBRANCH   1  26
TORSDOF 16
BEGIN_RES ARG D 557
REMARK  4 active torsions:
REMARK  status: ('A' for Active; 'I' for Inactive)
REMARK    1  A    between atoms: CA   and  CB  
REMARK    2  A    between atoms: CB   and  CG  
REMARK    3  A    between atoms: CG   and  CD  
REMARK    4  A    between atoms: CD   and  NE  
REMARK       I    between atoms: NE   and  CZ  
REMARK       I    between atoms: CZ   and  NH1 
REMARK       I    between atoms: CZ   and  NH2 
ROOT
ATOM      1  CA  ARG D 557     -26.217   2.705 -17.014  1.00 35.49     0.159 C 
ENDROOT
BRANCH   1   2
ATOM      2  CB  ARG D 557     -26.789   1.319 -17.183  1.00 35.49     0.034 C 
BRANCH   2   3
ATOM      3  CG  ARG D 557     -28.230   1.227 -17.447  1.00 35.49     0.027 C 
BRANCH   3   4
ATOM      4  CD  ARG D 557     -28.917   0.308 -16.511  1.00 35.49     0.116 C 
BRANCH   4   5
ATOM      5  NE  ARG D 557     -29.302  -0.925 -17.145  1.00 35.49    -0.212 N 
ATOM      6  CZ  ARG D 557     -28.671  -2.073 -17.041  1.00 35.49     0.666 C 
ATOM      7  NH1 ARG D 557     -27.569  -2.213 -16.327  1.00 35.49    -0.235 N 
ATOM      8  NH2 ARG D 557     -29.175  -3.095 -17.669  1.00 35.49    -0.235 N 
ATOM      9  HH  ARG D 557     -27.221  -1.555 -15.904  1.00 35.49     0.174 HD
ATOM     10  HH  ARG D 557     -27.202  -2.987 -16.294  1.00 35.49     0.174 HD
ATOM     11  HH  ARG D 557     -29.891  -2.976 -18.116  1.00 35.49     0.174 HD
ATOM     12  HH  ARG D 557     -28.797  -3.853 -17.622  1.00 35.49     0.174 HD
ATOM     13  HE  ARG D 557     -29.961  -0.909 -17.683  1.00 35.49     0.178 HD
ENDBRANCH   4   5
ENDBRANCH   3   4
ENDBRANCH   2   3
ENDBRANCH   1   2
END_RES ARG D 557
BEGIN_RES GLU D 570
REMARK  3 active torsions:
REMARK  status: ('A' for Active; 'I' for Inactive)
REMARK    5  A    between atoms: CA   and  CB  
REMARK    6  A    between atoms: CB   and  CG  
REMARK    7  A    between atoms: CG   and  CD  
ROOT
ATOM     14  CA  GLU D 570     -18.033  -6.348 -13.375  1.00 32.92     0.160 C 
ENDROOT
BRANCH  14  15
ATOM     15  CB  GLU D 570     -19.500  -6.345 -13.794  1.00 32.92     0.043 C 
BRANCH  15  16
ATOM     16  CG  GLU D 570     -20.099  -7.643 -14.199  1.00 32.92     0.100 C 
BRANCH  16  17
ATOM     17  CD  GLU D 570     -20.959  -7.534 -15.436  1.00 32.92     0.185 C 
ATOM     18  OE1 GLU D 570     -21.750  -6.577 -15.541  1.00 32.92    -0.647 OA
ATOM     19  OE2 GLU D 570     -20.853  -8.425 -16.302  1.00 32.92    -0.647 OA
ENDBRANCH  16  17
ENDBRANCH  15  16
ENDBRANCH  14  15
END_RES GLU D 570
ENDMDL
MODEL 3
REMARK VINA RESULT:      -7.6      2.035      3.875
REMARK  16 active torsions:
REMARK  status: ('A' for Active; 'I' for Inactive)
REMARK       I    between atoms: C_2  and  N_4 
REMARK    1  A    between atoms: N_4  and  C_5 
REMARK    2  A    between atoms: C_5  and  C_6 
REMARK    3  A    between atoms: C_6  and  C_7 
REMARK       I    between atoms: C_7  and  N_10 
REMARK    4  A    between atoms: N_10  and  CA_11 
REMARK    5  A    between atoms: CA_11  and  CB_12 
REMARK    6  A    between atoms: CA_11  and  C_19 
REMARK    7  A    between atoms: CB_12  and  CG_13 
REMARK       I    between atoms: C_19  and  N_23 
REMARK    8  A    between atoms: N_23  and  CA_24 
REMARK    9  A    between atoms: CA_24  and  CB_25 
REMARK   10  A    between atoms: CA_24  and  C_27 
REMARK   11  A    between atoms: CB_25  and  OG_26 
REMARK       I    between atoms: C_27  and  N_31 
REMARK   12  A    between atoms: N_31  and  CA_32 
REMARK   13  A    between atoms: CA_32  and  CB_33 
REMARK   14  A    between atoms: CA_32  and  C_40 
REMARK   15  A    between atoms: CB_33  and  CG_34 
REMARK   16  A    between atoms: C_40  and  OXT_42 
ROOT
ATOM      1  C   HIS A   1     -20.019  -9.416  -4.852  1.00  0.00     0.221 C 
ATOM      2  O   HIS A   1     -20.796  -9.553  -5.799  1.00  0.00    -0.278 OA
ATOM      3  N   SER A   2     -20.228  -8.483  -3.837  1.00  0.00    -0.246 NA
ATOM      4  H   SER A   2     -19.303  -8.150  -3.572  1.00  0.00     0.131 HD
ENDROOT
BRANCH   3   5
ATOM      5  CA  SER A   2     -21.182  -7.334  -3.926  1.00  0.00     0.178 C 
BRANCH   5   6
ATOM      6  CB  SER A   2     -21.381  -6.615  -2.567  1.00  0.00     0.193 C 
BRANCH   6   7
ATOM      7  OG  SER A   2     -22.537  -5.785  -2.430  1.00  0.00    -0.399 OA
ATOM      8  H   SER A   2     -22.904  -5.580  -3.317  1.00  0.00     0.209 HD
ENDBRANCH   6   7
ENDBRANCH   5   6
BRANCH   5   9
ATOM      9  C   SER A   2     -20.875  -6.186  -5.097  1.00  0.00     0.238 C 
ATOM     10  O   SER A   2     -20.500  -5.054  -4.785  1.00  0.00    -0.272 OA
ATOM     11  N   HIS A   3     -21.159  -6.482  -6.441  1.00  0.00    -0.345 N 
ATOM     12  H   HIS A   3     -21.603  -7.384  -6.569  1.00  0.00     0.163 HD
BRANCH  11  13
ATOM     13  CA  HIS A   3     -21.225  -5.550  -7.660  1.00  0.00     0.188 C 
BRANCH  13  14
ATOM     14  CB  HIS A   3     -22.387  -4.501  -7.469  1.00  0.00     0.094 C 
BRANCH  14  15
ATOM     15  CG  HIS A   3     -23.225  -4.228  -8.687  1.00  0.00     0.028 A 
ATOM     16  CD2 HIS A   3     -23.138  -4.767  -9.938  1.00  0.00     0.114 A 
ATOM     17  NE2 HIS A   3     -24.035  -4.262 -10.829  1.00  0.00    -0.360 N 
ATOM     18  CE1 HIS A   3     -24.711  -3.393 -10.129  1.00  0.00     0.180 A 
ATOM     19  HE2 HIS A   3     -24.151  -4.506 -11.813  1.00  0.00     0.166 HD
ATOM     20  ND1 HIS A   3     -24.313  -3.392  -8.812  1.00  0.00    -0.354 N 
ATOM     21  HD1 HIS A   3     -24.750  -2.834  -8.095  1.00  0.00     0.166 HD
ENDBRANCH  14  15
ENDBRANCH  13  14
BRANCH  13  22
ATOM     22  C   HIS A   3     -19.986  -4.721  -8.293  1.00  0.00     0.163 C 
ATOM     23  O   HIS A   3     -19.762  -4.369  -9.439  1.00  0.00    -0.648 OA
BRANCH  22  24
ATOM     24  OXT HIS A   3     -19.010  -4.441  -7.408  1.00  0.00    -0.775 OA
ATOM     25  HXT HIS A   3     -18.219  -3.955  -7.758  1.00  0.00     0.167 HD
ENDBRANCH  22  24
ENDBRANCH  13  22
ENDBRANCH  11  13
ENDBRANCH   5   9
ENDBRANCH   3   5
BRANCH   1  26
ATOM     26  CA  HIS A   1     -18.825 -10.406  -4.637  1.00  0.00     0.176 C 
BRANCH  26  27
ATOM     27  N   HIS A   1     -19.031 -11.238  -3.453  1.00  0.00    -0.348 N 
HETATM   28  C   UNK A   0     -18.236 -11.013  -2.341  1.00  0.00     0.219 C 
HETATM   29  O   UNK A   0     -17.267 -10.261  -2.361  1.00  0.00    -0.274 OA
ATOM     30  H   HIS A   1     -19.785 -11.914  -3.428  1.00  0.00     0.163 HD
BRANCH  28  31
HETATM   31  C   UNK A   0     -18.723 -11.688  -1.087  1.00  0.00     0.122 C 
BRANCH  31  32
HETATM   32  C   UNK A   0     -20.256 -11.581  -0.906  1.00  0.00     0.132 C 
BRANCH  32  33
HETATM   33  N   UNK A   0     -20.931 -10.267  -0.656  1.00  0.00    -0.361 N 
HETATM   34  C   UNK A   0     -21.063  -9.690   0.569  1.00  0.00     0.213 C 
HETATM   35  C   UNK A   0     -21.758  -8.342   0.737  1.00  0.00     0.117 C 
HETATM   36  O   UNK A   0     -20.497 -10.209   1.526  1.00  0.00    -0.274 OA
HETATM   37  H   UNK A   0     -20.837  -9.576  -1.400  1.00  0.00     0.162 HD
ENDBRANCH  32  33
ENDBRANCH  31  32
ENDBRANCH  28  31
ENDBRANCH  26  27
BRANCH  26  38
ATOM     38  CB  HIS A   1     -18.634 -11.215  -5.929  1.00  0.00     0.092 C 
BRANCH  38  39
ATOM     39  CG  HIS A   1     -17.301 -11.881  -6.081  1.00  0.00     0.028 A 
ATOM     40  CD2 HIS A   1     -16.883 -13.195  -6.035  1.00  0.00     0.114 A 
ATOM     41  NE2 HIS A   1     -15.523 -13.285  -6.194  1.00  0.00    -0.360 N 
ATOM     42  CE1 HIS A   1     -15.102 -12.047  -6.303  1.00  0.00     0.180 A 
ATOM     43  HE2 HIS A   1     -14.959 -14.135  -6.221  1.00  0.00     0.166 HD
ATOM     44  ND1 HIS A   1     -16.141 -11.163  -6.261  1.00  0.00    -0.354 N 
ATOM     45  HD1 HIS A   1     -16.059 -10.158  -6.325  1.00  0.00     0.166 HD
ENDBRANCH  38  39
ENDBRANCH  26  38
ENDBRANCH   1  26
TORSDOF 16
BEGIN_RES ARG D 557
REMARK  4 active torsions:
REMARK  status: ('A' for Active; 'I' for Inactive)
REMARK    1  A    between atoms: CA   and  CB  
REMARK    2  A    between atoms: CB   and  CG  
REMARK    3  A    between atoms: CG   and  CD  
REMARK    4  A    between atoms: CD   and  NE  
REMARK       I    between atoms: NE   and  CZ  
REMARK       I    between atoms: CZ   and  NH1 
REMARK       I    between atoms: CZ   and  NH2 
ROOT
ATOM      1  CA  ARG D 557     -26.217   2.705 -17.014  1.00 35.49     0.159 C 
ENDROOT
BRANCH   1   2
ATOM      2  CB  ARG D 557     -26.789   1.319 -17.183  1.00 35.49     0.034 C 
BRANCH   2   3
ATOM      3  CG  ARG D 557     -25.927   0.196 -16.794  1.00 35.49     0.027 C 
BRANCH   3   4
ATOM      4  CD  ARG D 557     -26.676  -0.878 -16.103  1.00 35.49     0.116 C 
BRANCH   4   5
ATOM      5  NE  ARG D 557     -25.871  -1.558 -15.124  1.00 35.49    -0.212 N 
ATOM      6  CZ  ARG D 557     -25.944  -2.835 -14.821  1.00 35.49     0.666 C 
ATOM      7  NH1 ARG D 557     -26.807  -3.651 -15.397  1.00 35.49    -0.235 N 
ATOM      8  NH2 ARG D 557     -25.120  -3.287 -13.922  1.00 35.49    -0.235 N 
ATOM      9  HH  ARG D 557     -27.358  -3.376 -15.993  1.00 35.49     0.174 HD
ATOM     10  HH  ARG D 557     -26.808  -4.475 -15.161  1.00 35.49     0.174 HD
ATOM     11  HH  ARG D 557     -24.569  -2.738 -13.572  1.00 35.49     0.174 HD
ATOM     12  HH  ARG D 557     -25.135  -4.106 -13.703  1.00 35.49     0.174 HD
ATOM     13  HE  ARG D 557     -25.337  -1.092 -14.653  1.00 35.49     0.178 HD
ENDBRANCH   4   5
ENDBRANCH   3   4
ENDBRANCH   2   3
ENDBRANCH   1   2
END_RES ARG D 557
BEGIN_RES GLU D 570
REMARK  3 active torsions:
REMARK  status: ('A' for Active; 'I' for Inactive)
REMARK    5  A    between atoms: CA   and  CB  
REMARK    6  A    between atoms: CB   and  CG  
REMARK    7  A    between atoms: CG   and  CD  
ROOT
ATOM     14  CA  GLU D 570     -18.033  -6.348 -13.375  1.00 32.92     0.160 C 
ENDROOT
BRANCH  14  15
ATOM     15  CB  GLU D 570     -19.500  -6.345 -13.794  1.00 32.92     0.043 C 
BRANCH  15  16
ATOM     16  CG  GLU D 570     -20.447  -5.553 -12.967  1.00 32.92     0.100 C 
BRANCH  16  17
ATOM     17  CD  GLU D 570     -21.740  -5.243 -13.684  1.00 32.92     0.185 C 
ATOM     18  OE1 GLU D 570     -22.145  -6.026 -14.565  1.00 32.92    -0.647 OA
ATOM     19  OE2 GLU D 570     -22.345  -4.199 -13.374  1.00 32.92    -0.647 OA
ENDBRANCH  16  17
ENDBRANCH  15  16
ENDBRANCH  14  15
END_RES GLU D 570
ENDMDL
MODEL 4
REMARK VINA RESULT:      -7.5      2.303      5.303
REMARK  16 active torsions:
REMARK  status: ('A' for Active; 'I' for Inactive)
REMARK       I    between atoms: C_2  and  N_4 
REMARK    1  A    between atoms: N_4  and  C_5 
REMARK    2  A    between atoms: C_5  and  C_6 
REMARK    3  A    between atoms: C_6  and  C_7 
REMARK       I    between atoms: C_7  and  N_10 
REMARK    4  A    between atoms: N_10  and  CA_11 
REMARK    5  A    between atoms: CA_11  and  CB_12 
REMARK    6  A    between atoms: CA_11  and  C_19 
REMARK    7  A    between atoms: CB_12  and  CG_13 
REMARK       I    between atoms: C_19  and  N_23 
REMARK    8  A    between atoms: N_23  and  CA_24 
REMARK    9  A    between atoms: CA_24  and  CB_25 
REMARK   10  A    between atoms: CA_24  and  C_27 
REMARK   11  A    between atoms: CB_25  and  OG_26 
REMARK       I    between atoms: C_27  and  N_31 
REMARK   12  A    between atoms: N_31  and  CA_32 
REMARK   13  A    between atoms: CA_32  and  CB_33 
REMARK   14  A    between atoms: CA_32  and  C_40 
REMARK   15  A    between atoms: CB_33  and  CG_34 
REMARK   16  A    between atoms: C_40  and  OXT_42 
ROOT
ATOM      1  C   HIS A   1     -21.053  -9.890  -3.102  1.00  0.00     0.221 C 
ATOM      2  O   HIS A   1     -22.008 -10.510  -3.573  1.00  0.00    -0.278 OA
ATOM      3  N   SER A   2     -21.003  -8.496  -3.071  1.00  0.00    -0.246 NA
ATOM      4  H   SER A   2     -20.028  -8.251  -3.219  1.00  0.00     0.131 HD
ENDROOT
BRANCH   3   5
ATOM      5  CA  SER A   2     -21.889  -7.599  -3.876  1.00  0.00     0.178 C 
BRANCH   5   6
ATOM      6  CB  SER A   2     -22.258  -6.293  -3.127  1.00  0.00     0.193 C 
BRANCH   6   7
ATOM      7  OG  SER A   2     -21.226  -5.315  -2.972  1.00  0.00    -0.399 OA
ATOM      8  H   SER A   2     -20.383  -5.665  -3.332  1.00  0.00     0.209 HD
ENDBRANCH   6   7
ENDBRANCH   5   6
BRANCH   5   9
ATOM      9  C   SER A   2     -21.368  -7.205  -5.412  1.00  0.00     0.238 C 
ATOM     10  O   SER A   2     -20.483  -7.863  -5.963  1.00  0.00    -0.272 OA
ATOM     11  N   HIS A   3     -21.861  -6.043  -6.028  1.00  0.00    -0.345 N 
ATOM     12  H   HIS A   3     -22.468  -5.495  -5.429  1.00  0.00     0.163 HD
BRANCH  11  13
ATOM     13  CA  HIS A   3     -21.370  -5.314  -7.289  1.00  0.00     0.188 C 
BRANCH  13  14
ATOM     14  CB  HIS A   3     -22.227  -4.011  -7.521  1.00  0.00     0.094 C 
BRANCH  14  15
ATOM     15  CG  HIS A   3     -23.105  -4.017  -8.741  1.00  0.00     0.028 A 
ATOM     16  CD2 HIS A   3     -22.957  -4.702  -9.912  1.00  0.00     0.114 A 
ATOM     17  NE2 HIS A   3     -23.921  -4.444 -10.838  1.00  0.00    -0.360 N 
ATOM     18  CE1 HIS A   3     -24.703  -3.586 -10.240  1.00  0.00     0.180 A 
ATOM     19  HE2 HIS A   3     -24.012  -4.830 -11.777  1.00  0.00     0.166 HD
ATOM     20  ND1 HIS A   3     -24.297  -3.357  -8.945  1.00  0.00    -0.354 N 
ATOM     21  HD1 HIS A   3     -24.799  -2.772  -8.297  1.00  0.00     0.166 HD
ENDBRANCH  14  15
ENDBRANCH  13  14
BRANCH  13  22
ATOM     22  C   HIS A   3     -19.839  -4.895  -7.610  1.00  0.00     0.163 C 
ATOM     23  O   HIS A   3     -18.881  -4.741  -6.872  1.00  0.00    -0.648 OA
BRANCH  22  24
ATOM     24  OXT HIS A   3     -19.616  -4.597  -8.904  1.00  0.00    -0.775 OA
ATOM     25  HXT HIS A   3     -20.243  -4.991  -9.566  1.00  0.00     0.167 HD
ENDBRANCH  22  24
ENDBRANCH  13  22
ENDBRANCH  11  13
ENDBRANCH   5   9
ENDBRANCH   3   5
BRANCH   1  26
ATOM     26  CA  HIS A   1     -19.899 -10.633  -2.349  1.00  0.00     0.176 C 
BRANCH  26  27
ATOM     27  N   HIS A   1     -18.643  -9.891  -2.434  1.00  0.00    -0.348 N 
HETATM   28  C   UNK A   0     -17.464 -10.602  -2.593  1.00  0.00     0.219 C 
HETATM   29  O   UNK A   0     -17.412 -11.824  -2.505  1.00  0.00    -0.274 OA
ATOM     30  H   HIS A   1     -18.648  -8.878  -2.447  1.00  0.00     0.163 HD
BRANCH  28  31
HETATM   31  C   UNK A   0     -16.282  -9.757  -2.985  1.00  0.00     0.122 C 
BRANCH  31  32
HETATM   32  C   UNK A   0     -15.873  -9.948  -4.465  1.00  0.00     0.132 C 
BRANCH  32  33
HETATM   33  N   UNK A   0     -16.506 -10.996  -5.329  1.00  0.00    -0.361 N 
HETATM   34  C   UNK A   0     -17.539 -10.767  -6.185  1.00  0.00     0.213 C 
HETATM   35  C   UNK A   0     -18.121 -11.890  -7.039  1.00  0.00     0.117 C 
HETATM   36  O   UNK A   0     -17.911  -9.611  -6.360  1.00  0.00    -0.274 OA
HETATM   37  H   UNK A   0     -15.878 -11.724  -5.668  1.00  0.00     0.162 HD
ENDBRANCH  32  33
ENDBRANCH  31  32
ENDBRANCH  28  31
ENDBRANCH  26  27
BRANCH  26  38
ATOM     38  CB  HIS A   1     -20.358 -10.895  -0.906  1.00  0.00     0.092 C 
BRANCH  38  39
ATOM     39  CG  HIS A   1     -21.334  -9.904  -0.349  1.00  0.00     0.028 A 
ATOM     40  CD2 HIS A   1     -22.697  -9.927  -0.138  1.00  0.00     0.114 A 
ATOM     41  NE2 HIS A   1     -23.137  -8.729   0.365  1.00  0.00    -0.360 N 
ATOM     42  CE1 HIS A   1     -22.072  -7.967   0.432  1.00  0.00     0.180 A 
ATOM     43  HE2 HIS A   1     -24.091  -8.484   0.631  1.00  0.00     0.166 HD
ATOM     44  ND1 HIS A   1     -20.953  -8.638   0.030  1.00  0.00    -0.354 N 
ATOM     45  HD1 HIS A   1     -20.019  -8.255  -0.004  1.00  0.00     0.166 HD
ENDBRANCH  38  39
ENDBRANCH  26  38
ENDBRANCH   1  26
TORSDOF 16
BEGIN_RES ARG D 557
REMARK  4 active torsions:
REMARK  status: ('A' for Active; 'I' for Inactive)
REMARK    1  A    between atoms: CA   and  CB  
REMARK    2  A    between atoms: CB   and  CG  
REMARK    3  A    between atoms: CG   and  CD  
REMARK    4  A    between atoms: CD   and  NE  
REMARK       I    between atoms: NE   and  CZ  
REMARK       I    between atoms: CZ   and  NH1 
REMARK       I    between atoms: CZ   and  NH2 
ROOT
ATOM      1  CA  ARG D 557     -26.217   2.705 -17.014  1.00 35.49     0.159 C 
ENDROOT
BRANCH   1   2
ATOM      2  CB  ARG D 557     -26.789   1.319 -17.183  1.00 35.49     0.034 C 
BRANCH   2   3
ATOM      3  CG  ARG D 557     -25.835   0.203 -17.160  1.00 35.49     0.027 C 
BRANCH   3   4
ATOM      4  CD  ARG D 557     -24.748   0.411 -16.176  1.00 35.49     0.116 C 
BRANCH   4   5
ATOM      5  NE  ARG D 557     -24.896  -0.432 -15.019  1.00 35.49    -0.212 N 
ATOM      6  CZ  ARG D 557     -24.079  -1.398 -14.663  1.00 35.49     0.666 C 
ATOM      7  NH1 ARG D 557     -23.008  -1.716 -15.365  1.00 35.49    -0.235 N 
ATOM      8  NH2 ARG D 557     -24.357  -2.046 -13.569  1.00 35.49    -0.235 N 
ATOM      9  HH  ARG D 557     -22.804  -1.301 -16.087  1.00 35.49     0.174 HD
ATOM     10  HH  ARG D 557     -22.510  -2.354 -15.083  1.00 35.49     0.174 HD
ATOM     11  HH  ARG D 557     -25.052  -1.814 -13.132  1.00 35.49     0.174 HD
ATOM     12  HH  ARG D 557     -23.852  -2.674 -13.305  1.00 35.49     0.174 HD
ATOM     13  HE  ARG D 557     -25.599  -0.344 -14.548  1.00 35.49     0.178 HD
ENDBRANCH   4   5
ENDBRANCH   3   4
ENDBRANCH   2   3
ENDBRANCH   1   2
END_RES ARG D 557
BEGIN_RES GLU D 570
REMARK  3 active torsions:
REMARK  status: ('A' for Active; 'I' for Inactive)
REMARK    5  A    between atoms: CA   and  CB  
REMARK    6  A    between atoms: CB   and  CG  
REMARK    7  A    between atoms: CG   and  CD  
ROOT
ATOM     14  CA  GLU D 570     -18.033  -6.348 -13.375  1.00 32.92     0.160 C 
ENDROOT
BRANCH  14  15
ATOM     15  CB  GLU D 570     -19.500  -6.345 -13.794  1.00 32.92     0.043 C 
BRANCH  15  16
ATOM     16  CG  GLU D 570     -20.445  -5.543 -12.974  1.00 32.92     0.100 C 
BRANCH  16  17
ATOM     17  CD  GLU D 570     -21.721  -5.204 -13.708  1.00 32.92     0.185 C 
ATOM     18  OE1 GLU D 570     -22.316  -4.145 -13.430  1.00 32.92    -0.647 OA
ATOM     19  OE2 GLU D 570     -22.139  -6.014 -14.558  1.00 32.92    -0.647 OA
ENDBRANCH  16  17
ENDBRANCH  15  16
ENDBRANCH  14  15
END_RES GLU D 570
ENDMDL
MODEL 5
REMARK VINA RESULT:      -7.4      2.297      4.703
REMARK  16 active torsions:
REMARK  status: ('A' for Active; 'I' for Inactive)
REMARK       I    between atoms: C_2  and  N_4 
REMARK    1  A    between atoms: N_4  and  C_5 
REMARK    2  A    between atoms: C_5  and  C_6 
REMARK    3  A    between atoms: C_6  and  C_7 
REMARK       I    between atoms: C_7  and  N_10 
REMARK    4  A    between atoms: N_10  and  CA_11 
REMARK    5  A    between atoms: CA_11  and  CB_12 
REMARK    6  A    between atoms: CA_11  and  C_19 
REMARK    7  A    between atoms: CB_12  and  CG_13 
REMARK       I    between atoms: C_19  and  N_23 
REMARK    8  A    between atoms: N_23  and  CA_24 
REMARK    9  A    between atoms: CA_24  and  CB_25 
REMARK   10  A    between atoms: CA_24  and  C_27 
REMARK   11  A    between atoms: CB_25  and  OG_26 
REMARK       I    between atoms: C_27  and  N_31 
REMARK   12  A    between atoms: N_31  and  CA_32 
REMARK   13  A    between atoms: CA_32  and  CB_33 
REMARK   14  A    between atoms: CA_32  and  C_40 
REMARK   15  A    between atoms: CB_33  and  CG_34 
REMARK   16  A    between atoms: C_40  and  OXT_42 
ROOT
ATOM      1  C   HIS A   1     -22.588  -4.427  -7.531  1.00  0.00     0.221 C 
ATOM      2  O   HIS A   1     -23.508  -4.677  -6.750  1.00  0.00    -0.278 OA
ATOM      3  N   SER A   2     -22.808  -4.037  -8.852  1.00  0.00    -0.246 NA
ATOM      4  H   SER A   2     -22.052  -4.451  -9.393  1.00  0.00     0.131 HD
ENDROOT
BRANCH   3   5
ATOM      5  CA  SER A   2     -24.107  -4.196  -9.577  1.00  0.00     0.178 C 
BRANCH   5   6
ATOM      6  CB  SER A   2     -25.056  -2.987  -9.377  1.00  0.00     0.193 C 
BRANCH   6   7
ATOM      7  OG  SER A   2     -26.440  -3.186  -9.679  1.00  0.00    -0.399 OA
ATOM      8  H   SER A   2     -26.993  -2.787  -8.974  1.00  0.00     0.209 HD
ENDBRANCH   6   7
ENDBRANCH   5   6
BRANCH   5   9
ATOM      9  C   SER A   2     -24.024  -4.547 -11.207  1.00  0.00     0.238 C 
ATOM     10  O   SER A   2     -23.566  -5.623 -11.595  1.00  0.00    -0.272 OA
ATOM     11  N   HIS A   3     -24.371  -3.557 -12.141  1.00  0.00    -0.345 N 
ATOM     12  H   HIS A   3     -24.590  -2.662 -11.718  1.00  0.00     0.163 HD
BRANCH  11  13
ATOM     13  CA  HIS A   3     -24.141  -3.514 -13.659  1.00  0.00     0.188 C 
BRANCH  13  14
ATOM     14  CB  HIS A   3     -25.437  -4.005 -14.411  1.00  0.00     0.094 C 
BRANCH  14  15
ATOM     15  CG  HIS A   3     -25.309  -5.307 -15.150  1.00  0.00     0.028 A 
ATOM     16  CD2 HIS A   3     -26.179  -5.900 -16.019  1.00  0.00     0.114 A 
ATOM     17  NE2 HIS A   3     -25.768  -7.113 -16.482  1.00  0.00    -0.360 N 
ATOM     18  CE1 HIS A   3     -24.611  -7.289 -15.904  1.00  0.00     0.180 A 
ATOM     19  HE2 HIS A   3     -26.251  -7.736 -17.129  1.00  0.00     0.166 HD
ATOM     20  ND1 HIS A   3     -24.254  -6.194 -15.152  1.00  0.00    -0.354 N 
ATOM     21  HD1 HIS A   3     -23.372  -6.107 -14.674  1.00  0.00     0.166 HD
ENDBRANCH  14  15
ENDBRANCH  13  14
BRANCH  13  22
ATOM     22  C   HIS A   3     -23.599  -2.243 -14.504  1.00  0.00     0.163 C 
ATOM     23  O   HIS A   3     -22.716  -2.158 -15.342  1.00  0.00    -0.648 OA
BRANCH  22  24
ATOM     24  OXT HIS A   3     -24.178  -1.077 -14.164  1.00  0.00    -0.775 OA
ATOM     25  HXT HIS A   3     -23.572  -0.347 -13.872  1.00  0.00     0.167 HD
ENDBRANCH  22  24
ENDBRANCH  13  22
ENDBRANCH  11  13
ENDBRANCH   5   9
ENDBRANCH   3   5
BRANCH   1  26
ATOM     26  CA  HIS A   1     -21.103  -4.368  -7.038  1.00  0.00     0.176 C 
BRANCH  26  27
ATOM     27  N   HIS A   1     -20.954  -4.988  -5.722  1.00  0.00    -0.348 N 
HETATM   28  C   UNK A   0     -20.961  -6.371  -5.638  1.00  0.00     0.219 C 
HETATM   29  O   UNK A   0     -21.246  -7.090  -6.590  1.00  0.00    -0.274 OA
ATOM     30  H   HIS A   1     -20.779  -4.415  -4.905  1.00  0.00     0.163 HD
BRANCH  28  31
HETATM   31  C   UNK A   0     -20.491  -6.911  -4.314  1.00  0.00     0.122 C 
BRANCH  31  32
HETATM   32  C   UNK A   0     -21.501  -7.894  -3.676  1.00  0.00     0.132 C 
BRANCH  32  33
HETATM   33  N   UNK A   0     -21.485  -8.201  -2.209  1.00  0.00    -0.361 N 
HETATM   34  C   UNK A   0     -21.975  -7.376  -1.245  1.00  0.00     0.213 C 
HETATM   35  C   UNK A   0     -21.928  -7.767   0.229  1.00  0.00     0.117 C 
HETATM   36  O   UNK A   0     -22.578  -6.364  -1.589  1.00  0.00    -0.274 OA
HETATM   37  H   UNK A   0     -21.588  -9.185  -1.965  1.00  0.00     0.162 HD
ENDBRANCH  32  33
ENDBRANCH  31  32
ENDBRANCH  28  31
ENDBRANCH  26  27
BRANCH  26  38
ATOM     38  CB  HIS A   1     -20.213  -5.003  -8.118  1.00  0.00     0.092 C 
BRANCH  38  39
ATOM     39  CG  HIS A   1     -20.226  -4.316  -9.450  1.00  0.00     0.028 A 
ATOM     40  CD2 HIS A   1     -20.028  -3.010  -9.848  1.00  0.00     0.114 A 
ATOM     41  NE2 HIS A   1     -20.193  -2.880 -11.204  1.00  0.00    -0.360 N 
ATOM     42  CE1 HIS A   1     -20.520  -4.075 -11.633  1.00  0.00     0.180 A 
ATOM     43  HE2 HIS A   1     -20.084  -2.032 -11.760  1.00  0.00     0.166 HD
ATOM     44  ND1 HIS A   1     -20.534  -4.983 -10.613  1.00  0.00    -0.354 N 
ATOM     45  HD1 HIS A   1     -20.757  -5.964 -10.703  1.00  0.00     0.166 HD
ENDBRANCH  38  39
ENDBRANCH  26  38
ENDBRANCH   1  26
TORSDOF 16
BEGIN_RES ARG D 557
REMARK  4 active torsions:
REMARK  status: ('A' for Active; 'I' for Inactive)
REMARK    1  A    between atoms: CA   and  CB  
REMARK    2  A    between atoms: CB   and  CG  
REMARK    3  A    between atoms: CG   and  CD  
REMARK    4  A    between atoms: CD   and  NE  
REMARK       I    between atoms: NE   and  CZ  
REMARK       I    between atoms: CZ   and  NH1 
REMARK       I    between atoms: CZ   and  NH2 
ROOT
ATOM      1  CA  ARG D 557     -26.217   2.705 -17.014  1.00 35.49     0.159 C 
ENDROOT
BRANCH   1   2
ATOM      2  CB  ARG D 557     -26.789   1.319 -17.183  1.00 35.49     0.034 C 
BRANCH   2   3
ATOM      3  CG  ARG D 557     -28.230   1.227 -17.448  1.00 35.49     0.027 C 
BRANCH   3   4
ATOM      4  CD  ARG D 557     -28.920   0.318 -16.505  1.00 35.49     0.116 C 
BRANCH   4   5
ATOM      5  NE  ARG D 557     -29.334  -0.907 -17.136  1.00 35.49    -0.212 N 
ATOM      6  CZ  ARG D 557     -28.707  -2.060 -17.061  1.00 35.49     0.666 C 
ATOM      7  NH1 ARG D 557     -27.584  -2.214 -16.383  1.00 35.49    -0.235 N 
ATOM      8  NH2 ARG D 557     -29.238  -3.074 -17.681  1.00 35.49    -0.235 N 
ATOM      9  HH  ARG D 557     -27.219  -1.561 -15.966  1.00 35.49     0.174 HD
ATOM     10  HH  ARG D 557     -27.222  -2.990 -16.367  1.00 35.49     0.174 HD
ATOM     11  HH  ARG D 557     -29.967  -2.947 -18.104  1.00 35.49     0.174 HD
ATOM     12  HH  ARG D 557     -28.865  -3.835 -17.652  1.00 35.49     0.174 HD
ATOM     13  HE  ARG D 557     -30.009  -0.882 -17.653  1.00 35.49     0.178 HD
ENDBRANCH   4   5
ENDBRANCH   3   4
ENDBRANCH   2   3
ENDBRANCH   1   2
END_RES ARG D 557
BEGIN_RES GLU D 570
REMARK  3 active torsions:
REMARK  status: ('A' for Active; 'I' for Inactive)
REMARK    5  A    between atoms: CA   and  CB  
REMARK    6  A    between atoms: CB   and  CG  
REMARK    7  A    between atoms: CG   and  CD  
ROOT
ATOM     14  CA  GLU D 570     -18.033  -6.348 -13.375  1.00 32.92     0.160 C 
ENDROOT
BRANCH  14  15
ATOM     15  CB  GLU D 570     -19.500  -6.345 -13.794  1.00 32.92     0.043 C 
BRANCH  15  16
ATOM     16  CG  GLU D 570     -20.085  -7.633 -14.247  1.00 32.92     0.100 C 
BRANCH  16  17
ATOM     17  CD  GLU D 570     -20.863  -7.507 -15.536  1.00 32.92     0.185 C 
ATOM     18  OE1 GLU D 570     -21.176  -6.372 -15.945  1.00 32.92    -0.647 OA
ATOM     19  OE2 GLU D 570     -21.177  -8.554 -16.135  1.00 32.92    -0.647 OA
ENDBRANCH  16  17
ENDBRANCH  15  16
ENDBRANCH  14  15
END_RES GLU D 570
ENDMDL
MODEL 6
REMARK VINA RESULT:      -7.1      2.445      8.728
REMARK  16 active torsions:
REMARK  status: ('A' for Active; 'I' for Inactive)
REMARK       I    between atoms: C_2  and  N_4 
REMARK    1  A    between atoms: N_4  and  C_5 
REMARK    2  A    between atoms: C_5  and  C_6 
REMARK    3  A    between atoms: C_6  and  C_7 
REMARK       I    between atoms: C_7  and  N_10 
REMARK    4  A    between atoms: N_10  and  CA_11 
REMARK    5  A    between atoms: CA_11  and  CB_12 
REMARK    6  A    between atoms: CA_11  and  C_19 
REMARK    7  A    between atoms: CB_12  and  CG_13 
REMARK       I    between atoms: C_19  and  N_23 
REMARK    8  A    between atoms: N_23  and  CA_24 
REMARK    9  A    between atoms: CA_24  and  CB_25 
REMARK   10  A    between atoms: CA_24  and  C_27 
REMARK   11  A    between atoms: CB_25  and  OG_26 
REMARK       I    between atoms: C_27  and  N_31 
REMARK   12  A    between atoms: N_31  and  CA_32 
REMARK   13  A    between atoms: CA_32  and  CB_33 
REMARK   14  A    between atoms: CA_32  and  C_40 
REMARK   15  A    between atoms: CB_33  and  CG_34 
REMARK   16  A    between atoms: C_40  and  OXT_42 
ROOT
ATOM      1  C   HIS A   1     -21.702  -7.601  -2.497  1.00  0.00     0.221 C 
ATOM      2  O   HIS A   1     -21.881  -6.474  -2.031  1.00  0.00    -0.278 OA
ATOM      3  N   SER A   2     -21.730  -8.753  -1.710  1.00  0.00    -0.246 NA
ATOM      4  H   SER A   2     -21.033  -9.377  -2.110  1.00  0.00     0.131 HD
ENDROOT
BRANCH   3   5
ATOM      5  CA  SER A   2     -21.633  -8.761  -0.217  1.00  0.00     0.178 C 
BRANCH   5   6
ATOM      6  CB  SER A   2     -23.019  -8.684   0.472  1.00  0.00     0.193 C 
BRANCH   6   7
ATOM      7  OG  SER A   2     -23.731  -7.448   0.370  1.00  0.00    -0.399 OA
ATOM      8  H   SER A   2     -24.526  -7.476   0.945  1.00  0.00     0.209 HD
ENDBRANCH   6   7
ENDBRANCH   5   6
BRANCH   5   9
ATOM      9  C   SER A   2     -20.760 -10.004   0.475  1.00  0.00     0.238 C 
ATOM     10  O   SER A   2     -20.481  -9.982   1.676  1.00  0.00    -0.272 OA
ATOM     11  N   HIS A   3     -20.242 -11.020  -0.344  1.00  0.00    -0.345 N 
ATOM     12  H   HIS A   3     -20.403 -10.862  -1.332  1.00  0.00     0.163 HD
BRANCH  11  13
ATOM     13  CA  HIS A   3     -19.208 -12.110  -0.024  1.00  0.00     0.188 C 
BRANCH  13  14
ATOM     14  CB  HIS A   3     -19.572 -13.436  -0.796  1.00  0.00     0.094 C 
BRANCH  14  15
ATOM     15  CG  HIS A   3     -20.015 -13.259  -2.222  1.00  0.00     0.028 A 
ATOM     16  CD2 HIS A   3     -19.263 -13.109  -3.351  1.00  0.00     0.114 A 
ATOM     17  NE2 HIS A   3     -19.990 -12.927  -4.488  1.00  0.00    -0.360 N 
ATOM     18  CE1 HIS A   3     -21.227 -12.971  -4.074  1.00  0.00     0.180 A 
ATOM     19  HE2 HIS A   3     -19.648 -12.788  -5.438  1.00  0.00     0.166 HD
ATOM     20  ND1 HIS A   3     -21.297 -13.248  -2.728  1.00  0.00    -0.354 N 
ATOM     21  HD1 HIS A   3     -22.160 -13.382  -2.228  1.00  0.00     0.166 HD
ENDBRANCH  14  15
ENDBRANCH  13  14
BRANCH  13  22
ATOM     22  C   HIS A   3     -17.600 -11.960  -0.145  1.00  0.00     0.163 C 
ATOM     23  O   HIS A   3     -16.874 -11.903  -1.124  1.00  0.00    -0.648 OA
BRANCH  22  24
ATOM     24  OXT HIS A   3     -16.961 -11.976   1.039  1.00  0.00    -0.775 OA
ATOM     25  HXT HIS A   3     -16.310 -12.712   1.184  1.00  0.00     0.167 HD
ENDBRANCH  22  24
ENDBRANCH  13  22
ENDBRANCH  11  13
ENDBRANCH   5   9
ENDBRANCH   3   5
BRANCH   1  26
ATOM     26  CA  HIS A   1     -21.600  -7.830  -4.042  1.00  0.00     0.176 C 
BRANCH  26  27
ATOM     27  N   HIS A   1     -20.732  -6.836  -4.671  1.00  0.00    -0.348 N 
HETATM   28  C   UNK A   0     -21.318  -5.792  -5.369  1.00  0.00     0.219 C 
HETATM   29  O   UNK A   0     -22.519  -5.754  -5.616  1.00  0.00    -0.274 OA
ATOM     30  H   HIS A   1     -19.728  -6.876  -4.537  1.00  0.00     0.163 HD
BRANCH  28  31
HETATM   31  C   UNK A   0     -20.377  -4.667  -5.704  1.00  0.00     0.122 C 
BRANCH  31  32
HETATM   32  C   UNK A   0     -20.668  -4.034  -7.085  1.00  0.00     0.132 C 
BRANCH  32  33
HETATM   33  N   UNK A   0     -22.066  -3.747  -7.542  1.00  0.00    -0.361 N 
HETATM   34  C   UNK A   0     -22.512  -3.929  -8.815  1.00  0.00     0.213 C 
HETATM   35  C   UNK A   0     -23.957  -3.621  -9.198  1.00  0.00     0.117 C 
HETATM   36  O   UNK A   0     -21.767  -4.470  -9.626  1.00  0.00    -0.274 OA
HETATM   37  H   UNK A   0     -22.797  -3.910  -6.851  1.00  0.00     0.162 HD
ENDBRANCH  32  33
ENDBRANCH  31  32
ENDBRANCH  28  31
ENDBRANCH  26  27
BRANCH  26  38
ATOM     38  CB  HIS A   1     -21.149  -9.278  -4.285  1.00  0.00     0.092 C 
BRANCH  38  39
ATOM     39  CG  HIS A   1     -19.673  -9.476  -4.445  1.00  0.00     0.028 A 
ATOM     40  CD2 HIS A   1     -18.606  -9.432  -3.570  1.00  0.00     0.114 A 
ATOM     41  NE2 HIS A   1     -17.421  -9.643  -4.229  1.00  0.00    -0.360 N 
ATOM     42  CE1 HIS A   1     -17.744  -9.780  -5.492  1.00  0.00     0.180 A 
ATOM     43  HE2 HIS A   1     -16.487  -9.684  -3.821  1.00  0.00     0.166 HD
ATOM     44  ND1 HIS A   1     -19.095  -9.707  -5.672  1.00  0.00    -0.354 N 
ATOM     45  HD1 HIS A   1     -19.574  -9.784  -6.558  1.00  0.00     0.166 HD
ENDBRANCH  38  39
ENDBRANCH  26  38
ENDBRANCH   1  26
TORSDOF 16
BEGIN_RES ARG D 557
REMARK  4 active torsions:
REMARK  status: ('A' for Active; 'I' for Inactive)
REMARK    1  A    between atoms: CA   and  CB  
REMARK    2  A    between atoms: CB   and  CG  
REMARK    3  A    between atoms: CG   and  CD  
REMARK    4  A    between atoms: CD   and  NE  
REMARK       I    between atoms: NE   and  CZ  
REMARK       I    between atoms: CZ   and  NH1 
REMARK       I    between atoms: CZ   and  NH2 
ROOT
ATOM      1  CA  ARG D 557     -26.217   2.705 -17.014  1.00 35.49     0.159 C 
ENDROOT
BRANCH   1   2
ATOM      2  CB  ARG D 557     -26.789   1.319 -17.183  1.00 35.49     0.034 C 
BRANCH   2   3
ATOM      3  CG  ARG D 557     -25.866   0.195 -16.987  1.00 35.49     0.027 C 
BRANCH   3   4
ATOM      4  CD  ARG D 557     -26.300  -0.709 -15.898  1.00 35.49     0.116 C 
BRANCH   4   5
ATOM      5  NE  ARG D 557     -25.266  -0.915 -14.919  1.00 35.49    -0.212 N 
ATOM      6  CZ  ARG D 557     -24.961  -2.061 -14.352  1.00 35.49     0.666 C 
ATOM      7  NH1 ARG D 557     -25.607  -3.180 -14.623  1.00 35.49    -0.235 N 
ATOM      8  NH2 ARG D 557     -23.978  -2.066 -13.499  1.00 35.49    -0.235 N 
ATOM      9  HH  ARG D 557     -26.256  -3.200 -15.182  1.00 35.49     0.174 HD
ATOM     10  HH  ARG D 557     -25.363  -3.898 -14.224  1.00 35.49     0.174 HD
ATOM     11  HH  ARG D 557     -23.574  -1.330 -13.349  1.00 35.49     0.174 HD
ATOM     12  HH  ARG D 557     -23.750  -2.787 -13.116  1.00 35.49     0.174 HD
ATOM     13  HE  ARG D 557     -24.847  -0.233 -14.631  1.00 35.49     0.178 HD
ENDBRANCH   4   5
ENDBRANCH   3   4
ENDBRANCH   2   3
ENDBRANCH   1   2
END_RES ARG D 557
BEGIN_RES GLU D 570
REMARK  3 active torsions:
REMARK  status: ('A' for Active; 'I' for Inactive)
REMARK    5  A    between atoms: CA   and  CB  
REMARK    6  A    between atoms: CB   and  CG  
REMARK    7  A    between atoms: CG   and  CD  
ROOT
ATOM     14  CA  GLU D 570     -18.033  -6.348 -13.375  1.00 32.92     0.160 C 
ENDROOT
BRANCH  14  15
ATOM     15  CB  GLU D 570     -19.500  -6.345 -13.794  1.00 32.92     0.043 C 
BRANCH  15  16
ATOM     16  CG  GLU D 570     -20.456  -5.602 -12.933  1.00 32.92     0.100 C 
BRANCH  16  17
ATOM     17  CD  GLU D 570     -21.711  -5.188 -13.667  1.00 32.92     0.185 C 
ATOM     18  OE1 GLU D 570     -22.670  -4.732 -13.015  1.00 32.92    -0.647 OA
ATOM     19  OE2 GLU D 570     -21.740  -5.337 -14.904  1.00 32.92    -0.647 OA
ENDBRANCH  16  17
ENDBRANCH  15  16
ENDBRANCH  14  15
END_RES GLU D 570
ENDMDL
MODEL 7
REMARK VINA RESULT:      -6.9      2.781      5.464
REMARK  16 active torsions:
REMARK  status: ('A' for Active; 'I' for Inactive)
REMARK       I    between atoms: C_2  and  N_4 
REMARK    1  A    between atoms: N_4  and  C_5 
REMARK    2  A    between atoms: C_5  and  C_6 
REMARK    3  A    between atoms: C_6  and  C_7 
REMARK       I    between atoms: C_7  and  N_10 
REMARK    4  A    between atoms: N_10  and  CA_11 
REMARK    5  A    between atoms: CA_11  and  CB_12 
REMARK    6  A    between atoms: CA_11  and  C_19 
REMARK    7  A    between atoms: CB_12  and  CG_13 
REMARK       I    between atoms: C_19  and  N_23 
REMARK    8  A    between atoms: N_23  and  CA_24 
REMARK    9  A    between atoms: CA_24  and  CB_25 
REMARK   10  A    between atoms: CA_24  and  C_27 
REMARK   11  A    between atoms: CB_25  and  OG_26 
REMARK       I    between atoms: C_27  and  N_31 
REMARK   12  A    between atoms: N_31  and  CA_32 
REMARK   13  A    between atoms: CA_32  and  CB_33 
REMARK   14  A    between atoms: CA_32  and  C_40 
REMARK   15  A    between atoms: CB_33  and  CG_34 
REMARK   16  A    between atoms: C_40  and  OXT_42 
ROOT
ATOM      1  C   HIS A   1     -20.424  -9.523  -4.716  1.00  0.00     0.221 C 
ATOM      2  O   HIS A   1     -21.114  -9.529  -5.737  1.00  0.00    -0.278 OA
ATOM      3  N   SER A   2     -20.645  -8.635  -3.664  1.00  0.00    -0.246 NA
ATOM      4  H   SER A   2     -19.725  -8.410  -3.294  1.00  0.00     0.131 HD
ENDROOT
BRANCH   3   5
ATOM      5  CA  SER A   2     -21.478  -7.396  -3.762  1.00  0.00     0.178 C 
BRANCH   5   6
ATOM      6  CB  SER A   2     -21.651  -6.682  -2.397  1.00  0.00     0.193 C 
BRANCH   6   7
ATOM      7  OG  SER A   2     -22.704  -5.721  -2.292  1.00  0.00    -0.399 OA
ATOM      8  H   SER A   2     -22.567  -5.166  -1.494  1.00  0.00     0.209 HD
ENDBRANCH   6   7
ENDBRANCH   5   6
BRANCH   5   9
ATOM      9  C   SER A   2     -21.020  -6.267  -4.902  1.00  0.00     0.238 C 
ATOM     10  O   SER A   2     -20.524  -5.192  -4.557  1.00  0.00    -0.272 OA
ATOM     11  N   HIS A   3     -21.313  -6.499  -6.256  1.00  0.00    -0.345 N 
ATOM     12  H   HIS A   3     -21.855  -7.342  -6.412  1.00  0.00     0.163 HD
BRANCH  11  13
ATOM     13  CA  HIS A   3     -21.250  -5.540  -7.454  1.00  0.00     0.188 C 
BRANCH  13  14
ATOM     14  CB  HIS A   3     -22.406  -4.473  -7.346  1.00  0.00     0.094 C 
BRANCH  14  15
ATOM     15  CG  HIS A   3     -23.195  -4.237  -8.604  1.00  0.00     0.028 A 
ATOM     16  CD2 HIS A   3     -23.030  -4.780  -9.845  1.00  0.00     0.114 A 
ATOM     17  NE2 HIS A   3     -23.900  -4.312 -10.781  1.00  0.00    -0.360 N 
ATOM     18  CE1 HIS A   3     -24.639  -3.462 -10.120  1.00  0.00     0.180 A 
ATOM     19  HE2 HIS A   3     -23.962  -4.566 -11.767  1.00  0.00     0.166 HD
ATOM     20  ND1 HIS A   3     -24.303  -3.439  -8.786  1.00  0.00    -0.354 N 
ATOM     21  HD1 HIS A   3     -24.792  -2.893  -8.095  1.00  0.00     0.166 HD
ENDBRANCH  14  15
ENDBRANCH  13  14
BRANCH  13  22
ATOM     22  C   HIS A   3     -19.943  -4.722  -7.950  1.00  0.00     0.163 C 
ATOM     23  O   HIS A   3     -19.676  -4.222  -9.030  1.00  0.00    -0.648 OA
BRANCH  22  24
ATOM     24  OXT HIS A   3     -18.963  -4.651  -7.030  1.00  0.00    -0.775 OA
ATOM     25  HXT HIS A   3     -19.247  -4.599  -6.081  1.00  0.00     0.167 HD
ENDBRANCH  22  24
ENDBRANCH  13  22
ENDBRANCH  11  13
ENDBRANCH   5   9
ENDBRANCH   3   5
BRANCH   1  26
ATOM     26  CA  HIS A   1     -19.351 -10.635  -4.460  1.00  0.00     0.176 C 
BRANCH  26  27
ATOM     27  N   HIS A   1     -19.206 -11.512  -5.621  1.00  0.00    -0.348 N 
HETATM   28  C   UNK A   0     -18.184 -11.256  -6.520  1.00  0.00     0.219 C 
HETATM   29  O   UNK A   0     -17.500 -10.238  -6.472  1.00  0.00    -0.274 OA
ATOM     30  H   HIS A   1     -19.798 -12.328  -5.721  1.00  0.00     0.163 HD
BRANCH  28  31
HETATM   31  C   UNK A   0     -17.920 -12.375  -7.490  1.00  0.00     0.122 C 
BRANCH  31  32
HETATM   32  C   UNK A   0     -16.850 -13.370  -6.979  1.00  0.00     0.132 C 
BRANCH  32  33
HETATM   33  N   UNK A   0     -15.902 -13.011  -5.877  1.00  0.00    -0.361 N 
HETATM   34  C   UNK A   0     -14.679 -12.446  -6.067  1.00  0.00     0.213 C 
HETATM   35  C   UNK A   0     -13.775 -12.102  -4.887  1.00  0.00     0.117 C 
HETATM   36  O   UNK A   0     -14.364 -12.096  -7.200  1.00  0.00    -0.274 OA
HETATM   37  H   UNK A   0     -16.335 -12.707  -5.005  1.00  0.00     0.162 HD
ENDBRANCH  32  33
ENDBRANCH  31  32
ENDBRANCH  28  31
ENDBRANCH  26  27
BRANCH  26  38
ATOM     38  CB  HIS A   1     -18.041  -9.950  -4.042  1.00  0.00     0.092 C 
BRANCH  38  39
ATOM     39  CG  HIS A   1     -17.356 -10.542  -2.849  1.00  0.00     0.028 A 
ATOM     40  CD2 HIS A   1     -16.046 -10.560  -2.415  1.00  0.00     0.114 A 
ATOM     41  NE2 HIS A   1     -15.920 -11.287  -1.259  1.00  0.00    -0.360 N 
ATOM     42  CE1 HIS A   1     -17.124 -11.740  -0.999  1.00  0.00     0.180 A 
ATOM     43  HE2 HIS A   1     -15.071 -11.443  -0.716  1.00  0.00     0.166 HD
ATOM     44  ND1 HIS A   1     -18.030 -11.300  -1.920  1.00  0.00    -0.354 N 
ATOM     45  HD1 HIS A   1     -19.017 -11.520  -1.924  1.00  0.00     0.166 HD
ENDBRANCH  38  39
ENDBRANCH  26  38
ENDBRANCH   1  26
TORSDOF 16
BEGIN_RES ARG D 557
REMARK  4 active torsions:
REMARK  status: ('A' for Active; 'I' for Inactive)
REMARK    1  A    between atoms: CA   and  CB  
REMARK    2  A    between atoms: CB   and  CG  
REMARK    3  A    between atoms: CG   and  CD  
REMARK    4  A    between atoms: CD   and  NE  
REMARK       I    between atoms: NE   and  CZ  
REMARK       I    between atoms: CZ   and  NH1 
REMARK       I    between atoms: CZ   and  NH2 
ROOT
ATOM      1  CA  ARG D 557     -26.217   2.705 -17.014  1.00 35.49     0.159 C 
ENDROOT
BRANCH   1   2
ATOM      2  CB  ARG D 557     -26.789   1.319 -17.183  1.00 35.49     0.034 C 
BRANCH   2   3
ATOM      3  CG  ARG D 557     -28.158   1.106 -16.699  1.00 35.49     0.027 C 
BRANCH   3   4
ATOM      4  CD  ARG D 557     -28.791  -0.088 -17.304  1.00 35.49     0.116 C 
BRANCH   4   5
ATOM      5  NE  ARG D 557     -28.181  -1.312 -16.855  1.00 35.49    -0.212 N 
ATOM      6  CZ  ARG D 557     -28.662  -2.522 -17.036  1.00 35.49     0.666 C 
ATOM      7  NH1 ARG D 557     -29.804  -2.745 -17.660  1.00 35.49    -0.235 N 
ATOM      8  NH2 ARG D 557     -27.963  -3.520 -16.579  1.00 35.49    -0.235 N 
ATOM      9  HH  ARG D 557     -30.279  -2.103 -17.971  1.00 35.49     0.174 HD
ATOM     10  HH  ARG D 557     -30.066  -3.555 -17.752  1.00 35.49     0.174 HD
ATOM     11  HH  ARG D 557     -27.226  -3.346 -16.187  1.00 35.49     0.174 HD
ATOM     12  HH  ARG D 557     -28.239  -4.315 -16.681  1.00 35.49     0.174 HD
ATOM     13  HE  ARG D 557     -27.478  -1.257 -16.380  1.00 35.49     0.178 HD
ENDBRANCH   4   5
ENDBRANCH   3   4
ENDBRANCH   2   3
ENDBRANCH   1   2
END_RES ARG D 557
BEGIN_RES GLU D 570
REMARK  3 active torsions:
REMARK  status: ('A' for Active; 'I' for Inactive)
REMARK    5  A    between atoms: CA   and  CB  
REMARK    6  A    between atoms: CB   and  CG  
REMARK    7  A    between atoms: CG   and  CD  
ROOT
ATOM     14  CA  GLU D 570     -18.033  -6.348 -13.375  1.00 32.92     0.160 C 
ENDROOT
BRANCH  14  15
ATOM     15  CB  GLU D 570     -19.500  -6.345 -13.794  1.00 32.92     0.043 C 
BRANCH  15  16
ATOM     16  CG  GLU D 570     -20.447  -5.556 -12.965  1.00 32.92     0.100 C 
BRANCH  16  17
ATOM     17  CD  GLU D 570     -21.744  -5.252 -13.679  1.00 32.92     0.185 C 
ATOM     18  OE1 GLU D 570     -22.341  -4.189 -13.422  1.00 32.92    -0.647 OA
ATOM     19  OE2 GLU D 570     -22.175  -6.094 -14.491  1.00 32.92    -0.647 OA
ENDBRANCH  16  17
ENDBRANCH  15  16
ENDBRANCH  14  15
END_RES GLU D 570
ENDMDL
MODEL 8
REMARK VINA RESULT:      -6.9      2.493      7.930
REMARK  16 active torsions:
REMARK  status: ('A' for Active; 'I' for Inactive)
REMARK       I    between atoms: C_2  and  N_4 
REMARK    1  A    between atoms: N_4  and  C_5 
REMARK    2  A    between atoms: C_5  and  C_6 
REMARK    3  A    between atoms: C_6  and  C_7 
REMARK       I    between atoms: C_7  and  N_10 
REMARK    4  A    between atoms: N_10  and  CA_11 
REMARK    5  A    between atoms: CA_11  and  CB_12 
REMARK    6  A    between atoms: CA_11  and  C_19 
REMARK    7  A    between atoms: CB_12  and  CG_13 
REMARK       I    between atoms: C_19  and  N_23 
REMARK    8  A    between atoms: N_23  and  CA_24 
REMARK    9  A    between atoms: CA_24  and  CB_25 
REMARK   10  A    between atoms: CA_24  and  C_27 
REMARK   11  A    between atoms: CB_25  and  OG_26 
REMARK       I    between atoms: C_27  and  N_31 
REMARK   12  A    between atoms: N_31  and  CA_32 
REMARK   13  A    between atoms: CA_32  and  CB_33 
REMARK   14  A    between atoms: CA_32  and  C_40 
REMARK   15  A    between atoms: CB_33  and  CG_34 
REMARK   16  A    between atoms: C_40  and  OXT_42 
ROOT
ATOM      1  C   HIS A   1     -20.132  -8.636  -5.647  1.00  0.00     0.221 C 
ATOM      2  O   HIS A   1     -20.905  -9.595  -5.682  1.00  0.00    -0.278 OA
ATOM      3  N   SER A   2     -18.750  -8.779  -5.764  1.00  0.00    -0.246 NA
ATOM      4  H   SER A   2     -18.346  -8.069  -5.157  1.00  0.00     0.131 HD
ENDROOT
BRANCH   3   5
ATOM      5  CA  SER A   2     -18.015 -10.072  -5.602  1.00  0.00     0.178 C 
BRANCH   5   6
ATOM      6  CB  SER A   2     -16.495  -9.934  -5.870  1.00  0.00     0.193 C 
BRANCH   6   7
ATOM      7  OG  SER A   2     -15.626  -9.973  -4.735  1.00  0.00    -0.399 OA
ATOM      8  H   SER A   2     -16.159 -10.009  -3.911  1.00  0.00     0.209 HD
ENDBRANCH   6   7
ENDBRANCH   5   6
BRANCH   5   9
ATOM      9  C   SER A   2     -18.233 -10.889  -4.164  1.00  0.00     0.238 C 
ATOM     10  O   SER A   2     -17.826 -12.045  -4.030  1.00  0.00    -0.272 OA
ATOM     11  N   HIS A   3     -18.989 -10.292  -3.142  1.00  0.00    -0.345 N 
ATOM     12  H   HIS A   3     -19.402  -9.406  -3.411  1.00  0.00     0.163 HD
BRANCH  11  13
ATOM     13  CA  HIS A   3     -19.559 -10.905  -1.854  1.00  0.00     0.188 C 
BRANCH  13  14
ATOM     14  CB  HIS A   3     -20.778 -11.843  -2.201  1.00  0.00     0.094 C 
BRANCH  14  15
ATOM     15  CG  HIS A   3     -21.986 -11.696  -1.318  1.00  0.00     0.028 A 
ATOM     16  CD2 HIS A   3     -23.130 -10.982  -1.526  1.00  0.00     0.114 A 
ATOM     17  NE2 HIS A   3     -24.016 -11.030  -0.493  1.00  0.00    -0.360 N 
ATOM     18  CE1 HIS A   3     -23.427 -11.798   0.384  1.00  0.00     0.180 A 
ATOM     19  HE2 HIS A   3     -24.925 -10.574  -0.421  1.00  0.00     0.166 HD
ATOM     20  ND1 HIS A   3     -22.236 -12.288  -0.099  1.00  0.00    -0.354 N 
ATOM     21  HD1 HIS A   3     -21.658 -12.944   0.400  1.00  0.00     0.166 HD
ENDBRANCH  14  15
ENDBRANCH  13  14
BRANCH  13  22
ATOM     22  C   HIS A   3     -18.713 -11.691  -0.718  1.00  0.00     0.163 C 
ATOM     23  O   HIS A   3     -19.014 -12.025   0.415  1.00  0.00    -0.648 OA
BRANCH  22  24
ATOM     24  OXT HIS A   3     -17.439 -11.950  -1.070  1.00  0.00    -0.775 OA
ATOM     25  HXT HIS A   3     -17.298 -12.678  -1.730  1.00  0.00     0.167 HD
ENDBRANCH  22  24
ENDBRANCH  13  22
ENDBRANCH  11  13
ENDBRANCH   5   9
ENDBRANCH   3   5
BRANCH   1  26
ATOM     26  CA  HIS A   1     -20.670  -7.165  -5.639  1.00  0.00     0.176 C 
BRANCH  26  27
ATOM     27  N   HIS A   1     -20.668  -6.605  -4.289  1.00  0.00    -0.348 N 
HETATM   28  C   UNK A   0     -21.873  -6.196  -3.741  1.00  0.00     0.219 C 
HETATM   29  O   UNK A   0     -22.911  -6.135  -4.394  1.00  0.00    -0.274 OA
ATOM     30  H   HIS A   1     -19.814  -6.585  -3.746  1.00  0.00     0.163 HD
BRANCH  28  31
HETATM   31  C   UNK A   0     -21.821  -5.935  -2.260  1.00  0.00     0.122 C 
BRANCH  31  32
HETATM   32  C   UNK A   0     -22.308  -7.142  -1.422  1.00  0.00     0.132 C 
BRANCH  32  33
HETATM   33  N   UNK A   0     -21.390  -7.881  -0.496  1.00  0.00    -0.361 N 
HETATM   34  C   UNK A   0     -21.762  -8.399   0.706  1.00  0.00     0.213 C 
HETATM   35  C   UNK A   0     -20.766  -9.148   1.586  1.00  0.00     0.117 C 
HETATM   36  O   UNK A   0     -22.949  -8.369   1.015  1.00  0.00    -0.274 OA
HETATM   37  H   UNK A   0     -20.665  -8.437  -0.948  1.00  0.00     0.162 HD
ENDBRANCH  32  33
ENDBRANCH  31  32
ENDBRANCH  28  31
ENDBRANCH  26  27
BRANCH  26  38
ATOM     38  CB  HIS A   1     -19.845  -6.346  -6.643  1.00  0.00     0.092 C 
BRANCH  38  39
ATOM     39  CG  HIS A   1     -20.631  -5.432  -7.532  1.00  0.00     0.028 A 
ATOM     40  CD2 HIS A   1     -20.364  -4.815  -8.737  1.00  0.00     0.114 A 
ATOM     41  NE2 HIS A   1     -21.415  -4.025  -9.128  1.00  0.00    -0.360 N 
ATOM     42  CE1 HIS A   1     -22.303  -4.124  -8.168  1.00  0.00     0.180 A 
ATOM     43  HE2 HIS A   1     -21.490  -3.477  -9.985  1.00  0.00     0.166 HD
ATOM     44  ND1 HIS A   1     -21.884  -4.979  -7.190  1.00  0.00    -0.354 N 
ATOM     45  HD1 HIS A   1     -22.400  -5.212  -6.353  1.00  0.00     0.166 HD
ENDBRANCH  38  39
ENDBRANCH  26  38
ENDBRANCH   1  26
TORSDOF 16
BEGIN_RES ARG D 557
REMARK  4 active torsions:
REMARK  status: ('A' for Active; 'I' for Inactive)
REMARK    1  A    between atoms: CA   and  CB  
REMARK    2  A    between atoms: CB   and  CG  
REMARK    3  A    between atoms: CG   and  CD  
REMARK    4  A    between atoms: CD   and  NE  
REMARK       I    between atoms: NE   and  CZ  
REMARK       I    between atoms: CZ   and  NH1 
REMARK       I    between atoms: CZ   and  NH2 
ROOT
ATOM      1  CA  ARG D 557     -26.217   2.705 -17.014  1.00 35.49     0.159 C 
ENDROOT
BRANCH   1   2
ATOM      2  CB  ARG D 557     -26.789   1.319 -17.183  1.00 35.49     0.034 C 
BRANCH   2   3
ATOM      3  CG  ARG D 557     -28.233   1.169 -16.964  1.00 35.49     0.027 C 
BRANCH   3   4
ATOM      4  CD  ARG D 557     -28.621  -0.236 -16.704  1.00 35.49     0.116 C 
BRANCH   4   5
ATOM      5  NE  ARG D 557     -27.589  -0.965 -16.015  1.00 35.49    -0.212 N 
ATOM      6  CZ  ARG D 557     -27.393  -2.263 -16.077  1.00 35.49     0.666 C 
ATOM      7  NH1 ARG D 557     -28.162  -3.063 -16.793  1.00 35.49    -0.235 N 
ATOM      8  NH2 ARG D 557     -26.394  -2.752 -15.402  1.00 35.49    -0.235 N 
ATOM      9  HH  ARG D 557     -28.824  -2.762 -17.247  1.00 35.49     0.174 HD
ATOM     10  HH  ARG D 557     -27.984  -3.901 -16.797  1.00 35.49     0.174 HD
ATOM     11  HH  ARG D 557     -25.910  -2.211 -14.954  1.00 35.49     0.174 HD
ATOM     12  HH  ARG D 557     -26.234  -3.585 -15.420  1.00 35.49     0.174 HD
ATOM     13  HE  ARG D 557     -27.092  -0.538 -15.473  1.00 35.49     0.178 HD
ENDBRANCH   4   5
ENDBRANCH   3   4
ENDBRANCH   2   3
ENDBRANCH   1   2
END_RES ARG D 557
BEGIN_RES GLU D 570
REMARK  3 active torsions:
REMARK  status: ('A' for Active; 'I' for Inactive)
REMARK    5  A    between atoms: CA   and  CB  
REMARK    6  A    between atoms: CB   and  CG  
REMARK    7  A    between atoms: CG   and  CD  
ROOT
ATOM     14  CA  GLU D 570     -18.033  -6.348 -13.375  1.00 32.92     0.160 C 
ENDROOT
BRANCH  14  15
ATOM     15  CB  GLU D 570     -19.500  -6.345 -13.794  1.00 32.92     0.043 C 
BRANCH  15  16
ATOM     16  CG  GLU D 570     -20.452  -5.578 -12.949  1.00 32.92     0.100 C 
BRANCH  16  17
ATOM     17  CD  GLU D 570     -21.697  -5.160 -13.695  1.00 32.92     0.185 C 
ATOM     18  OE1 GLU D 570     -22.698  -4.797 -13.047  1.00 32.92    -0.647 OA
ATOM     19  OE2 GLU D 570     -21.678  -5.212 -14.941  1.00 32.92    -0.647 OA
ENDBRANCH  16  17
ENDBRANCH  15  16
ENDBRANCH  14  15
END_RES GLU D 570
ENDMDL
MODEL 9
REMARK VINA RESULT:      -6.9      2.908      8.753
REMARK  16 active torsions:
REMARK  status: ('A' for Active; 'I' for Inactive)
REMARK       I    between atoms: C_2  and  N_4 
REMARK    1  A    between atoms: N_4  and  C_5 
REMARK    2  A    between atoms: C_5  and  C_6 
REMARK    3  A    between atoms: C_6  and  C_7 
REMARK       I    between atoms: C_7  and  N_10 
REMARK    4  A    between atoms: N_10  and  CA_11 
REMARK    5  A    between atoms: CA_11  and  CB_12 
REMARK    6  A    between atoms: CA_11  and  C_19 
REMARK    7  A    between atoms: CB_12  and  CG_13 
REMARK       I    between atoms: C_19  and  N_23 
REMARK    8  A    between atoms: N_23  and  CA_24 
REMARK    9  A    between atoms: CA_24  and  CB_25 
REMARK   10  A    between atoms: CA_24  and  C_27 
REMARK   11  A    between atoms: CB_25  and  OG_26 
REMARK       I    between atoms: C_27  and  N_31 
REMARK   12  A    between atoms: N_31  and  CA_32 
REMARK   13  A    between atoms: CA_32  and  CB_33 
REMARK   14  A    between atoms: CA_32  and  C_40 
REMARK   15  A    between atoms: CB_33  and  CG_34 
REMARK   16  A    between atoms: C_40  and  OXT_42 
ROOT
ATOM      1  C   HIS A   1     -21.618  -6.902  -2.703  1.00  0.00     0.221 C 
ATOM      2  O   HIS A   1     -22.089  -5.812  -2.376  1.00  0.00    -0.278 OA
ATOM      3  N   SER A   2     -21.535  -7.981  -1.823  1.00  0.00    -0.246 NA
ATOM      4  H   SER A   2     -20.674  -8.467  -2.061  1.00  0.00     0.131 HD
ENDROOT
BRANCH   3   5
ATOM      5  CA  SER A   2     -21.672  -7.874  -0.337  1.00  0.00     0.178 C 
BRANCH   5   6
ATOM      6  CB  SER A   2     -23.135  -7.629   0.113  1.00  0.00     0.193 C 
BRANCH   6   7
ATOM      7  OG  SER A   2     -23.869  -8.759   0.590  1.00  0.00    -0.399 OA
ATOM      8  H   SER A   2     -23.983  -8.693   1.563  1.00  0.00     0.209 HD
ENDBRANCH   6   7
ENDBRANCH   5   6
BRANCH   5   9
ATOM      9  C   SER A   2     -21.035  -9.120   0.571  1.00  0.00     0.238 C 
ATOM     10  O   SER A   2     -20.862  -8.988   1.785  1.00  0.00    -0.272 OA
ATOM     11  N   HIS A   3     -20.587 -10.283  -0.076  1.00  0.00    -0.345 N 
ATOM     12  H   HIS A   3     -20.638 -10.227  -1.087  1.00  0.00     0.163 HD
BRANCH  11  13
ATOM     13  CA  HIS A   3     -19.738 -11.444   0.463  1.00  0.00     0.188 C 
BRANCH  13  14
ATOM     14  CB  HIS A   3     -20.634 -12.730   0.629  1.00  0.00     0.094 C 
BRANCH  14  15
ATOM     15  CG  HIS A   3     -21.851 -12.795  -0.251  1.00  0.00     0.028 A 
ATOM     16  CD2 HIS A   3     -21.952 -13.148  -1.566  1.00  0.00     0.114 A 
ATOM     17  NE2 HIS A   3     -23.211 -13.055  -2.075  1.00  0.00    -0.360 N 
ATOM     18  CE1 HIS A   3     -23.925 -12.643  -1.063  1.00  0.00     0.180 A 
ATOM     19  HE2 HIS A   3     -23.523 -13.259  -3.025  1.00  0.00     0.166 HD
ATOM     20  ND1 HIS A   3     -23.165 -12.546   0.080  1.00  0.00    -0.354 N 
ATOM     21  HD1 HIS A   3     -23.540 -12.301   0.982  1.00  0.00     0.166 HD
ENDBRANCH  14  15
ENDBRANCH  13  14
BRANCH  13  22
ATOM     22  C   HIS A   3     -18.334 -11.964  -0.156  1.00  0.00     0.163 C 
ATOM     23  O   HIS A   3     -18.074 -12.459  -1.240  1.00  0.00    -0.648 OA
BRANCH  22  24
ATOM     24  OXT HIS A   3     -17.303 -11.903   0.707  1.00  0.00    -0.775 OA
ATOM     25  HXT HIS A   3     -16.709 -12.698   0.748  1.00  0.00     0.167 HD
ENDBRANCH  22  24
ENDBRANCH  13  22
ENDBRANCH  11  13
ENDBRANCH   5   9
ENDBRANCH   3   5
BRANCH   1  26
ATOM     26  CA  HIS A   1     -21.233  -7.202  -4.191  1.00  0.00     0.176 C 
BRANCH  26  27
ATOM     27  N   HIS A   1     -21.358  -8.626  -4.497  1.00  0.00    -0.348 N 
HETATM   28  C   UNK A   0     -20.334  -9.244  -5.197  1.00  0.00     0.219 C 
HETATM   29  O   UNK A   0     -19.410  -8.619  -5.708  1.00  0.00    -0.274 OA
ATOM     30  H   HIS A   1     -22.143  -9.158  -4.141  1.00  0.00     0.163 HD
BRANCH  28  31
HETATM   31  C   UNK A   0     -20.400 -10.748  -5.188  1.00  0.00     0.122 C 
BRANCH  31  32
HETATM   32  C   UNK A   0     -19.195 -11.395  -4.463  1.00  0.00     0.132 C 
BRANCH  32  33
HETATM   33  N   UNK A   0     -18.288 -10.598  -3.575  1.00  0.00    -0.361 N 
HETATM   34  C   UNK A   0     -16.982 -10.333  -3.848  1.00  0.00     0.213 C 
HETATM   35  C   UNK A   0     -16.127  -9.504  -2.894  1.00  0.00     0.117 C 
HETATM   36  O   UNK A   0     -16.533 -10.660  -4.942  1.00  0.00    -0.274 OA
HETATM   37  H   UNK A   0     -18.734  -9.844  -3.054  1.00  0.00     0.162 HD
ENDBRANCH  32  33
ENDBRANCH  31  32
ENDBRANCH  28  31
ENDBRANCH  26  27
BRANCH  26  38
ATOM     38  CB  HIS A   1     -22.087  -6.304  -5.099  1.00  0.00     0.092 C 
BRANCH  38  39
ATOM     39  CG  HIS A   1     -21.326  -5.475  -6.087  1.00  0.00     0.028 A 
ATOM     40  CD2 HIS A   1     -21.698  -4.540  -7.032  1.00  0.00     0.114 A 
ATOM     41  NE2 HIS A   1     -20.609  -4.088  -7.733  1.00  0.00    -0.360 N 
ATOM     42  CE1 HIS A   1     -19.585  -4.755  -7.255  1.00  0.00     0.180 A 
ATOM     43  HE2 HIS A   1     -20.598  -3.383  -8.469  1.00  0.00     0.166 HD
ATOM     44  ND1 HIS A   1     -19.965  -5.592  -6.245  1.00  0.00    -0.354 N 
ATOM     45  HD1 HIS A   1     -19.349  -6.204  -5.728  1.00  0.00     0.166 HD
ENDBRANCH  38  39
ENDBRANCH  26  38
ENDBRANCH   1  26
TORSDOF 16
BEGIN_RES ARG D 557
REMARK  4 active torsions:
REMARK  status: ('A' for Active; 'I' for Inactive)
REMARK    1  A    between atoms: CA   and  CB  
REMARK    2  A    between atoms: CB   and  CG  
REMARK    3  A    between atoms: CG   and  CD  
REMARK    4  A    between atoms: CD   and  NE  
REMARK       I    between atoms: NE   and  CZ  
REMARK       I    between atoms: CZ   and  NH1 
REMARK       I    between atoms: CZ   and  NH2 
ROOT
ATOM      1  CA  ARG D 557     -26.217   2.705 -17.014  1.00 35.49     0.159 C 
ENDROOT
BRANCH   1   2
ATOM      2  CB  ARG D 557     -26.789   1.319 -17.183  1.00 35.49     0.034 C 
BRANCH   2   3
ATOM      3  CG  ARG D 557     -28.235   1.225 -17.421  1.00 35.49     0.027 C 
BRANCH   3   4
ATOM      4  CD  ARG D 557     -28.901   0.291 -16.484  1.00 35.49     0.116 C 
BRANCH   4   5
ATOM      5  NE  ARG D 557     -29.296  -0.933 -17.129  1.00 35.49    -0.212 N 
ATOM      6  CZ  ARG D 557     -28.673  -2.086 -17.036  1.00 35.49     0.666 C 
ATOM      7  NH1 ARG D 557     -27.572  -2.242 -16.325  1.00 35.49    -0.235 N 
ATOM      8  NH2 ARG D 557     -29.186  -3.099 -17.672  1.00 35.49    -0.235 N 
ATOM      9  HH  ARG D 557     -27.218  -1.590 -15.896  1.00 35.49     0.174 HD
ATOM     10  HH  ARG D 557     -27.211  -3.018 -16.298  1.00 35.49     0.174 HD
ATOM     11  HH  ARG D 557     -29.902  -2.971 -18.117  1.00 35.49     0.174 HD
ATOM     12  HH  ARG D 557     -28.815  -3.860 -17.632  1.00 35.49     0.174 HD
ATOM     13  HE  ARG D 557     -29.955  -0.907 -17.666  1.00 35.49     0.178 HD
ENDBRANCH   4   5
ENDBRANCH   3   4
ENDBRANCH   2   3
ENDBRANCH   1   2
END_RES ARG D 557
BEGIN_RES GLU D 570
REMARK  3 active torsions:
REMARK  status: ('A' for Active; 'I' for Inactive)
REMARK    5  A    between atoms: CA   and  CB  
REMARK    6  A    between atoms: CB   and  CG  
REMARK    7  A    between atoms: CG   and  CD  
ROOT
ATOM     14  CA  GLU D 570     -18.033  -6.348 -13.375  1.00 32.92     0.160 C 
ENDROOT
BRANCH  14  15
ATOM     15  CB  GLU D 570     -19.500  -6.345 -13.794  1.00 32.92     0.043 C 
BRANCH  15  16
ATOM     16  CG  GLU D 570     -19.801  -6.114 -15.230  1.00 32.92     0.100 C 
BRANCH  16  17
ATOM     17  CD  GLU D 570     -21.105  -5.382 -15.449  1.00 32.92     0.185 C 
ATOM     18  OE1 GLU D 570     -21.449  -5.094 -16.611  1.00 32.92    -0.647 OA
ATOM     19  OE2 GLU D 570     -21.780  -5.078 -14.446  1.00 32.92    -0.647 OA
ENDBRANCH  16  17
ENDBRANCH  15  16
ENDBRANCH  14  15
END_RES GLU D 570
ENDMDL
