MODEL 1
REMARK VINA RESULT:      -7.3      0.000      0.000
REMARK  20 active torsions:
REMARK  status: ('A' for Active; 'I' for Inactive)
REMARK    1  A    between atoms: C_2  and  C_3 
REMARK    2  A    between atoms: C_3  and  C_4 
REMARK    3  A    between atoms: C_4  and  C_5 
REMARK    4  A    between atoms: C_5  and  C_6 
REMARK    5  A    between atoms: C_6  and  C_7 
REMARK    6  A    between atoms: C_7  and  C_8 
REMARK    7  A    between atoms: C_8  and  C_9 
REMARK    8  A    between atoms: C_9  and  C_10 
REMARK    9  A    between atoms: C_10  and  C_11 
REMARK   10  A    between atoms: C_11  and  C_12 
REMARK   11  A    between atoms: C_12  and  C_13 
REMARK   12  A    between atoms: C_13  and  C_14 
REMARK   13  A    between atoms: C_14  and  C_15 
REMARK   14  A    between atoms: C_15  and  C_16 
REMARK   15  A    between atoms: C_16  and  C_17 
REMARK   16  A    between atoms: C_17  and  C_18 
REMARK   17  A    between atoms: C_18  and  O_20 
REMARK   18  A    between atoms: O_20  and  C_21 
REMARK   19  A    between atoms: C_21  and  C_22 
REMARK   20  A    between atoms: C_22  and  O_24 
ROOT
HETATM    1  C   UNL     1     -20.714  -4.371  -6.438  1.00  0.00     0.000 C 
ENDROOT
BRANCH   1   2
HETATM    2  C   UNL     1     -19.876  -5.434  -7.126  1.00  0.00     0.000 C 
BRANCH   2   3
HETATM    3  C   UNL     1     -19.838  -6.695  -6.279  1.00  0.00     0.000 C 
BRANCH   3   4
HETATM    4  C   UNL     1     -21.116  -6.817  -5.469  1.00  0.00     0.000 C 
BRANCH   4   5
HETATM    5  C   UNL     1     -21.186  -8.185  -4.814  1.00  0.00     0.000 C 
BRANCH   5   6
HETATM    6  C   UNL     1     -21.527  -8.036  -3.343  1.00  0.00     0.000 C 
BRANCH   6   7
HETATM    7  C   UNL     1     -21.946  -6.606  -3.052  1.00  0.00     0.000 C 
BRANCH   7   8
HETATM    8  C   UNL     1     -22.145  -6.420  -1.558  1.00  0.00     0.000 C 
BRANCH   8   9
HETATM    9  C   UNL     1     -21.682  -7.660  -0.815  1.00  0.00     0.000 C 
BRANCH   9  10
HETATM   10  C   UNL     1     -22.491  -7.839   0.459  1.00  0.00     0.000 C 
BRANCH  10  11
HETATM   11  C   UNL     1     -23.492  -8.971   0.290  1.00  0.00    -0.000 C 
BRANCH  11  12
HETATM   12  C   UNL     1     -22.816 -10.199  -0.301  1.00  0.00    -0.005 C 
HETATM   13  C   UNL     1     -23.848 -11.147  -0.877  1.00  0.00     0.005 C 
ENDBRANCH  11  12
ENDBRANCH  10  11
ENDBRANCH   9  10
ENDBRANCH   8   9
ENDBRANCH   7   8
ENDBRANCH   6   7
ENDBRANCH   5   6
ENDBRANCH   4   5
ENDBRANCH   3   4
ENDBRANCH   2   3
ENDBRANCH   1   2
BRANCH   1  14
HETATM   14  C   UNL     1     -21.801  -3.865  -7.374  1.00  0.00     0.000 C 
BRANCH  14  15
HETATM   15  C   UNL     1     -21.941  -4.793  -8.576  1.00  0.00     0.000 C 
BRANCH  15  16
HETATM   16  C   UNL     1     -21.970  -3.982  -9.864  1.00  0.00     0.010 C 
BRANCH  16  17
HETATM   17  C   UNL     1     -23.056  -4.459 -10.828  1.00  0.00     0.111 C 
BRANCH  17  18
HETATM   18  C   UNL     1     -23.944  -3.304 -11.211  1.00  0.00     0.258 C 
HETATM   19  O   UNL     1     -25.112  -3.177 -10.840  1.00  0.00    -0.265 OA
BRANCH  18  20
HETATM   20  O   UNL     1     -23.313  -2.477 -12.089  1.00  0.00    -0.319 OA
BRANCH  20  21
HETATM   21  C   UNL     1     -22.696  -3.170 -13.187  1.00  0.00     0.210 C 
BRANCH  21  22
HETATM   22  C   UNL     1     -23.352  -2.858 -14.533  1.00  0.00     0.138 C 
HETATM   23  C   UNL     1     -24.392  -1.760 -14.401  1.00  0.00     0.041 C 
BRANCH  22  24
HETATM   24  O   UNL     1     -22.365  -2.475 -15.489  1.00  0.00    -0.394 OA
HETATM   25  H   UNL     1     -21.897  -1.693 -15.152  1.00  0.00     0.210 HD
ENDBRANCH  22  24
ENDBRANCH  21  22
ENDBRANCH  20  21
ENDBRANCH  18  20
ENDBRANCH  17  18
ENDBRANCH  16  17
ENDBRANCH  15  16
ENDBRANCH  14  15
ENDBRANCH   1  14
TORSDOF 20
BEGIN_RES ARG D 557
REMARK  4 active torsions:
REMARK  status: ('A' for Active; 'I' for Inactive)
REMARK    1  A    between atoms: CA   and  CB  
REMARK    2  A    between atoms: CB   and  CG  
REMARK    3  A    between atoms: CG   and  CD  
REMARK    4  A    between atoms: CD   and  NE  
REMARK       I    between atoms: NE   and  CZ  
REMARK       I    between atoms: CZ   and  NH1 
REMARK       I    between atoms: CZ   and  NH2 
ROOT
ATOM      1  CA  ARG D 557     -26.217   2.705 -17.014  1.00 35.49     0.159 C 
ENDROOT
BRANCH   1   2
ATOM      2  CB  ARG D 557     -26.789   1.319 -17.183  1.00 35.49     0.034 C 
BRANCH   2   3
ATOM      3  CG  ARG D 557     -28.148   1.098 -16.673  1.00 35.49     0.027 C 
BRANCH   3   4
ATOM      4  CD  ARG D 557     -28.787  -0.097 -17.269  1.00 35.49     0.116 C 
BRANCH   4   5
ATOM      5  NE  ARG D 557     -28.166  -1.319 -16.832  1.00 35.49    -0.212 N 
ATOM      6  CZ  ARG D 557     -28.635  -2.532 -17.026  1.00 35.49     0.666 C 
ATOM      7  NH1 ARG D 557     -29.774  -2.759 -17.653  1.00 35.49    -0.235 N 
ATOM      8  NH2 ARG D 557     -27.927  -3.528 -16.579  1.00 35.49    -0.235 N 
ATOM      9  HH  ARG D 557     -30.255  -2.119 -17.957  1.00 35.49     0.174 HD
ATOM     10  HH  ARG D 557     -30.029  -3.571 -17.753  1.00 35.49     0.174 HD
ATOM     11  HH  ARG D 557     -27.191  -3.351 -16.184  1.00 35.49     0.174 HD
ATOM     12  HH  ARG D 557     -28.195  -4.325 -16.689  1.00 35.49     0.174 HD
ATOM     13  HE  ARG D 557     -27.463  -1.262 -16.356  1.00 35.49     0.178 HD
ENDBRANCH   4   5
ENDBRANCH   3   4
ENDBRANCH   2   3
ENDBRANCH   1   2
END_RES ARG D 557
BEGIN_RES GLU D 570
REMARK  3 active torsions:
REMARK  status: ('A' for Active; 'I' for Inactive)
REMARK    5  A    between atoms: CA   and  CB  
REMARK    6  A    between atoms: CB   and  CG  
REMARK    7  A    between atoms: CG   and  CD  
ROOT
ATOM     14  CA  GLU D 570     -18.033  -6.348 -13.375  1.00 32.92     0.160 C 
ENDROOT
BRANCH  14  15
ATOM     15  CB  GLU D 570     -19.500  -6.345 -13.794  1.00 32.92     0.043 C 
BRANCH  15  16
ATOM     16  CG  GLU D 570     -19.808  -6.004 -15.207  1.00 32.92     0.100 C 
BRANCH  16  17
ATOM     17  CD  GLU D 570     -21.288  -5.844 -15.466  1.00 32.92     0.185 C 
ATOM     18  OE1 GLU D 570     -22.100  -6.350 -14.668  1.00 32.92    -0.647 OA
ATOM     19  OE2 GLU D 570     -21.638  -5.219 -16.487  1.00 32.92    -0.647 OA
ENDBRANCH  16  17
ENDBRANCH  15  16
ENDBRANCH  14  15
END_RES GLU D 570
ENDMDL
MODEL 2
REMARK VINA RESULT:      -7.0      1.975      2.451
REMARK  20 active torsions:
REMARK  status: ('A' for Active; 'I' for Inactive)
REMARK    1  A    between atoms: C_2  and  C_3 
REMARK    2  A    between atoms: C_3  and  C_4 
REMARK    3  A    between atoms: C_4  and  C_5 
REMARK    4  A    between atoms: C_5  and  C_6 
REMARK    5  A    between atoms: C_6  and  C_7 
REMARK    6  A    between atoms: C_7  and  C_8 
REMARK    7  A    between atoms: C_8  and  C_9 
REMARK    8  A    between atoms: C_9  and  C_10 
REMARK    9  A    between atoms: C_10  and  C_11 
REMARK   10  A    between atoms: C_11  and  C_12 
REMARK   11  A    between atoms: C_12  and  C_13 
REMARK   12  A    between atoms: C_13  and  C_14 
REMARK   13  A    between atoms: C_14  and  C_15 
REMARK   14  A    between atoms: C_15  and  C_16 
REMARK   15  A    between atoms: C_16  and  C_17 
REMARK   16  A    between atoms: C_17  and  C_18 
REMARK   17  A    between atoms: C_18  and  O_20 
REMARK   18  A    between atoms: O_20  and  C_21 
REMARK   19  A    between atoms: C_21  and  C_22 
REMARK   20  A    between atoms: C_22  and  O_24 
ROOT
HETATM    1  C   UNL     1     -20.788  -4.029  -6.806  1.00  0.00     0.000 C 
ENDROOT
BRANCH   1   2
HETATM    2  C   UNL     1     -20.061  -4.890  -5.788  1.00  0.00     0.000 C 
BRANCH   2   3
HETATM    3  C   UNL     1     -20.156  -6.354  -6.181  1.00  0.00     0.000 C 
BRANCH   3   4
HETATM    4  C   UNL     1     -20.716  -7.168  -5.028  1.00  0.00     0.000 C 
BRANCH   4   5
HETATM    5  C   UNL     1     -21.711  -6.335  -4.241  1.00  0.00     0.000 C 
BRANCH   5   6
HETATM    6  C   UNL     1     -21.289  -6.264  -2.785  1.00  0.00     0.000 C 
BRANCH   6   7
HETATM    7  C   UNL     1     -21.914  -7.410  -2.010  1.00  0.00     0.000 C 
BRANCH   7   8
HETATM    8  C   UNL     1     -22.364  -6.923  -0.643  1.00  0.00     0.000 C 
BRANCH   8   9
HETATM    9  C   UNL     1     -22.233  -8.042   0.375  1.00  0.00     0.000 C 
BRANCH   9  10
HETATM   10  C   UNL     1     -23.386  -9.020   0.227  1.00  0.00     0.000 C 
BRANCH  10  11
HETATM   11  C   UNL     1     -22.861 -10.396  -0.151  1.00  0.00    -0.000 C 
BRANCH  11  12
HETATM   12  C   UNL     1     -23.946 -11.213  -0.835  1.00  0.00    -0.005 C 
HETATM   13  C   UNL     1     -23.788 -12.684  -0.508  1.00  0.00     0.005 C 
ENDBRANCH  11  12
ENDBRANCH  10  11
ENDBRANCH   9  10
ENDBRANCH   8   9
ENDBRANCH   7   8
ENDBRANCH   6   7
ENDBRANCH   5   6
ENDBRANCH   4   5
ENDBRANCH   3   4
ENDBRANCH   2   3
ENDBRANCH   1   2
BRANCH   1  14
HETATM   14  C   UNL     1     -20.069  -4.071  -8.146  1.00  0.00     0.000 C 
BRANCH  14  15
HETATM   15  C   UNL     1     -21.078  -4.117  -9.289  1.00  0.00     0.000 C 
BRANCH  15  16
HETATM   16  C   UNL     1     -22.448  -3.673  -8.797  1.00  0.00     0.010 C 
BRANCH  16  17
HETATM   17  C   UNL     1     -23.577  -4.521  -9.381  1.00  0.00     0.111 C 
BRANCH  17  18
HETATM   18  C   UNL     1     -24.470  -3.664 -10.240  1.00  0.00     0.258 C 
HETATM   19  O   UNL     1     -25.442  -3.036  -9.816  1.00  0.00    -0.265 OA
BRANCH  18  20
HETATM   20  O   UNL     1     -24.114  -3.752 -11.550  1.00  0.00    -0.319 OA
BRANCH  20  21
HETATM   21  C   UNL     1     -23.622  -5.050 -11.925  1.00  0.00     0.210 C 
BRANCH  21  22
HETATM   22  C   UNL     1     -22.472  -4.984 -12.932  1.00  0.00     0.138 C 
HETATM   23  C   UNL     1     -22.973  -5.152 -14.355  1.00  0.00     0.041 C 
BRANCH  22  24
HETATM   24  O   UNL     1     -21.777  -3.744 -12.809  1.00  0.00    -0.394 OA
HETATM   25  H   UNL     1     -21.161  -3.808 -12.060  1.00  0.00     0.210 HD
ENDBRANCH  22  24
ENDBRANCH  21  22
ENDBRANCH  20  21
ENDBRANCH  18  20
ENDBRANCH  17  18
ENDBRANCH  16  17
ENDBRANCH  15  16
ENDBRANCH  14  15
ENDBRANCH   1  14
TORSDOF 20
BEGIN_RES ARG D 557
REMARK  4 active torsions:
REMARK  status: ('A' for Active; 'I' for Inactive)
REMARK    1  A    between atoms: CA   and  CB  
REMARK    2  A    between atoms: CB   and  CG  
REMARK    3  A    between atoms: CG   and  CD  
REMARK    4  A    between atoms: CD   and  NE  
REMARK       I    between atoms: NE   and  CZ  
REMARK       I    between atoms: CZ   and  NH1 
REMARK       I    between atoms: CZ   and  NH2 
ROOT
ATOM      1  CA  ARG D 557     -26.217   2.705 -17.014  1.00 35.49     0.159 C 
ENDROOT
BRANCH   1   2
ATOM      2  CB  ARG D 557     -26.789   1.319 -17.183  1.00 35.49     0.034 C 
BRANCH   2   3
ATOM      3  CG  ARG D 557     -25.847   0.198 -17.076  1.00 35.49     0.027 C 
BRANCH   3   4
ATOM      4  CD  ARG D 557     -26.149  -0.685 -15.926  1.00 35.49     0.116 C 
BRANCH   4   5
ATOM      5  NE  ARG D 557     -25.039  -0.790 -15.016  1.00 35.49    -0.212 N 
ATOM      6  CZ  ARG D 557     -24.787  -1.810 -14.227  1.00 35.49     0.666 C 
ATOM      7  NH1 ARG D 557     -25.564  -2.876 -14.175  1.00 35.49    -0.235 N 
ATOM      8  NH2 ARG D 557     -23.721  -1.744 -13.482  1.00 35.49    -0.235 N 
ATOM      9  HH  ARG D 557     -26.269  -2.941 -14.657  1.00 35.49     0.174 HD
ATOM     10  HH  ARG D 557     -25.348  -3.511 -13.642  1.00 35.49     0.174 HD
ATOM     11  HH  ARG D 557     -23.234  -1.046 -13.542  1.00 35.49     0.174 HD
ATOM     12  HH  ARG D 557     -23.524  -2.384 -12.963  1.00 35.49     0.174 HD
ATOM     13  HE  ARG D 557     -24.527  -0.116 -14.932  1.00 35.49     0.178 HD
ENDBRANCH   4   5
ENDBRANCH   3   4
ENDBRANCH   2   3
ENDBRANCH   1   2
END_RES ARG D 557
BEGIN_RES GLU D 570
REMARK  3 active torsions:
REMARK  status: ('A' for Active; 'I' for Inactive)
REMARK    5  A    between atoms: CA   and  CB  
REMARK    6  A    between atoms: CB   and  CG  
REMARK    7  A    between atoms: CG   and  CD  
ROOT
ATOM     14  CA  GLU D 570     -18.033  -6.348 -13.375  1.00 32.92     0.160 C 
ENDROOT
BRANCH  14  15
ATOM     15  CB  GLU D 570     -19.500  -6.345 -13.794  1.00 32.92     0.043 C 
BRANCH  15  16
ATOM     16  CG  GLU D 570     -20.061  -7.611 -14.332  1.00 32.92     0.100 C 
BRANCH  16  17
ATOM     17  CD  GLU D 570     -20.673  -7.449 -15.704  1.00 32.92     0.185 C 
ATOM     18  OE1 GLU D 570     -21.475  -8.310 -16.114  1.00 32.92    -0.647 OA
ATOM     19  OE2 GLU D 570     -20.333  -6.460 -16.382  1.00 32.92    -0.647 OA
ENDBRANCH  16  17
ENDBRANCH  15  16
ENDBRANCH  14  15
END_RES GLU D 570
ENDMDL
MODEL 3
REMARK VINA RESULT:      -6.9      1.252      1.877
REMARK  20 active torsions:
REMARK  status: ('A' for Active; 'I' for Inactive)
REMARK    1  A    between atoms: C_2  and  C_3 
REMARK    2  A    between atoms: C_3  and  C_4 
REMARK    3  A    between atoms: C_4  and  C_5 
REMARK    4  A    between atoms: C_5  and  C_6 
REMARK    5  A    between atoms: C_6  and  C_7 
REMARK    6  A    between atoms: C_7  and  C_8 
REMARK    7  A    between atoms: C_8  and  C_9 
REMARK    8  A    between atoms: C_9  and  C_10 
REMARK    9  A    between atoms: C_10  and  C_11 
REMARK   10  A    between atoms: C_11  and  C_12 
REMARK   11  A    between atoms: C_12  and  C_13 
REMARK   12  A    between atoms: C_13  and  C_14 
REMARK   13  A    between atoms: C_14  and  C_15 
REMARK   14  A    between atoms: C_15  and  C_16 
REMARK   15  A    between atoms: C_16  and  C_17 
REMARK   16  A    between atoms: C_17  and  C_18 
REMARK   17  A    between atoms: C_18  and  O_20 
REMARK   18  A    between atoms: O_20  and  C_21 
REMARK   19  A    between atoms: C_21  and  C_22 
REMARK   20  A    between atoms: C_22  and  O_24 
ROOT
HETATM    1  C   UNL     1     -19.975  -4.819  -6.443  1.00  0.00     0.000 C 
ENDROOT
BRANCH   1   2
HETATM    2  C   UNL     1     -21.003  -5.538  -5.587  1.00  0.00     0.000 C 
BRANCH   2   3
HETATM    3  C   UNL     1     -20.523  -6.943  -5.268  1.00  0.00     0.000 C 
BRANCH   3   4
HETATM    4  C   UNL     1     -21.019  -7.364  -3.896  1.00  0.00     0.000 C 
BRANCH   4   5
HETATM    5  C   UNL     1     -22.050  -6.371  -3.390  1.00  0.00     0.000 C 
BRANCH   5   6
HETATM    6  C   UNL     1     -22.081  -6.386  -1.874  1.00  0.00     0.000 C 
BRANCH   6   7
HETATM    7  C   UNL     1     -21.589  -7.728  -1.361  1.00  0.00     0.000 C 
BRANCH   7   8
HETATM    8  C   UNL     1     -21.989  -7.902   0.094  1.00  0.00     0.000 C 
BRANCH   8   9
HETATM    9  C   UNL     1     -23.188  -8.827   0.195  1.00  0.00     0.000 C 
BRANCH   9  10
HETATM   10  C   UNL     1     -22.758 -10.267  -0.031  1.00  0.00     0.000 C 
BRANCH  10  11
HETATM   11  C   UNL     1     -23.527 -10.867  -1.197  1.00  0.00    -0.000 C 
BRANCH  11  12
HETATM   12  C   UNL     1     -22.573 -11.498  -2.200  1.00  0.00    -0.005 C 
HETATM   13  C   UNL     1     -22.646 -10.774  -3.529  1.00  0.00     0.005 C 
ENDBRANCH  11  12
ENDBRANCH  10  11
ENDBRANCH   9  10
ENDBRANCH   8   9
ENDBRANCH   7   8
ENDBRANCH   6   7
ENDBRANCH   5   6
ENDBRANCH   4   5
ENDBRANCH   3   4
ENDBRANCH   2   3
ENDBRANCH   1   2
BRANCH   1  14
HETATM   14  C   UNL     1     -20.664  -3.910  -7.449  1.00  0.00     0.000 C 
BRANCH  14  15
HETATM   15  C   UNL     1     -21.451  -4.738  -8.460  1.00  0.00     0.000 C 
BRANCH  15  16
HETATM   16  C   UNL     1     -22.681  -3.970  -8.923  1.00  0.00     0.010 C 
BRANCH  16  17
HETATM   17  C   UNL     1     -23.159  -4.415 -10.305  1.00  0.00     0.111 C 
BRANCH  17  18
HETATM   18  C   UNL     1     -24.193  -3.452 -10.825  1.00  0.00     0.258 C 
HETATM   19  O   UNL     1     -25.245  -3.184 -10.242  1.00  0.00    -0.265 OA
BRANCH  18  20
HETATM   20  O   UNL     1     -23.850  -2.990 -12.058  1.00  0.00    -0.319 OA
BRANCH  20  21
HETATM   21  C   UNL     1     -22.659  -3.598 -12.587  1.00  0.00     0.210 C 
BRANCH  21  22
HETATM   22  C   UNL     1     -22.875  -4.236 -13.961  1.00  0.00     0.138 C 
HETATM   23  C   UNL     1     -23.473  -5.626 -13.837  1.00  0.00     0.041 C 
BRANCH  22  24
HETATM   24  O   UNL     1     -23.724  -3.415 -14.761  1.00  0.00    -0.394 OA
HETATM   25  H   UNL     1     -23.607  -2.491 -14.487  1.00  0.00     0.210 HD
ENDBRANCH  22  24
ENDBRANCH  21  22
ENDBRANCH  20  21
ENDBRANCH  18  20
ENDBRANCH  17  18
ENDBRANCH  16  17
ENDBRANCH  15  16
ENDBRANCH  14  15
ENDBRANCH   1  14
TORSDOF 20
BEGIN_RES ARG D 557
REMARK  4 active torsions:
REMARK  status: ('A' for Active; 'I' for Inactive)
REMARK    1  A    between atoms: CA   and  CB  
REMARK    2  A    between atoms: CB   and  CG  
REMARK    3  A    between atoms: CG   and  CD  
REMARK    4  A    between atoms: CD   and  NE  
REMARK       I    between atoms: NE   and  CZ  
REMARK       I    between atoms: CZ   and  NH1 
REMARK       I    between atoms: CZ   and  NH2 
ROOT
ATOM      1  CA  ARG D 557     -26.217   2.705 -17.014  1.00 35.49     0.159 C 
ENDROOT
BRANCH   1   2
ATOM      2  CB  ARG D 557     -26.789   1.319 -17.183  1.00 35.49     0.034 C 
BRANCH   2   3
ATOM      3  CG  ARG D 557     -28.235   1.225 -17.415  1.00 35.49     0.027 C 
BRANCH   3   4
ATOM      4  CD  ARG D 557     -28.897   0.288 -16.479  1.00 35.49     0.116 C 
BRANCH   4   5
ATOM      5  NE  ARG D 557     -29.292  -0.936 -17.125  1.00 35.49    -0.212 N 
ATOM      6  CZ  ARG D 557     -28.667  -2.089 -17.034  1.00 35.49     0.666 C 
ATOM      7  NH1 ARG D 557     -27.565  -2.244 -16.324  1.00 35.49    -0.235 N 
ATOM      8  NH2 ARG D 557     -29.180  -3.101 -17.671  1.00 35.49    -0.235 N 
ATOM      9  HH  ARG D 557     -27.211  -1.592 -15.895  1.00 35.49     0.174 HD
ATOM     10  HH  ARG D 557     -27.202  -3.020 -16.299  1.00 35.49     0.174 HD
ATOM     11  HH  ARG D 557     -29.896  -2.973 -18.115  1.00 35.49     0.174 HD
ATOM     12  HH  ARG D 557     -28.807  -3.862 -17.633  1.00 35.49     0.174 HD
ATOM     13  HE  ARG D 557     -29.952  -0.910 -17.661  1.00 35.49     0.178 HD
ENDBRANCH   4   5
ENDBRANCH   3   4
ENDBRANCH   2   3
ENDBRANCH   1   2
END_RES ARG D 557
BEGIN_RES GLU D 570
REMARK  3 active torsions:
REMARK  status: ('A' for Active; 'I' for Inactive)
REMARK    5  A    between atoms: CA   and  CB  
REMARK    6  A    between atoms: CB   and  CG  
REMARK    7  A    between atoms: CG   and  CD  
ROOT
ATOM     14  CA  GLU D 570     -18.033  -6.348 -13.375  1.00 32.92     0.160 C 
ENDROOT
BRANCH  14  15
ATOM     15  CB  GLU D 570     -19.500  -6.345 -13.794  1.00 32.92     0.043 C 
BRANCH  15  16
ATOM     16  CG  GLU D 570     -20.045  -7.593 -14.388  1.00 32.92     0.100 C 
BRANCH  16  17
ATOM     17  CD  GLU D 570     -20.774  -7.357 -15.690  1.00 32.92     0.185 C 
ATOM     18  OE1 GLU D 570     -20.531  -6.322 -16.341  1.00 32.92    -0.647 OA
ATOM     19  OE2 GLU D 570     -21.608  -8.208 -16.056  1.00 32.92    -0.647 OA
ENDBRANCH  16  17
ENDBRANCH  15  16
ENDBRANCH  14  15
END_RES GLU D 570
ENDMDL
MODEL 4
REMARK VINA RESULT:      -6.7      2.215      4.098
REMARK  20 active torsions:
REMARK  status: ('A' for Active; 'I' for Inactive)
REMARK    1  A    between atoms: C_2  and  C_3 
REMARK    2  A    between atoms: C_3  and  C_4 
REMARK    3  A    between atoms: C_4  and  C_5 
REMARK    4  A    between atoms: C_5  and  C_6 
REMARK    5  A    between atoms: C_6  and  C_7 
REMARK    6  A    between atoms: C_7  and  C_8 
REMARK    7  A    between atoms: C_8  and  C_9 
REMARK    8  A    between atoms: C_9  and  C_10 
REMARK    9  A    between atoms: C_10  and  C_11 
REMARK   10  A    between atoms: C_11  and  C_12 
REMARK   11  A    between atoms: C_12  and  C_13 
REMARK   12  A    between atoms: C_13  and  C_14 
REMARK   13  A    between atoms: C_14  and  C_15 
REMARK   14  A    between atoms: C_15  and  C_16 
REMARK   15  A    between atoms: C_16  and  C_17 
REMARK   16  A    between atoms: C_17  and  C_18 
REMARK   17  A    between atoms: C_18  and  O_20 
REMARK   18  A    between atoms: O_20  and  C_21 
REMARK   19  A    between atoms: C_21  and  C_22 
REMARK   20  A    between atoms: C_22  and  O_24 
ROOT
HETATM    1  C   UNL     1     -21.262  -4.185 -11.215  1.00  0.00     0.000 C 
ENDROOT
BRANCH   1   2
HETATM    2  C   UNL     1     -21.067  -4.275  -9.712  1.00  0.00     0.000 C 
BRANCH   2   3
HETATM    3  C   UNL     1     -22.327  -3.821  -8.995  1.00  0.00     0.000 C 
BRANCH   3   4
HETATM    4  C   UNL     1     -22.265  -4.216  -7.531  1.00  0.00     0.000 C 
BRANCH   4   5
HETATM    5  C   UNL     1     -20.911  -3.848  -6.951  1.00  0.00     0.000 C 
BRANCH   5   6
HETATM    6  C   UNL     1     -20.559  -4.795  -5.820  1.00  0.00     0.000 C 
BRANCH   6   7
HETATM    7  C   UNL     1     -21.468  -6.010  -5.861  1.00  0.00     0.000 C 
BRANCH   7   8
HETATM    8  C   UNL     1     -20.645  -7.276  -5.704  1.00  0.00     0.000 C 
BRANCH   8   9
HETATM    9  C   UNL     1     -21.423  -8.305  -4.904  1.00  0.00     0.000 C 
BRANCH   9  10
HETATM   10  C   UNL     1     -20.607  -8.762  -3.706  1.00  0.00     0.000 C 
BRANCH  10  11
HETATM   11  C   UNL     1     -21.422  -8.621  -2.431  1.00  0.00    -0.000 C 
BRANCH  11  12
HETATM   12  C   UNL     1     -21.036  -7.352  -1.687  1.00  0.00    -0.005 C 
HETATM   13  C   UNL     1     -22.167  -6.345  -1.736  1.00  0.00     0.005 C 
ENDBRANCH  11  12
ENDBRANCH  10  11
ENDBRANCH   9  10
ENDBRANCH   8   9
ENDBRANCH   7   8
ENDBRANCH   6   7
ENDBRANCH   5   6
ENDBRANCH   4   5
ENDBRANCH   3   4
ENDBRANCH   2   3
ENDBRANCH   1   2
BRANCH   1  14
HETATM   14  C   UNL     1     -22.664  -3.691 -11.539  1.00  0.00     0.000 C 
BRANCH  14  15
HETATM   15  C   UNL     1     -23.541  -4.849 -12.005  1.00  0.00     0.000 C 
BRANCH  15  16
HETATM   16  C   UNL     1     -23.053  -5.367 -13.350  1.00  0.00     0.010 C 
BRANCH  16  17
HETATM   17  C   UNL     1     -23.877  -4.824 -14.517  1.00  0.00     0.111 C 
BRANCH  17  18
HETATM   18  C   UNL     1     -24.738  -5.919 -15.089  1.00  0.00     0.258 C 
HETATM   19  O   UNL     1     -24.502  -7.122 -14.966  1.00  0.00    -0.265 OA
BRANCH  18  20
HETATM   20  O   UNL     1     -25.755  -5.400 -15.831  1.00  0.00    -0.319 OA
BRANCH  20  21
HETATM   21  C   UNL     1     -26.272  -6.315 -16.813  1.00  0.00     0.210 C 
BRANCH  21  22
HETATM   22  C   UNL     1     -27.795  -6.254 -16.941  1.00  0.00     0.138 C 
HETATM   23  C   UNL     1     -28.217  -5.861 -18.345  1.00  0.00     0.041 C 
BRANCH  22  24
HETATM   24  O   UNL     1     -28.372  -7.513 -16.599  1.00  0.00    -0.394 OA
HETATM   25  H   UNL     1     -27.803  -7.944 -15.940  1.00  0.00     0.210 HD
ENDBRANCH  22  24
ENDBRANCH  21  22
ENDBRANCH  20  21
ENDBRANCH  18  20
ENDBRANCH  17  18
ENDBRANCH  16  17
ENDBRANCH  15  16
ENDBRANCH  14  15
ENDBRANCH   1  14
TORSDOF 20
BEGIN_RES ARG D 557
REMARK  4 active torsions:
REMARK  status: ('A' for Active; 'I' for Inactive)
REMARK    1  A    between atoms: CA   and  CB  
REMARK    2  A    between atoms: CB   and  CG  
REMARK    3  A    between atoms: CG   and  CD  
REMARK    4  A    between atoms: CD   and  NE  
REMARK       I    between atoms: NE   and  CZ  
REMARK       I    between atoms: CZ   and  NH1 
REMARK       I    between atoms: CZ   and  NH2 
ROOT
ATOM      1  CA  ARG D 557     -26.217   2.705 -17.014  1.00 35.49     0.159 C 
ENDROOT
BRANCH   1   2
ATOM      2  CB  ARG D 557     -26.789   1.319 -17.183  1.00 35.49     0.034 C 
BRANCH   2   3
ATOM      3  CG  ARG D 557     -28.232   1.226 -17.437  1.00 35.49     0.027 C 
BRANCH   3   4
ATOM      4  CD  ARG D 557     -28.897   0.238 -16.557  1.00 35.49     0.116 C 
BRANCH   4   5
ATOM      5  NE  ARG D 557     -27.993  -0.793 -16.119  1.00 35.49    -0.212 N 
ATOM      6  CZ  ARG D 557     -28.009  -2.047 -16.513  1.00 35.49     0.666 C 
ATOM      7  NH1 ARG D 557     -28.898  -2.509 -17.372  1.00 35.49    -0.235 N 
ATOM      8  NH2 ARG D 557     -27.099  -2.840 -16.027  1.00 35.49    -0.235 N 
ATOM      9  HH  ARG D 557     -29.504  -2.004 -17.707  1.00 35.49     0.174 HD
ATOM     10  HH  ARG D 557     -28.858  -3.335 -17.595  1.00 35.49     0.174 HD
ATOM     11  HH  ARG D 557     -26.533  -2.512 -15.479  1.00 35.49     0.174 HD
ATOM     12  HH  ARG D 557     -27.075  -3.655 -16.260  1.00 35.49     0.174 HD
ATOM     13  HE  ARG D 557     -27.433  -0.600 -15.509  1.00 35.49     0.178 HD
ENDBRANCH   4   5
ENDBRANCH   3   4
ENDBRANCH   2   3
ENDBRANCH   1   2
END_RES ARG D 557
BEGIN_RES GLU D 570
REMARK  3 active torsions:
REMARK  status: ('A' for Active; 'I' for Inactive)
REMARK    5  A    between atoms: CA   and  CB  
REMARK    6  A    between atoms: CB   and  CG  
REMARK    7  A    between atoms: CG   and  CD  
ROOT
ATOM     14  CA  GLU D 570     -18.033  -6.348 -13.375  1.00 32.92     0.160 C 
ENDROOT
BRANCH  14  15
ATOM     15  CB  GLU D 570     -19.500  -6.345 -13.794  1.00 32.92     0.043 C 
BRANCH  15  16
ATOM     16  CG  GLU D 570     -19.803  -6.075 -15.223  1.00 32.92     0.100 C 
BRANCH  16  17
ATOM     17  CD  GLU D 570     -20.773  -7.069 -15.818  1.00 32.92     0.185 C 
ATOM     18  OE1 GLU D 570     -20.755  -8.247 -15.414  1.00 32.92    -0.647 OA
ATOM     19  OE2 GLU D 570     -21.547  -6.669 -16.710  1.00 32.92    -0.647 OA
ENDBRANCH  16  17
ENDBRANCH  15  16
ENDBRANCH  14  15
END_RES GLU D 570
ENDMDL
MODEL 5
REMARK VINA RESULT:      -6.7      1.809      4.130
REMARK  20 active torsions:
REMARK  status: ('A' for Active; 'I' for Inactive)
REMARK    1  A    between atoms: C_2  and  C_3 
REMARK    2  A    between atoms: C_3  and  C_4 
REMARK    3  A    between atoms: C_4  and  C_5 
REMARK    4  A    between atoms: C_5  and  C_6 
REMARK    5  A    between atoms: C_6  and  C_7 
REMARK    6  A    between atoms: C_7  and  C_8 
REMARK    7  A    between atoms: C_8  and  C_9 
REMARK    8  A    between atoms: C_9  and  C_10 
REMARK    9  A    between atoms: C_10  and  C_11 
REMARK   10  A    between atoms: C_11  and  C_12 
REMARK   11  A    between atoms: C_12  and  C_13 
REMARK   12  A    between atoms: C_13  and  C_14 
REMARK   13  A    between atoms: C_14  and  C_15 
REMARK   14  A    between atoms: C_15  and  C_16 
REMARK   15  A    between atoms: C_16  and  C_17 
REMARK   16  A    between atoms: C_17  and  C_18 
REMARK   17  A    between atoms: C_18  and  O_20 
REMARK   18  A    between atoms: O_20  and  C_21 
REMARK   19  A    between atoms: C_21  and  C_22 
REMARK   20  A    between atoms: C_22  and  O_24 
ROOT
HETATM    1  C   UNL     1     -21.172  -6.159  -3.556  1.00  0.00     0.000 C 
ENDROOT
BRANCH   1   2
HETATM    2  C   UNL     1     -22.187  -6.198  -2.427  1.00  0.00     0.000 C 
BRANCH   2   3
HETATM    3  C   UNL     1     -21.889  -7.364  -1.500  1.00  0.00     0.000 C 
BRANCH   3   4
HETATM    4  C   UNL     1     -22.481  -7.102  -0.127  1.00  0.00     0.000 C 
BRANCH   4   5
HETATM    5  C   UNL     1     -22.812  -8.418   0.554  1.00  0.00     0.000 C 
BRANCH   5   6
HETATM    6  C   UNL     1     -21.660  -9.391   0.386  1.00  0.00     0.000 C 
BRANCH   6   7
HETATM    7  C   UNL     1     -22.197 -10.793   0.165  1.00  0.00     0.000 C 
BRANCH   7   8
HETATM    8  C   UNL     1     -23.671 -10.730  -0.196  1.00  0.00     0.000 C 
BRANCH   8   9
HETATM    9  C   UNL     1     -23.963 -11.672  -1.350  1.00  0.00     0.000 C 
BRANCH   9  10
HETATM   10  C   UNL     1     -22.747 -11.780  -2.256  1.00  0.00     0.000 C 
BRANCH  10  11
HETATM   11  C   UNL     1     -22.877 -10.818  -3.426  1.00  0.00    -0.000 C 
BRANCH  11  12
HETATM   12  C   UNL     1     -21.539 -10.643  -4.126  1.00  0.00    -0.005 C 
HETATM   13  C   UNL     1     -20.476 -10.208  -3.137  1.00  0.00     0.005 C 
ENDBRANCH  11  12
ENDBRANCH  10  11
ENDBRANCH   9  10
ENDBRANCH   8   9
ENDBRANCH   7   8
ENDBRANCH   6   7
ENDBRANCH   5   6
ENDBRANCH   4   5
ENDBRANCH   3   4
ENDBRANCH   2   3
ENDBRANCH   1   2
BRANCH   1  14
HETATM   14  C   UNL     1     -21.693  -6.922  -4.764  1.00  0.00     0.000 C 
BRANCH  14  15
HETATM   15  C   UNL     1     -21.045  -6.400  -6.043  1.00  0.00     0.000 C 
BRANCH  15  16
HETATM   16  C   UNL     1     -20.537  -4.981  -5.831  1.00  0.00     0.010 C 
BRANCH  16  17
HETATM   17  C   UNL     1     -21.114  -4.000  -6.851  1.00  0.00     0.111 C 
BRANCH  17  18
HETATM   18  C   UNL     1     -20.566  -4.303  -8.221  1.00  0.00     0.258 C 
HETATM   19  O   UNL     1     -19.364  -4.358  -8.488  1.00  0.00    -0.265 OA
BRANCH  18  20
HETATM   20  O   UNL     1     -21.570  -4.415  -9.133  1.00  0.00    -0.319 OA
BRANCH  20  21
HETATM   21  C   UNL     1     -22.721  -3.614  -8.819  1.00  0.00     0.210 C 
BRANCH  21  22
HETATM   22  C   UNL     1     -23.807  -3.684  -9.894  1.00  0.00     0.138 C 
HETATM   23  C   UNL     1     -23.862  -5.058 -10.537  1.00  0.00     0.041 C 
BRANCH  22  24
HETATM   24  O   UNL     1     -25.080  -3.363  -9.334  1.00  0.00    -0.394 OA
HETATM   25  H   UNL     1     -25.634  -2.973 -10.031  1.00  0.00     0.210 HD
ENDBRANCH  22  24
ENDBRANCH  21  22
ENDBRANCH  20  21
ENDBRANCH  18  20
ENDBRANCH  17  18
ENDBRANCH  16  17
ENDBRANCH  15  16
ENDBRANCH  14  15
ENDBRANCH   1  14
TORSDOF 20
BEGIN_RES ARG D 557
REMARK  4 active torsions:
REMARK  status: ('A' for Active; 'I' for Inactive)
REMARK    1  A    between atoms: CA   and  CB  
REMARK    2  A    between atoms: CB   and  CG  
REMARK    3  A    between atoms: CG   and  CD  
REMARK    4  A    between atoms: CD   and  NE  
REMARK       I    between atoms: NE   and  CZ  
REMARK       I    between atoms: CZ   and  NH1 
REMARK       I    between atoms: CZ   and  NH2 
ROOT
ATOM      1  CA  ARG D 557     -26.217   2.705 -17.014  1.00 35.49     0.159 C 
ENDROOT
BRANCH   1   2
ATOM      2  CB  ARG D 557     -26.789   1.319 -17.183  1.00 35.49     0.034 C 
BRANCH   2   3
ATOM      3  CG  ARG D 557     -28.230   1.227 -17.449  1.00 35.49     0.027 C 
BRANCH   3   4
ATOM      4  CD  ARG D 557     -28.919   0.309 -16.513  1.00 35.49     0.116 C 
BRANCH   4   5
ATOM      5  NE  ARG D 557     -29.318  -0.918 -17.152  1.00 35.49    -0.212 N 
ATOM      6  CZ  ARG D 557     -28.702  -2.074 -17.048  1.00 35.49     0.666 C 
ATOM      7  NH1 ARG D 557     -27.605  -2.231 -16.332  1.00 35.49    -0.235 N 
ATOM      8  NH2 ARG D 557     -29.218  -3.088 -17.681  1.00 35.49    -0.235 N 
ATOM      9  HH  ARG D 557     -27.249  -1.578 -15.906  1.00 35.49     0.174 HD
ATOM     10  HH  ARG D 557     -27.248  -3.009 -16.299  1.00 35.49     0.174 HD
ATOM     11  HH  ARG D 557     -29.931  -2.958 -18.130  1.00 35.49     0.174 HD
ATOM     12  HH  ARG D 557     -28.851  -3.851 -17.635  1.00 35.49     0.174 HD
ATOM     13  HE  ARG D 557     -29.975  -0.891 -17.692  1.00 35.49     0.178 HD
ENDBRANCH   4   5
ENDBRANCH   3   4
ENDBRANCH   2   3
ENDBRANCH   1   2
END_RES ARG D 557
BEGIN_RES GLU D 570
REMARK  3 active torsions:
REMARK  status: ('A' for Active; 'I' for Inactive)
REMARK    5  A    between atoms: CA   and  CB  
REMARK    6  A    between atoms: CB   and  CG  
REMARK    7  A    between atoms: CG   and  CD  
ROOT
ATOM     14  CA  GLU D 570     -18.033  -6.348 -13.375  1.00 32.92     0.160 C 
ENDROOT
BRANCH  14  15
ATOM     15  CB  GLU D 570     -19.500  -6.345 -13.794  1.00 32.92     0.043 C 
BRANCH  15  16
ATOM     16  CG  GLU D 570     -20.434  -5.497 -13.009  1.00 32.92     0.100 C 
BRANCH  16  17
ATOM     17  CD  GLU D 570     -21.735  -5.230 -13.731  1.00 32.92     0.185 C 
ATOM     18  OE1 GLU D 570     -22.166  -6.077 -14.536  1.00 32.92    -0.647 OA
ATOM     19  OE2 GLU D 570     -22.320  -4.153 -13.500  1.00 32.92    -0.647 OA
ENDBRANCH  16  17
ENDBRANCH  15  16
ENDBRANCH  14  15
END_RES GLU D 570
ENDMDL
MODEL 6
REMARK VINA RESULT:      -6.6      2.850      5.317
REMARK  20 active torsions:
REMARK  status: ('A' for Active; 'I' for Inactive)
REMARK    1  A    between atoms: C_2  and  C_3 
REMARK    2  A    between atoms: C_3  and  C_4 
REMARK    3  A    between atoms: C_4  and  C_5 
REMARK    4  A    between atoms: C_5  and  C_6 
REMARK    5  A    between atoms: C_6  and  C_7 
REMARK    6  A    between atoms: C_7  and  C_8 
REMARK    7  A    between atoms: C_8  and  C_9 
REMARK    8  A    between atoms: C_9  and  C_10 
REMARK    9  A    between atoms: C_10  and  C_11 
REMARK   10  A    between atoms: C_11  and  C_12 
REMARK   11  A    between atoms: C_12  and  C_13 
REMARK   12  A    between atoms: C_13  and  C_14 
REMARK   13  A    between atoms: C_14  and  C_15 
REMARK   14  A    between atoms: C_15  and  C_16 
REMARK   15  A    between atoms: C_16  and  C_17 
REMARK   16  A    between atoms: C_17  and  C_18 
REMARK   17  A    between atoms: C_18  and  O_20 
REMARK   18  A    between atoms: O_20  and  C_21 
REMARK   19  A    between atoms: C_21  and  C_22 
REMARK   20  A    between atoms: C_22  and  O_24 
ROOT
HETATM    1  C   UNL     1     -23.124  -4.578 -12.346  1.00  0.00     0.000 C 
ENDROOT
BRANCH   1   2
HETATM    2  C   UNL     1     -21.801  -3.895 -12.043  1.00  0.00     0.000 C 
BRANCH   2   3
HETATM    3  C   UNL     1     -21.642  -3.710 -10.544  1.00  0.00     0.000 C 
BRANCH   3   4
HETATM    4  C   UNL     1     -20.392  -4.421 -10.060  1.00  0.00     0.000 C 
BRANCH   4   5
HETATM    5  C   UNL     1     -20.111  -4.051  -8.615  1.00  0.00     0.000 C 
BRANCH   5   6
HETATM    6  C   UNL     1     -21.409  -3.711  -7.907  1.00  0.00     0.000 C 
BRANCH   6   7
HETATM    7  C   UNL     1     -21.732  -4.782  -6.881  1.00  0.00     0.000 C 
BRANCH   7   8
HETATM    8  C   UNL     1     -20.465  -5.201  -6.155  1.00  0.00     0.000 C 
BRANCH   8   9
HETATM    9  C   UNL     1     -20.798  -5.640  -4.741  1.00  0.00     0.000 C 
BRANCH   9  10
HETATM   10  C   UNL     1     -20.729  -7.154  -4.634  1.00  0.00     0.000 C 
BRANCH  10  11
HETATM   11  C   UNL     1     -21.621  -7.642  -3.504  1.00  0.00    -0.000 C 
BRANCH  11  12
HETATM   12  C   UNL     1     -21.109  -7.139  -2.163  1.00  0.00    -0.005 C 
HETATM   13  C   UNL     1     -22.264  -6.715  -1.279  1.00  0.00     0.005 C 
ENDBRANCH  11  12
ENDBRANCH  10  11
ENDBRANCH   9  10
ENDBRANCH   8   9
ENDBRANCH   7   8
ENDBRANCH   6   7
ENDBRANCH   5   6
ENDBRANCH   4   5
ENDBRANCH   3   4
ENDBRANCH   2   3
ENDBRANCH   1   2
BRANCH   1  14
HETATM   14  C   UNL     1     -23.282  -4.787 -13.844  1.00  0.00     0.000 C 
BRANCH  14  15
HETATM   15  C   UNL     1     -23.758  -6.207 -14.135  1.00  0.00     0.000 C 
BRANCH  15  16
HETATM   16  C   UNL     1     -24.105  -6.351 -15.610  1.00  0.00     0.010 C 
BRANCH  16  17
HETATM   17  C   UNL     1     -25.453  -7.038 -15.826  1.00  0.00     0.111 C 
BRANCH  17  18
HETATM   18  C   UNL     1     -26.190  -6.376 -16.960  1.00  0.00     0.258 C 
HETATM   19  O   UNL     1     -25.762  -6.301 -18.113  1.00  0.00    -0.265 OA
BRANCH  18  20
HETATM   20  O   UNL     1     -27.340  -5.798 -16.520  1.00  0.00    -0.319 OA
BRANCH  20  21
HETATM   21  C   UNL     1     -28.461  -6.699 -16.494  1.00  0.00     0.210 C 
BRANCH  21  22
HETATM   22  C   UNL     1     -29.280  -6.669 -17.785  1.00  0.00     0.138 C 
HETATM   23  C   UNL     1     -30.742  -6.981 -17.521  1.00  0.00     0.041 C 
BRANCH  22  24
HETATM   24  O   UNL     1     -29.166  -5.394 -18.415  1.00  0.00    -0.394 OA
HETATM   25  H   UNL     1     -29.078  -4.716 -17.725  1.00  0.00     0.210 HD
ENDBRANCH  22  24
ENDBRANCH  21  22
ENDBRANCH  20  21
ENDBRANCH  18  20
ENDBRANCH  17  18
ENDBRANCH  16  17
ENDBRANCH  15  16
ENDBRANCH  14  15
ENDBRANCH   1  14
TORSDOF 20
BEGIN_RES ARG D 557
REMARK  4 active torsions:
REMARK  status: ('A' for Active; 'I' for Inactive)
REMARK    1  A    between atoms: CA   and  CB  
REMARK    2  A    between atoms: CB   and  CG  
REMARK    3  A    between atoms: CG   and  CD  
REMARK    4  A    between atoms: CD   and  NE  
REMARK       I    between atoms: NE   and  CZ  
REMARK       I    between atoms: CZ   and  NH1 
REMARK       I    between atoms: CZ   and  NH2 
ROOT
ATOM      1  CA  ARG D 557     -26.217   2.705 -17.014  1.00 35.49     0.159 C 
ENDROOT
BRANCH   1   2
ATOM      2  CB  ARG D 557     -26.789   1.319 -17.183  1.00 35.49     0.034 C 
BRANCH   2   3
ATOM      3  CG  ARG D 557     -28.235   1.171 -16.975  1.00 35.49     0.027 C 
BRANCH   3   4
ATOM      4  CD  ARG D 557     -28.641  -0.245 -16.821  1.00 35.49     0.116 C 
BRANCH   4   5
ATOM      5  NE  ARG D 557     -27.645  -1.022 -16.131  1.00 35.49    -0.212 N 
ATOM      6  CZ  ARG D 557     -27.512  -2.328 -16.193  1.00 35.49     0.666 C 
ATOM      7  NH1 ARG D 557     -28.316  -3.090 -16.910  1.00 35.49    -0.235 N 
ATOM      8  NH2 ARG D 557     -26.538  -2.865 -15.517  1.00 35.49    -0.235 N 
ATOM      9  HH  ARG D 557     -28.963  -2.758 -17.365  1.00 35.49     0.174 HD
ATOM     10  HH  ARG D 557     -28.179  -3.936 -16.915  1.00 35.49     0.174 HD
ATOM     11  HH  ARG D 557     -26.029  -2.347 -15.068  1.00 35.49     0.174 HD
ATOM     12  HH  ARG D 557     -26.417  -3.704 -15.535  1.00 35.49     0.174 HD
ATOM     13  HE  ARG D 557     -27.130  -0.619 -15.588  1.00 35.49     0.178 HD
ENDBRANCH   4   5
ENDBRANCH   3   4
ENDBRANCH   2   3
ENDBRANCH   1   2
END_RES ARG D 557
BEGIN_RES GLU D 570
REMARK  3 active torsions:
REMARK  status: ('A' for Active; 'I' for Inactive)
REMARK    5  A    between atoms: CA   and  CB  
REMARK    6  A    between atoms: CB   and  CG  
REMARK    7  A    between atoms: CG   and  CD  
ROOT
ATOM     14  CA  GLU D 570     -18.033  -6.348 -13.375  1.00 32.92     0.160 C 
ENDROOT
BRANCH  14  15
ATOM     15  CB  GLU D 570     -19.500  -6.345 -13.794  1.00 32.92     0.043 C 
BRANCH  15  16
ATOM     16  CG  GLU D 570     -20.081  -7.630 -14.262  1.00 32.92     0.100 C 
BRANCH  16  17
ATOM     17  CD  GLU D 570     -20.664  -7.541 -15.653  1.00 32.92     0.185 C 
ATOM     18  OE1 GLU D 570     -20.593  -6.462 -16.271  1.00 32.92    -0.647 OA
ATOM     19  OE2 GLU D 570     -21.211  -8.558 -16.123  1.00 32.92    -0.647 OA
ENDBRANCH  16  17
ENDBRANCH  15  16
ENDBRANCH  14  15
END_RES GLU D 570
ENDMDL
MODEL 7
REMARK VINA RESULT:      -6.5      2.167      4.355
REMARK  20 active torsions:
REMARK  status: ('A' for Active; 'I' for Inactive)
REMARK    1  A    between atoms: C_2  and  C_3 
REMARK    2  A    between atoms: C_3  and  C_4 
REMARK    3  A    between atoms: C_4  and  C_5 
REMARK    4  A    between atoms: C_5  and  C_6 
REMARK    5  A    between atoms: C_6  and  C_7 
REMARK    6  A    between atoms: C_7  and  C_8 
REMARK    7  A    between atoms: C_8  and  C_9 
REMARK    8  A    between atoms: C_9  and  C_10 
REMARK    9  A    between atoms: C_10  and  C_11 
REMARK   10  A    between atoms: C_11  and  C_12 
REMARK   11  A    between atoms: C_12  and  C_13 
REMARK   12  A    between atoms: C_13  and  C_14 
REMARK   13  A    between atoms: C_14  and  C_15 
REMARK   14  A    between atoms: C_15  and  C_16 
REMARK   15  A    between atoms: C_16  and  C_17 
REMARK   16  A    between atoms: C_17  and  C_18 
REMARK   17  A    between atoms: C_18  and  O_20 
REMARK   18  A    between atoms: O_20  and  C_21 
REMARK   19  A    between atoms: C_21  and  C_22 
REMARK   20  A    between atoms: C_22  and  O_24 
ROOT
HETATM    1  C   UNL     1     -21.228  -6.159  -3.380  1.00  0.00     0.000 C 
ENDROOT
BRANCH   1   2
HETATM    2  C   UNL     1     -21.272  -7.029  -2.135  1.00  0.00     0.000 C 
BRANCH   2   3
HETATM    3  C   UNL     1     -22.367  -6.545  -1.201  1.00  0.00     0.000 C 
BRANCH   3   4
HETATM    4  C   UNL     1     -22.689  -7.617  -0.175  1.00  0.00     0.000 C 
BRANCH   4   5
HETATM    5  C   UNL     1     -21.462  -8.473   0.081  1.00  0.00     0.000 C 
BRANCH   5   6
HETATM    6  C   UNL     1     -21.853  -9.939   0.115  1.00  0.00     0.000 C 
BRANCH   6   7
HETATM    7  C   UNL     1     -23.054 -10.173  -0.783  1.00  0.00     0.000 C 
BRANCH   7   8
HETATM    8  C   UNL     1     -23.109 -11.633  -1.201  1.00  0.00     0.000 C 
BRANCH   8   9
HETATM    9  C   UNL     1     -22.690 -11.773  -2.653  1.00  0.00     0.000 C 
BRANCH   9  10
HETATM   10  C   UNL     1     -22.517 -10.400  -3.281  1.00  0.00     0.000 C 
BRANCH  10  11
HETATM   11  C   UNL     1     -21.286 -10.383  -4.173  1.00  0.00    -0.000 C 
BRANCH  11  12
HETATM   12  C   UNL     1     -20.027 -10.173  -3.344  1.00  0.00    -0.005 C 
HETATM   13  C   UNL     1     -19.085  -9.215  -4.045  1.00  0.00     0.005 C 
ENDBRANCH  11  12
ENDBRANCH  10  11
ENDBRANCH   9  10
ENDBRANCH   8   9
ENDBRANCH   7   8
ENDBRANCH   6   7
ENDBRANCH   5   6
ENDBRANCH   4   5
ENDBRANCH   3   4
ENDBRANCH   2   3
ENDBRANCH   1   2
BRANCH   1  14
HETATM   14  C   UNL     1     -22.134  -6.731  -4.459  1.00  0.00     0.000 C 
BRANCH  14  15
HETATM   15  C   UNL     1     -21.481  -6.590  -5.831  1.00  0.00     0.000 C 
BRANCH  15  16
HETATM   16  C   UNL     1     -20.392  -5.528  -5.786  1.00  0.00     0.010 C 
BRANCH  16  17
HETATM   17  C   UNL     1     -20.782  -4.262  -6.548  1.00  0.00     0.111 C 
BRANCH  17  18
HETATM   18  C   UNL     1     -20.887  -4.563  -8.020  1.00  0.00     0.258 C 
HETATM   19  O   UNL     1     -20.050  -5.206  -8.656  1.00  0.00    -0.265 OA
BRANCH  18  20
HETATM   20  O   UNL     1     -21.976  -3.955  -8.565  1.00  0.00    -0.319 OA
BRANCH  20  21
HETATM   21  C   UNL     1     -22.016  -4.030 -10.000  1.00  0.00     0.210 C 
BRANCH  21  22
HETATM   22  C   UNL     1     -23.283  -4.706 -10.526  1.00  0.00     0.138 C 
HETATM   23  C   UNL     1     -24.530  -4.109  -9.900  1.00  0.00     0.041 C 
BRANCH  22  24
HETATM   24  O   UNL     1     -23.354  -4.588 -11.947  1.00  0.00    -0.394 OA
HETATM   25  H   UNL     1     -22.461  -4.705 -12.311  1.00  0.00     0.210 HD
ENDBRANCH  22  24
ENDBRANCH  21  22
ENDBRANCH  20  21
ENDBRANCH  18  20
ENDBRANCH  17  18
ENDBRANCH  16  17
ENDBRANCH  15  16
ENDBRANCH  14  15
ENDBRANCH   1  14
TORSDOF 20
BEGIN_RES ARG D 557
REMARK  4 active torsions:
REMARK  status: ('A' for Active; 'I' for Inactive)
REMARK    1  A    between atoms: CA   and  CB  
REMARK    2  A    between atoms: CB   and  CG  
REMARK    3  A    between atoms: CG   and  CD  
REMARK    4  A    between atoms: CD   and  NE  
REMARK       I    between atoms: NE   and  CZ  
REMARK       I    between atoms: CZ   and  NH1 
REMARK       I    between atoms: CZ   and  NH2 
ROOT
ATOM      1  CA  ARG D 557     -26.217   2.705 -17.014  1.00 35.49     0.159 C 
ENDROOT
BRANCH   1   2
ATOM      2  CB  ARG D 557     -26.789   1.319 -17.183  1.00 35.49     0.034 C 
BRANCH   2   3
ATOM      3  CG  ARG D 557     -25.860   0.195 -17.010  1.00 35.49     0.027 C 
BRANCH   3   4
ATOM      4  CD  ARG D 557     -26.292  -0.735 -15.942  1.00 35.49     0.116 C 
BRANCH   4   5
ATOM      5  NE  ARG D 557     -25.270  -0.932 -14.949  1.00 35.49    -0.212 N 
ATOM      6  CZ  ARG D 557     -24.980  -2.071 -14.361  1.00 35.49     0.666 C 
ATOM      7  NH1 ARG D 557     -25.631  -3.189 -14.621  1.00 35.49    -0.235 N 
ATOM      8  NH2 ARG D 557     -24.005  -2.070 -13.498  1.00 35.49    -0.235 N 
ATOM      9  HH  ARG D 557     -26.274  -3.213 -15.186  1.00 35.49     0.174 HD
ATOM     10  HH  ARG D 557     -25.396  -3.903 -14.208  1.00 35.49     0.174 HD
ATOM     11  HH  ARG D 557     -23.598  -1.335 -13.355  1.00 35.49     0.174 HD
ATOM     12  HH  ARG D 557     -23.786  -2.787 -13.101  1.00 35.49     0.174 HD
ATOM     13  HE  ARG D 557     -24.849  -0.249 -14.668  1.00 35.49     0.178 HD
ENDBRANCH   4   5
ENDBRANCH   3   4
ENDBRANCH   2   3
ENDBRANCH   1   2
END_RES ARG D 557
BEGIN_RES GLU D 570
REMARK  3 active torsions:
REMARK  status: ('A' for Active; 'I' for Inactive)
REMARK    5  A    between atoms: CA   and  CB  
REMARK    6  A    between atoms: CB   and  CG  
REMARK    7  A    between atoms: CG   and  CD  
ROOT
ATOM     14  CA  GLU D 570     -18.033  -6.348 -13.375  1.00 32.92     0.160 C 
ENDROOT
BRANCH  14  15
ATOM     15  CB  GLU D 570     -19.500  -6.345 -13.794  1.00 32.92     0.043 C 
BRANCH  15  16
ATOM     16  CG  GLU D 570     -19.810  -5.972 -15.198  1.00 32.92     0.100 C 
BRANCH  16  17
ATOM     17  CD  GLU D 570     -21.170  -5.332 -15.352  1.00 32.92     0.185 C 
ATOM     18  OE1 GLU D 570     -21.678  -5.256 -16.487  1.00 32.92    -0.647 OA
ATOM     19  OE2 GLU D 570     -21.726  -4.888 -14.328  1.00 32.92    -0.647 OA
ENDBRANCH  16  17
ENDBRANCH  15  16
ENDBRANCH  14  15
END_RES GLU D 570
ENDMDL
MODEL 8
REMARK VINA RESULT:      -6.4      2.033      4.252
REMARK  20 active torsions:
REMARK  status: ('A' for Active; 'I' for Inactive)
REMARK    1  A    between atoms: C_2  and  C_3 
REMARK    2  A    between atoms: C_3  and  C_4 
REMARK    3  A    between atoms: C_4  and  C_5 
REMARK    4  A    between atoms: C_5  and  C_6 
REMARK    5  A    between atoms: C_6  and  C_7 
REMARK    6  A    between atoms: C_7  and  C_8 
REMARK    7  A    between atoms: C_8  and  C_9 
REMARK    8  A    between atoms: C_9  and  C_10 
REMARK    9  A    between atoms: C_10  and  C_11 
REMARK   10  A    between atoms: C_11  and  C_12 
REMARK   11  A    between atoms: C_12  and  C_13 
REMARK   12  A    between atoms: C_13  and  C_14 
REMARK   13  A    between atoms: C_14  and  C_15 
REMARK   14  A    between atoms: C_15  and  C_16 
REMARK   15  A    between atoms: C_16  and  C_17 
REMARK   16  A    between atoms: C_17  and  C_18 
REMARK   17  A    between atoms: C_18  and  O_20 
REMARK   18  A    between atoms: O_20  and  C_21 
REMARK   19  A    between atoms: C_21  and  C_22 
REMARK   20  A    between atoms: C_22  and  O_24 
ROOT
HETATM    1  C   UNL     1     -21.578  -6.391  -3.568  1.00  0.00     0.000 C 
ENDROOT
BRANCH   1   2
HETATM    2  C   UNL     1     -21.297  -7.057  -2.232  1.00  0.00     0.000 C 
BRANCH   2   3
HETATM    3  C   UNL     1     -22.201  -6.473  -1.160  1.00  0.00     0.000 C 
BRANCH   3   4
HETATM    4  C   UNL     1     -22.687  -7.572  -0.233  1.00  0.00     0.000 C 
BRANCH   4   5
HETATM    5  C   UNL     1     -21.513  -8.413   0.236  1.00  0.00     0.000 C 
BRANCH   5   6
HETATM    6  C   UNL     1     -21.847  -9.887   0.103  1.00  0.00     0.000 C 
BRANCH   6   7
HETATM    7  C   UNL     1     -23.144 -10.055  -0.668  1.00  0.00     0.000 C 
BRANCH   7   8
HETATM    8  C   UNL     1     -23.963 -11.179  -0.060  1.00  0.00     0.000 C 
BRANCH   8   9
HETATM    9  C   UNL     1     -23.899 -12.408  -0.948  1.00  0.00     0.000 C 
BRANCH   9  10
HETATM   10  C   UNL     1     -23.689 -13.653  -0.103  1.00  0.00     0.000 C 
BRANCH  10  11
HETATM   11  C   UNL     1     -23.377 -13.266   1.333  1.00  0.00    -0.000 C 
BRANCH  11  12
HETATM   12  C   UNL     1     -22.048 -13.862   1.771  1.00  0.00    -0.005 C 
HETATM   13  C   UNL     1     -20.997 -13.661   0.699  1.00  0.00     0.005 C 
ENDBRANCH  11  12
ENDBRANCH  10  11
ENDBRANCH   9  10
ENDBRANCH   8   9
ENDBRANCH   7   8
ENDBRANCH   6   7
ENDBRANCH   5   6
ENDBRANCH   4   5
ENDBRANCH   3   4
ENDBRANCH   2   3
ENDBRANCH   1   2
BRANCH   1  14
HETATM   14  C   UNL     1     -21.733  -7.438  -4.661  1.00  0.00     0.000 C 
BRANCH  14  15
HETATM   15  C   UNL     1     -20.563  -7.365  -5.637  1.00  0.00     0.000 C 
BRANCH  15  16
HETATM   16  C   UNL     1     -20.391  -5.940  -6.144  1.00  0.00     0.010 C 
BRANCH  16  17
HETATM   17  C   UNL     1     -21.079  -5.716  -7.490  1.00  0.00     0.111 C 
BRANCH  17  18
HETATM   18  C   UNL     1     -20.412  -4.582  -8.224  1.00  0.00     0.258 C 
HETATM   19  O   UNL     1     -19.278  -4.170  -7.976  1.00  0.00    -0.265 OA
BRANCH  18  20
HETATM   20  O   UNL     1     -21.261  -4.021  -9.127  1.00  0.00    -0.319 OA
BRANCH  20  21
HETATM   21  C   UNL     1     -22.587  -3.810  -8.613  1.00  0.00     0.210 C 
BRANCH  21  22
HETATM   22  C   UNL     1     -23.624  -3.577  -9.714  1.00  0.00     0.138 C 
HETATM   23  C   UNL     1     -23.965  -4.869 -10.434  1.00  0.00     0.041 C 
BRANCH  22  24
HETATM   24  O   UNL     1     -24.810  -3.004  -9.164  1.00  0.00    -0.394 OA
HETATM   25  H   UNL     1     -24.566  -2.481  -8.383  1.00  0.00     0.210 HD
ENDBRANCH  22  24
ENDBRANCH  21  22
ENDBRANCH  20  21
ENDBRANCH  18  20
ENDBRANCH  17  18
ENDBRANCH  16  17
ENDBRANCH  15  16
ENDBRANCH  14  15
ENDBRANCH   1  14
TORSDOF 20
BEGIN_RES ARG D 557
REMARK  4 active torsions:
REMARK  status: ('A' for Active; 'I' for Inactive)
REMARK    1  A    between atoms: CA   and  CB  
REMARK    2  A    between atoms: CB   and  CG  
REMARK    3  A    between atoms: CG   and  CD  
REMARK    4  A    between atoms: CD   and  NE  
REMARK       I    between atoms: NE   and  CZ  
REMARK       I    between atoms: CZ   and  NH1 
REMARK       I    between atoms: CZ   and  NH2 
ROOT
ATOM      1  CA  ARG D 557     -26.217   2.705 -17.014  1.00 35.49     0.159 C 
ENDROOT
BRANCH   1   2
ATOM      2  CB  ARG D 557     -26.789   1.319 -17.183  1.00 35.49     0.034 C 
BRANCH   2   3
ATOM      3  CG  ARG D 557     -28.229   1.227 -17.455  1.00 35.49     0.027 C 
BRANCH   3   4
ATOM      4  CD  ARG D 557     -28.923   0.315 -16.518  1.00 35.49     0.116 C 
BRANCH   4   5
ATOM      5  NE  ARG D 557     -29.323  -0.914 -17.153  1.00 35.49    -0.212 N 
ATOM      6  CZ  ARG D 557     -28.706  -2.069 -17.047  1.00 35.49     0.666 C 
ATOM      7  NH1 ARG D 557     -27.607  -2.223 -16.331  1.00 35.49    -0.235 N 
ATOM      8  NH2 ARG D 557     -29.222  -3.085 -17.676  1.00 35.49    -0.235 N 
ATOM      9  HH  ARG D 557     -27.252  -1.569 -15.907  1.00 35.49     0.174 HD
ATOM     10  HH  ARG D 557     -27.250  -3.002 -16.296  1.00 35.49     0.174 HD
ATOM     11  HH  ARG D 557     -29.936  -2.957 -18.124  1.00 35.49     0.174 HD
ATOM     12  HH  ARG D 557     -28.854  -3.848 -17.628  1.00 35.49     0.174 HD
ATOM     13  HE  ARG D 557     -29.980  -0.889 -17.692  1.00 35.49     0.178 HD
ENDBRANCH   4   5
ENDBRANCH   3   4
ENDBRANCH   2   3
ENDBRANCH   1   2
END_RES ARG D 557
BEGIN_RES GLU D 570
REMARK  3 active torsions:
REMARK  status: ('A' for Active; 'I' for Inactive)
REMARK    5  A    between atoms: CA   and  CB  
REMARK    6  A    between atoms: CB   and  CG  
REMARK    7  A    between atoms: CG   and  CD  
ROOT
ATOM     14  CA  GLU D 570     -18.033  -6.348 -13.375  1.00 32.92     0.160 C 
ENDROOT
BRANCH  14  15
ATOM     15  CB  GLU D 570     -19.500  -6.345 -13.794  1.00 32.92     0.043 C 
BRANCH  15  16
ATOM     16  CG  GLU D 570     -19.797  -6.239 -15.246  1.00 32.92     0.100 C 
BRANCH  16  17
ATOM     17  CD  GLU D 570     -20.797  -7.268 -15.719  1.00 32.92     0.185 C 
ATOM     18  OE1 GLU D 570     -21.711  -6.914 -16.490  1.00 32.92    -0.647 OA
ATOM     19  OE2 GLU D 570     -20.677  -8.437 -15.301  1.00 32.92    -0.647 OA
ENDBRANCH  16  17
ENDBRANCH  15  16
ENDBRANCH  14  15
END_RES GLU D 570
ENDMDL
MODEL 9
REMARK VINA RESULT:      -6.4      3.403      6.937
REMARK  20 active torsions:
REMARK  status: ('A' for Active; 'I' for Inactive)
REMARK    1  A    between atoms: C_2  and  C_3 
REMARK    2  A    between atoms: C_3  and  C_4 
REMARK    3  A    between atoms: C_4  and  C_5 
REMARK    4  A    between atoms: C_5  and  C_6 
REMARK    5  A    between atoms: C_6  and  C_7 
REMARK    6  A    between atoms: C_7  and  C_8 
REMARK    7  A    between atoms: C_8  and  C_9 
REMARK    8  A    between atoms: C_9  and  C_10 
REMARK    9  A    between atoms: C_10  and  C_11 
REMARK   10  A    between atoms: C_11  and  C_12 
REMARK   11  A    between atoms: C_12  and  C_13 
REMARK   12  A    between atoms: C_13  and  C_14 
REMARK   13  A    between atoms: C_14  and  C_15 
REMARK   14  A    between atoms: C_15  and  C_16 
REMARK   15  A    between atoms: C_16  and  C_17 
REMARK   16  A    between atoms: C_17  and  C_18 
REMARK   17  A    between atoms: C_18  and  O_20 
REMARK   18  A    between atoms: O_20  and  C_21 
REMARK   19  A    between atoms: C_21  and  C_22 
REMARK   20  A    between atoms: C_22  and  O_24 
ROOT
HETATM    1  C   UNL     1     -23.433  -5.516 -13.831  1.00  0.00     0.000 C 
ENDROOT
BRANCH   1   2
HETATM    2  C   UNL     1     -23.321  -4.046 -14.193  1.00  0.00     0.000 C 
BRANCH   2   3
HETATM    3  C   UNL     1     -23.937  -3.192 -13.097  1.00  0.00     0.000 C 
BRANCH   3   4
HETATM    4  C   UNL     1     -22.912  -2.922 -12.010  1.00  0.00     0.000 C 
BRANCH   4   5
HETATM    5  C   UNL     1     -23.434  -3.412 -10.671  1.00  0.00     0.000 C 
BRANCH   5   6
HETATM    6  C   UNL     1     -22.617  -4.601 -10.202  1.00  0.00     0.000 C 
BRANCH   6   7
HETATM    7  C   UNL     1     -21.150  -4.380 -10.528  1.00  0.00     0.000 C 
BRANCH   7   8
HETATM    8  C   UNL     1     -20.405  -3.942  -9.279  1.00  0.00     0.000 C 
BRANCH   8   9
HETATM    9  C   UNL     1     -20.233  -5.120  -8.337  1.00  0.00     0.000 C 
BRANCH   9  10
HETATM   10  C   UNL     1     -19.377  -4.717  -7.148  1.00  0.00     0.000 C 
BRANCH  10  11
HETATM   11  C   UNL     1     -20.157  -4.895  -5.856  1.00  0.00    -0.000 C 
BRANCH  11  12
HETATM   12  C   UNL     1     -21.490  -5.575  -6.125  1.00  0.00    -0.005 C 
HETATM   13  C   UNL     1     -21.928  -6.381  -4.919  1.00  0.00     0.005 C 
ENDBRANCH  11  12
ENDBRANCH  10  11
ENDBRANCH   9  10
ENDBRANCH   8   9
ENDBRANCH   7   8
ENDBRANCH   6   7
ENDBRANCH   5   6
ENDBRANCH   4   5
ENDBRANCH   3   4
ENDBRANCH   2   3
ENDBRANCH   1   2
BRANCH   1  14
HETATM   14  C   UNL     1     -24.179  -6.275 -14.918  1.00  0.00     0.000 C 
BRANCH  14  15
HETATM   15  C   UNL     1     -25.463  -5.541 -15.292  1.00  0.00     0.000 C 
BRANCH  15  16
HETATM   16  C   UNL     1     -26.356  -6.443 -16.132  1.00  0.00     0.010 C 
BRANCH  16  17
HETATM   17  C   UNL     1     -25.931  -6.478 -17.600  1.00  0.00     0.111 C 
BRANCH  17  18
HETATM   18  C   UNL     1     -27.117  -6.192 -18.483  1.00  0.00     0.258 C 
HETATM   19  O   UNL     1     -28.208  -5.796 -18.070  1.00  0.00    -0.265 OA
BRANCH  18  20
HETATM   20  O   UNL     1     -26.848  -6.513 -19.778  1.00  0.00    -0.319 OA
BRANCH  20  21
HETATM   21  C   UNL     1     -25.447  -6.705 -20.041  1.00  0.00     0.210 C 
BRANCH  21  22
HETATM   22  C   UNL     1     -25.186  -7.647 -21.218  1.00  0.00     0.138 C 
HETATM   23  C   UNL     1     -23.798  -8.258 -21.140  1.00  0.00     0.041 C 
BRANCH  22  24
HETATM   24  O   UNL     1     -26.167  -8.683 -21.250  1.00  0.00    -0.394 OA
HETATM   25  H   UNL     1     -26.382  -8.933 -20.337  1.00  0.00     0.210 HD
ENDBRANCH  22  24
ENDBRANCH  21  22
ENDBRANCH  20  21
ENDBRANCH  18  20
ENDBRANCH  17  18
ENDBRANCH  16  17
ENDBRANCH  15  16
ENDBRANCH  14  15
ENDBRANCH   1  14
TORSDOF 20
BEGIN_RES ARG D 557
REMARK  4 active torsions:
REMARK  status: ('A' for Active; 'I' for Inactive)
REMARK    1  A    between atoms: CA   and  CB  
REMARK    2  A    between atoms: CB   and  CG  
REMARK    3  A    between atoms: CG   and  CD  
REMARK    4  A    between atoms: CD   and  NE  
REMARK       I    between atoms: NE   and  CZ  
REMARK       I    between atoms: CZ   and  NH1 
REMARK       I    between atoms: CZ   and  NH2 
ROOT
ATOM      1  CA  ARG D 557     -26.217   2.705 -17.014  1.00 35.49     0.159 C 
ENDROOT
BRANCH   1   2
ATOM      2  CB  ARG D 557     -26.789   1.319 -17.183  1.00 35.49     0.034 C 
BRANCH   2   3
ATOM      3  CG  ARG D 557     -28.230   1.227 -17.449  1.00 35.49     0.027 C 
BRANCH   3   4
ATOM      4  CD  ARG D 557     -28.918   0.307 -16.515  1.00 35.49     0.116 C 
BRANCH   4   5
ATOM      5  NE  ARG D 557     -28.202  -0.930 -16.346  1.00 35.49    -0.212 N 
ATOM      6  CZ  ARG D 557     -28.568  -2.101 -16.820  1.00 35.49     0.666 C 
ATOM      7  NH1 ARG D 557     -29.679  -2.269 -17.513  1.00 35.49    -0.235 N 
ATOM      8  NH2 ARG D 557     -27.785  -3.114 -16.588  1.00 35.49    -0.235 N 
ATOM      9  HH  ARG D 557     -30.208  -1.616 -17.679  1.00 35.49     0.174 HD
ATOM     10  HH  ARG D 557     -29.865  -3.055 -17.799  1.00 35.49     0.174 HD
ATOM     11  HH  ARG D 557     -27.070  -2.974 -16.144  1.00 35.49     0.174 HD
ATOM     12  HH  ARG D 557     -27.986  -3.884 -16.881  1.00 35.49     0.174 HD
ATOM     13  HE  ARG D 557     -27.511  -0.928 -15.851  1.00 35.49     0.178 HD
ENDBRANCH   4   5
ENDBRANCH   3   4
ENDBRANCH   2   3
ENDBRANCH   1   2
END_RES ARG D 557
BEGIN_RES GLU D 570
REMARK  3 active torsions:
REMARK  status: ('A' for Active; 'I' for Inactive)
REMARK    5  A    between atoms: CA   and  CB  
REMARK    6  A    between atoms: CB   and  CG  
REMARK    7  A    between atoms: CG   and  CD  
ROOT
ATOM     14  CA  GLU D 570     -18.033  -6.348 -13.375  1.00 32.92     0.160 C 
ENDROOT
BRANCH  14  15
ATOM     15  CB  GLU D 570     -19.500  -6.345 -13.794  1.00 32.92     0.043 C 
BRANCH  15  16
ATOM     16  CG  GLU D 570     -19.801  -6.110 -15.230  1.00 32.92     0.100 C 
BRANCH  16  17
ATOM     17  CD  GLU D 570     -20.657  -7.197 -15.838  1.00 32.92     0.185 C 
ATOM     18  OE1 GLU D 570     -21.249  -6.972 -16.911  1.00 32.92    -0.647 OA
ATOM     19  OE2 GLU D 570     -20.750  -8.279 -15.226  1.00 32.92    -0.647 OA
ENDBRANCH  16  17
ENDBRANCH  15  16
ENDBRANCH  14  15
END_RES GLU D 570
ENDMDL
