MODEL 1
REMARK VINA RESULT:      -2.6      0.000      0.000
REMARK  1 active torsions:
REMARK  status: ('A' for Active; 'I' for Inactive)
REMARK    1  A    between atoms: C_2  and  O_3 
ROOT
HETATM    1  C   UNL     1     -23.988  -4.801 -10.342  1.00  0.00     0.033 C 
HETATM    2  C   UNL     1     -24.409  -3.366 -10.104  1.00  0.00     0.159 C 
ENDROOT
BRANCH   2   3
HETATM    3  O   UNL     1     -25.785  -3.314  -9.754  1.00  0.00    -0.401 OA
HETATM    4  H   UNL     1     -25.951  -4.022  -9.110  1.00  0.00     0.209 HD
ENDBRANCH   2   3
TORSDOF 1
BEGIN_RES ARG D 557
REMARK  4 active torsions:
REMARK  status: ('A' for Active; 'I' for Inactive)
REMARK    1  A    between atoms: CA   and  CB  
REMARK    2  A    between atoms: CB   and  CG  
REMARK    3  A    between atoms: CG   and  CD  
REMARK    4  A    between atoms: CD   and  NE  
REMARK       I    between atoms: NE   and  CZ  
REMARK       I    between atoms: CZ   and  NH1 
REMARK       I    between atoms: CZ   and  NH2 
ROOT
ATOM      1  CA  ARG D 557     -26.217   2.705 -17.014  1.00 35.49     0.159 C 
ENDROOT
BRANCH   1   2
ATOM      2  CB  ARG D 557     -26.789   1.319 -17.183  1.00 35.49     0.034 C 
BRANCH   2   3
ATOM      3  CG  ARG D 557     -25.836   0.203 -17.152  1.00 35.49     0.027 C 
BRANCH   3   4
ATOM      4  CD  ARG D 557     -24.756   0.410 -16.161  1.00 35.49     0.116 C 
BRANCH   4   5
ATOM      5  NE  ARG D 557     -24.905  -0.442 -15.011  1.00 35.49    -0.212 N 
ATOM      6  CZ  ARG D 557     -24.091  -1.414 -14.664  1.00 35.49     0.666 C 
ATOM      7  NH1 ARG D 557     -23.020  -1.728 -15.370  1.00 35.49    -0.235 N 
ATOM      8  NH2 ARG D 557     -24.369  -2.071 -13.576  1.00 35.49    -0.235 N 
ATOM      9  HH  ARG D 557     -22.816  -1.307 -16.088  1.00 35.49     0.174 HD
ATOM     10  HH  ARG D 557     -22.524  -2.369 -15.093  1.00 35.49     0.174 HD
ATOM     11  HH  ARG D 557     -25.063  -1.841 -13.136  1.00 35.49     0.174 HD
ATOM     12  HH  ARG D 557     -23.865  -2.702 -13.318  1.00 35.49     0.174 HD
ATOM     13  HE  ARG D 557     -25.607  -0.357 -14.539  1.00 35.49     0.178 HD
ENDBRANCH   4   5
ENDBRANCH   3   4
ENDBRANCH   2   3
ENDBRANCH   1   2
END_RES ARG D 557
BEGIN_RES GLU D 570
REMARK  3 active torsions:
REMARK  status: ('A' for Active; 'I' for Inactive)
REMARK    5  A    between atoms: CA   and  CB  
REMARK    6  A    between atoms: CB   and  CG  
REMARK    7  A    between atoms: CG   and  CD  
ROOT
ATOM     14  CA  GLU D 570     -18.033  -6.348 -13.375  1.00 32.92     0.160 C 
ENDROOT
BRANCH  14  15
ATOM     15  CB  GLU D 570     -19.500  -6.345 -13.794  1.00 32.92     0.043 C 
BRANCH  15  16
ATOM     16  CG  GLU D 570     -20.447  -5.553 -12.967  1.00 32.92     0.100 C 
BRANCH  16  17
ATOM     17  CD  GLU D 570     -21.741  -5.246 -13.683  1.00 32.92     0.185 C 
ATOM     18  OE1 GLU D 570     -22.282  -4.137 -13.507  1.00 32.92    -0.647 OA
ATOM     19  OE2 GLU D 570     -22.227  -6.129 -14.416  1.00 32.92    -0.647 OA
ENDBRANCH  16  17
ENDBRANCH  15  16
ENDBRANCH  14  15
END_RES GLU D 570
ENDMDL
MODEL 2
REMARK VINA RESULT:      -2.3      3.679      4.678
REMARK  1 active torsions:
REMARK  status: ('A' for Active; 'I' for Inactive)
REMARK    1  A    between atoms: C_2  and  O_3 
ROOT
HETATM    1  C   UNL     1     -29.351  -4.540 -18.295  1.00  0.00     0.033 C 
HETATM    2  C   UNL     1     -30.468  -3.940 -17.467  1.00  0.00     0.159 C 
ENDROOT
BRANCH   2   3
HETATM    3  O   UNL     1     -31.171  -2.969 -18.228  1.00  0.00    -0.401 OA
HETATM    4  H   UNL     1     -31.811  -3.440 -18.786  1.00  0.00     0.209 HD
ENDBRANCH   2   3
TORSDOF 1
BEGIN_RES ARG D 557
REMARK  4 active torsions:
REMARK  status: ('A' for Active; 'I' for Inactive)
REMARK    1  A    between atoms: CA   and  CB  
REMARK    2  A    between atoms: CB   and  CG  
REMARK    3  A    between atoms: CG   and  CD  
REMARK    4  A    between atoms: CD   and  NE  
REMARK       I    between atoms: NE   and  CZ  
REMARK       I    between atoms: CZ   and  NH1 
REMARK       I    between atoms: CZ   and  NH2 
ROOT
ATOM      1  CA  ARG D 557     -26.217   2.705 -17.014  1.00 35.49     0.159 C 
ENDROOT
BRANCH   1   2
ATOM      2  CB  ARG D 557     -26.789   1.319 -17.183  1.00 35.49     0.034 C 
BRANCH   2   3
ATOM      3  CG  ARG D 557     -25.833   0.205 -17.181  1.00 35.49     0.027 C 
BRANCH   3   4
ATOM      4  CD  ARG D 557     -24.756   0.387 -16.181  1.00 35.49     0.116 C 
BRANCH   4   5
ATOM      5  NE  ARG D 557     -24.937  -0.458 -15.030  1.00 35.49    -0.212 N 
ATOM      6  CZ  ARG D 557     -24.133  -1.428 -14.656  1.00 35.49     0.666 C 
ATOM      7  NH1 ARG D 557     -23.044  -1.747 -15.331  1.00 35.49    -0.235 N 
ATOM      8  NH2 ARG D 557     -24.441  -2.078 -13.571  1.00 35.49    -0.235 N 
ATOM      9  HH  ARG D 557     -22.821  -1.331 -16.046  1.00 35.49     0.174 HD
ATOM     10  HH  ARG D 557     -22.556  -2.388 -15.037  1.00 35.49     0.174 HD
ATOM     11  HH  ARG D 557     -25.146  -1.845 -13.152  1.00 35.49     0.174 HD
ATOM     12  HH  ARG D 557     -23.945  -2.708 -13.296  1.00 35.49     0.174 HD
ATOM     13  HE  ARG D 557     -25.651  -0.369 -14.578  1.00 35.49     0.178 HD
ENDBRANCH   4   5
ENDBRANCH   3   4
ENDBRANCH   2   3
ENDBRANCH   1   2
END_RES ARG D 557
BEGIN_RES GLU D 570
REMARK  3 active torsions:
REMARK  status: ('A' for Active; 'I' for Inactive)
REMARK    5  A    between atoms: CA   and  CB  
REMARK    6  A    between atoms: CB   and  CG  
REMARK    7  A    between atoms: CG   and  CD  
ROOT
ATOM     14  CA  GLU D 570     -18.033  -6.348 -13.375  1.00 32.92     0.160 C 
ENDROOT
BRANCH  14  15
ATOM     15  CB  GLU D 570     -19.500  -6.345 -13.794  1.00 32.92     0.043 C 
BRANCH  15  16
ATOM     16  CG  GLU D 570     -20.439  -5.519 -12.992  1.00 32.92     0.100 C 
BRANCH  16  17
ATOM     17  CD  GLU D 570     -21.714  -5.189 -13.733  1.00 32.92     0.185 C 
ATOM     18  OE1 GLU D 570     -22.376  -4.193 -13.385  1.00 32.92    -0.647 OA
ATOM     19  OE2 GLU D 570     -22.063  -5.945 -14.661  1.00 32.92    -0.647 OA
ENDBRANCH  16  17
ENDBRANCH  15  16
ENDBRANCH  14  15
END_RES GLU D 570
ENDMDL
MODEL 3
REMARK VINA RESULT:      -2.2      6.231      6.328
REMARK  1 active torsions:
REMARK  status: ('A' for Active; 'I' for Inactive)
REMARK    1  A    between atoms: C_2  and  O_3 
ROOT
HETATM    1  C   UNL     1     -34.460  -6.199  -2.356  1.00  0.00     0.033 C 
HETATM    2  C   UNL     1     -34.215  -6.019  -0.873  1.00  0.00     0.159 C 
ENDROOT
BRANCH   2   3
HETATM    3  O   UNL     1     -33.650  -4.740  -0.624  1.00  0.00    -0.401 OA
HETATM    4  H   UNL     1     -32.760  -4.731  -1.015  1.00  0.00     0.209 HD
ENDBRANCH   2   3
TORSDOF 1
BEGIN_RES ARG D 557
REMARK  4 active torsions:
REMARK  status: ('A' for Active; 'I' for Inactive)
REMARK    1  A    between atoms: CA   and  CB  
REMARK    2  A    between atoms: CB   and  CG  
REMARK    3  A    between atoms: CG   and  CD  
REMARK    4  A    between atoms: CD   and  NE  
REMARK       I    between atoms: NE   and  CZ  
REMARK       I    between atoms: CZ   and  NH1 
REMARK       I    between atoms: CZ   and  NH2 
ROOT
ATOM      1  CA  ARG D 557     -26.217   2.705 -17.014  1.00 35.49     0.159 C 
ENDROOT
BRANCH   1   2
ATOM      2  CB  ARG D 557     -26.789   1.319 -17.183  1.00 35.49     0.034 C 
BRANCH   2   3
ATOM      3  CG  ARG D 557     -25.835   0.204 -17.163  1.00 35.49     0.027 C 
BRANCH   3   4
ATOM      4  CD  ARG D 557     -24.747   0.409 -16.179  1.00 35.49     0.116 C 
BRANCH   4   5
ATOM      5  NE  ARG D 557     -24.895  -0.436 -15.023  1.00 35.49    -0.212 N 
ATOM      6  CZ  ARG D 557     -24.082  -1.407 -14.673  1.00 35.49     0.666 C 
ATOM      7  NH1 ARG D 557     -23.014  -1.728 -15.380  1.00 35.49    -0.235 N 
ATOM      8  NH2 ARG D 557     -24.359  -2.057 -13.580  1.00 35.49    -0.235 N 
ATOM      9  HH  ARG D 557     -22.811  -1.312 -16.101  1.00 35.49     0.174 HD
ATOM     10  HH  ARG D 557     -22.519  -2.369 -15.101  1.00 35.49     0.174 HD
ATOM     11  HH  ARG D 557     -25.051  -1.823 -13.140  1.00 35.49     0.174 HD
ATOM     12  HH  ARG D 557     -23.856  -2.687 -13.319  1.00 35.49     0.174 HD
ATOM     13  HE  ARG D 557     -25.596  -0.346 -14.550  1.00 35.49     0.178 HD
ENDBRANCH   4   5
ENDBRANCH   3   4
ENDBRANCH   2   3
ENDBRANCH   1   2
END_RES ARG D 557
BEGIN_RES GLU D 570
REMARK  3 active torsions:
REMARK  status: ('A' for Active; 'I' for Inactive)
REMARK    5  A    between atoms: CA   and  CB  
REMARK    6  A    between atoms: CB   and  CG  
REMARK    7  A    between atoms: CG   and  CD  
ROOT
ATOM     14  CA  GLU D 570     -18.033  -6.348 -13.375  1.00 32.92     0.160 C 
ENDROOT
BRANCH  14  15
ATOM     15  CB  GLU D 570     -19.500  -6.345 -13.794  1.00 32.92     0.043 C 
BRANCH  15  16
ATOM     16  CG  GLU D 570     -20.441  -5.529 -12.985  1.00 32.92     0.100 C 
BRANCH  16  17
ATOM     17  CD  GLU D 570     -21.745  -5.253 -13.697  1.00 32.92     0.185 C 
ATOM     18  OE1 GLU D 570     -22.228  -6.132 -14.437  1.00 32.92    -0.647 OA
ATOM     19  OE2 GLU D 570     -22.280  -4.140 -13.527  1.00 32.92    -0.647 OA
ENDBRANCH  16  17
ENDBRANCH  15  16
ENDBRANCH  14  15
END_RES GLU D 570
ENDMDL
MODEL 4
REMARK VINA RESULT:      -2.2      3.200      4.244
REMARK  1 active torsions:
REMARK  status: ('A' for Active; 'I' for Inactive)
REMARK    1  A    between atoms: C_2  and  O_3 
ROOT
HETATM    1  C   UNL     1     -23.488  -2.056 -14.651  1.00  0.00     0.033 C 
HETATM    2  C   UNL     1     -24.862  -1.424 -14.716  1.00  0.00     0.159 C 
ENDROOT
BRANCH   2   3
HETATM    3  O   UNL     1     -24.745  -0.013 -14.824  1.00  0.00    -0.401 OA
HETATM    4  H   UNL     1     -25.378   0.382 -14.202  1.00  0.00     0.209 HD
ENDBRANCH   2   3
TORSDOF 1
BEGIN_RES ARG D 557
REMARK  4 active torsions:
REMARK  status: ('A' for Active; 'I' for Inactive)
REMARK    1  A    between atoms: CA   and  CB  
REMARK    2  A    between atoms: CB   and  CG  
REMARK    3  A    between atoms: CG   and  CD  
REMARK    4  A    between atoms: CD   and  NE  
REMARK       I    between atoms: NE   and  CZ  
REMARK       I    between atoms: CZ   and  NH1 
REMARK       I    between atoms: CZ   and  NH2 
ROOT
ATOM      1  CA  ARG D 557     -26.217   2.705 -17.014  1.00 35.49     0.159 C 
ENDROOT
BRANCH   1   2
ATOM      2  CB  ARG D 557     -26.789   1.319 -17.183  1.00 35.49     0.034 C 
BRANCH   2   3
ATOM      3  CG  ARG D 557     -28.237   1.224 -17.403  1.00 35.49     0.027 C 
BRANCH   3   4
ATOM      4  CD  ARG D 557     -28.889   0.275 -16.472  1.00 35.49     0.116 C 
BRANCH   4   5
ATOM      5  NE  ARG D 557     -29.334  -0.920 -17.139  1.00 35.49    -0.212 N 
ATOM      6  CZ  ARG D 557     -28.751  -2.096 -17.079  1.00 35.49     0.666 C 
ATOM      7  NH1 ARG D 557     -27.648  -2.306 -16.385  1.00 35.49    -0.235 N 
ATOM      8  NH2 ARG D 557     -29.307  -3.075 -17.732  1.00 35.49    -0.235 N 
ATOM      9  HH  ARG D 557     -27.267  -1.677 -15.946  1.00 35.49     0.174 HD
ATOM     10  HH  ARG D 557     -27.314  -3.095 -16.381  1.00 35.49     0.174 HD
ATOM     11  HH  ARG D 557     -30.023  -2.912 -18.165  1.00 35.49     0.174 HD
ATOM     12  HH  ARG D 557     -28.962  -3.850 -17.714  1.00 35.49     0.174 HD
ATOM     13  HE  ARG D 557     -29.998  -0.858 -17.667  1.00 35.49     0.178 HD
ENDBRANCH   4   5
ENDBRANCH   3   4
ENDBRANCH   2   3
ENDBRANCH   1   2
END_RES ARG D 557
BEGIN_RES GLU D 570
REMARK  3 active torsions:
REMARK  status: ('A' for Active; 'I' for Inactive)
REMARK    5  A    between atoms: CA   and  CB  
REMARK    6  A    between atoms: CB   and  CG  
REMARK    7  A    between atoms: CG   and  CD  
ROOT
ATOM     14  CA  GLU D 570     -18.033  -6.348 -13.375  1.00 32.92     0.160 C 
ENDROOT
BRANCH  14  15
ATOM     15  CB  GLU D 570     -19.500  -6.345 -13.794  1.00 32.92     0.043 C 
BRANCH  15  16
ATOM     16  CG  GLU D 570     -20.443  -5.537 -12.979  1.00 32.92     0.100 C 
BRANCH  16  17
ATOM     17  CD  GLU D 570     -21.735  -5.232 -13.701  1.00 32.92     0.185 C 
ATOM     18  OE1 GLU D 570     -22.784  -5.111 -13.040  1.00 32.92    -0.647 OA
ATOM     19  OE2 GLU D 570     -21.700  -5.129 -14.943  1.00 32.92    -0.647 OA
ENDBRANCH  16  17
ENDBRANCH  15  16
ENDBRANCH  14  15
END_RES GLU D 570
ENDMDL
MODEL 5
REMARK VINA RESULT:      -2.1      4.075      4.252
REMARK  1 active torsions:
REMARK  status: ('A' for Active; 'I' for Inactive)
REMARK    1  A    between atoms: C_2  and  O_3 
ROOT
HETATM    1  C   UNL     1     -33.493  -3.183 -10.898  1.00  0.00     0.033 C 
HETATM    2  C   UNL     1     -32.716  -4.046 -11.869  1.00  0.00     0.159 C 
ENDROOT
BRANCH   2   3
HETATM    3  O   UNL     1     -32.984  -5.419 -11.623  1.00  0.00    -0.401 OA
HETATM    4  H   UNL     1     -33.888  -5.601 -11.932  1.00  0.00     0.209 HD
ENDBRANCH   2   3
TORSDOF 1
BEGIN_RES ARG D 557
REMARK  4 active torsions:
REMARK  status: ('A' for Active; 'I' for Inactive)
REMARK    1  A    between atoms: CA   and  CB  
REMARK    2  A    between atoms: CB   and  CG  
REMARK    3  A    between atoms: CG   and  CD  
REMARK    4  A    between atoms: CD   and  NE  
REMARK       I    between atoms: NE   and  CZ  
REMARK       I    between atoms: CZ   and  NH1 
REMARK       I    between atoms: CZ   and  NH2 
ROOT
ATOM      1  CA  ARG D 557     -26.217   2.705 -17.014  1.00 35.49     0.159 C 
ENDROOT
BRANCH   1   2
ATOM      2  CB  ARG D 557     -26.789   1.319 -17.183  1.00 35.49     0.034 C 
BRANCH   2   3
ATOM      3  CG  ARG D 557     -25.833   0.205 -17.184  1.00 35.49     0.027 C 
BRANCH   3   4
ATOM      4  CD  ARG D 557     -24.742   0.396 -16.201  1.00 35.49     0.116 C 
BRANCH   4   5
ATOM      5  NE  ARG D 557     -24.907  -0.438 -15.040  1.00 35.49    -0.212 N 
ATOM      6  CZ  ARG D 557     -24.098  -1.406 -14.669  1.00 35.49     0.666 C 
ATOM      7  NH1 ARG D 557     -23.020  -1.732 -15.358  1.00 35.49    -0.235 N 
ATOM      8  NH2 ARG D 557     -24.391  -2.047 -13.575  1.00 35.49    -0.235 N 
ATOM      9  HH  ARG D 557     -22.807  -1.323 -16.080  1.00 35.49     0.174 HD
ATOM     10  HH  ARG D 557     -22.529  -2.371 -15.066  1.00 35.49     0.174 HD
ATOM     11  HH  ARG D 557     -25.090  -1.809 -13.147  1.00 35.49     0.174 HD
ATOM     12  HH  ARG D 557     -23.891  -2.675 -13.302  1.00 35.49     0.174 HD
ATOM     13  HE  ARG D 557     -25.614  -0.345 -14.578  1.00 35.49     0.178 HD
ENDBRANCH   4   5
ENDBRANCH   3   4
ENDBRANCH   2   3
ENDBRANCH   1   2
END_RES ARG D 557
BEGIN_RES GLU D 570
REMARK  3 active torsions:
REMARK  status: ('A' for Active; 'I' for Inactive)
REMARK    5  A    between atoms: CA   and  CB  
REMARK    6  A    between atoms: CB   and  CG  
REMARK    7  A    between atoms: CG   and  CD  
ROOT
ATOM     14  CA  GLU D 570     -18.033  -6.348 -13.375  1.00 32.92     0.160 C 
ENDROOT
BRANCH  14  15
ATOM     15  CB  GLU D 570     -19.500  -6.345 -13.794  1.00 32.92     0.043 C 
BRANCH  15  16
ATOM     16  CG  GLU D 570     -20.446  -5.549 -12.969  1.00 32.92     0.100 C 
BRANCH  16  17
ATOM     17  CD  GLU D 570     -21.694  -5.152 -13.722  1.00 32.92     0.185 C 
ATOM     18  OE1 GLU D 570     -22.017  -5.793 -14.741  1.00 32.92    -0.647 OA
ATOM     19  OE2 GLU D 570     -22.346  -4.177 -13.299  1.00 32.92    -0.647 OA
ENDBRANCH  16  17
ENDBRANCH  15  16
ENDBRANCH  14  15
END_RES GLU D 570
ENDMDL
MODEL 6
REMARK VINA RESULT:      -2.1      5.004      5.056
REMARK  1 active torsions:
REMARK  status: ('A' for Active; 'I' for Inactive)
REMARK    1  A    between atoms: C_2  and  O_3 
ROOT
HETATM    1  C   UNL     1     -23.063  -8.081   0.383  1.00  0.00     0.033 C 
HETATM    2  C   UNL     1     -22.075  -7.453  -0.577  1.00  0.00     0.159 C 
ENDROOT
BRANCH   2   3
HETATM    3  O   UNL     1     -22.632  -6.277  -1.148  1.00  0.00    -0.401 OA
HETATM    4  H   UNL     1     -23.420  -6.044  -0.630  1.00  0.00     0.209 HD
ENDBRANCH   2   3
TORSDOF 1
BEGIN_RES ARG D 557
REMARK  4 active torsions:
REMARK  status: ('A' for Active; 'I' for Inactive)
REMARK    1  A    between atoms: CA   and  CB  
REMARK    2  A    between atoms: CB   and  CG  
REMARK    3  A    between atoms: CG   and  CD  
REMARK    4  A    between atoms: CD   and  NE  
REMARK       I    between atoms: NE   and  CZ  
REMARK       I    between atoms: CZ   and  NH1 
REMARK       I    between atoms: CZ   and  NH2 
ROOT
ATOM      1  CA  ARG D 557     -26.217   2.705 -17.014  1.00 35.49     0.159 C 
ENDROOT
BRANCH   1   2
ATOM      2  CB  ARG D 557     -26.789   1.319 -17.183  1.00 35.49     0.034 C 
BRANCH   2   3
ATOM      3  CG  ARG D 557     -25.838   0.202 -17.137  1.00 35.49     0.027 C 
BRANCH   3   4
ATOM      4  CD  ARG D 557     -24.762   0.417 -16.143  1.00 35.49     0.116 C 
BRANCH   4   5
ATOM      5  NE  ARG D 557     -24.895  -0.452 -15.003  1.00 35.49    -0.212 N 
ATOM      6  CZ  ARG D 557     -24.067  -1.418 -14.673  1.00 35.49     0.666 C 
ATOM      7  NH1 ARG D 557     -22.997  -1.710 -15.388  1.00 35.49    -0.235 N 
ATOM      8  NH2 ARG D 557     -24.333  -2.093 -13.592  1.00 35.49    -0.235 N 
ATOM      9  HH  ARG D 557     -22.802  -1.277 -16.102  1.00 35.49     0.174 HD
ATOM     10  HH  ARG D 557     -22.492  -2.349 -15.123  1.00 35.49     0.174 HD
ATOM     11  HH  ARG D 557     -25.027  -1.877 -13.146  1.00 35.49     0.174 HD
ATOM     12  HH  ARG D 557     -23.820  -2.721 -13.345  1.00 35.49     0.174 HD
ATOM     13  HE  ARG D 557     -25.596  -0.381 -14.527  1.00 35.49     0.178 HD
ENDBRANCH   4   5
ENDBRANCH   3   4
ENDBRANCH   2   3
ENDBRANCH   1   2
END_RES ARG D 557
BEGIN_RES GLU D 570
REMARK  3 active torsions:
REMARK  status: ('A' for Active; 'I' for Inactive)
REMARK    5  A    between atoms: CA   and  CB  
REMARK    6  A    between atoms: CB   and  CG  
REMARK    7  A    between atoms: CG   and  CD  
ROOT
ATOM     14  CA  GLU D 570     -18.033  -6.348 -13.375  1.00 32.92     0.160 C 
ENDROOT
BRANCH  14  15
ATOM     15  CB  GLU D 570     -19.500  -6.345 -13.794  1.00 32.92     0.043 C 
BRANCH  15  16
ATOM     16  CG  GLU D 570     -20.451  -5.575 -12.951  1.00 32.92     0.100 C 
BRANCH  16  17
ATOM     17  CD  GLU D 570     -21.737  -5.239 -13.670  1.00 32.92     0.185 C 
ATOM     18  OE1 GLU D 570     -22.219  -4.097 -13.546  1.00 32.92    -0.647 OA
ATOM     19  OE2 GLU D 570     -22.276  -6.133 -14.352  1.00 32.92    -0.647 OA
ENDBRANCH  16  17
ENDBRANCH  15  16
ENDBRANCH  14  15
END_RES GLU D 570
ENDMDL
MODEL 7
REMARK VINA RESULT:      -2.0      4.550      5.328
REMARK  1 active torsions:
REMARK  status: ('A' for Active; 'I' for Inactive)
REMARK    1  A    between atoms: C_2  and  O_3 
ROOT
HETATM    1  C   UNL     1     -25.889   5.943 -10.036  1.00  0.00     0.033 C 
HETATM    2  C   UNL     1     -26.316   7.183 -10.792  1.00  0.00     0.159 C 
ENDROOT
BRANCH   2   3
HETATM    3  O   UNL     1     -27.565   6.960 -11.429  1.00  0.00    -0.401 OA
HETATM    4  H   UNL     1     -27.731   7.712 -12.022  1.00  0.00     0.209 HD
ENDBRANCH   2   3
TORSDOF 1
BEGIN_RES ARG D 557
REMARK  4 active torsions:
REMARK  status: ('A' for Active; 'I' for Inactive)
REMARK    1  A    between atoms: CA   and  CB  
REMARK    2  A    between atoms: CB   and  CG  
REMARK    3  A    between atoms: CG   and  CD  
REMARK    4  A    between atoms: CD   and  NE  
REMARK       I    between atoms: NE   and  CZ  
REMARK       I    between atoms: CZ   and  NH1 
REMARK       I    between atoms: CZ   and  NH2 
ROOT
ATOM      1  CA  ARG D 557     -26.217   2.705 -17.014  1.00 35.49     0.159 C 
ENDROOT
BRANCH   1   2
ATOM      2  CB  ARG D 557     -26.789   1.319 -17.183  1.00 35.49     0.034 C 
BRANCH   2   3
ATOM      3  CG  ARG D 557     -25.862   0.195 -17.003  1.00 35.49     0.027 C 
BRANCH   3   4
ATOM      4  CD  ARG D 557     -26.292  -0.725 -15.926  1.00 35.49     0.116 C 
BRANCH   4   5
ATOM      5  NE  ARG D 557     -25.257  -0.938 -14.948  1.00 35.49    -0.212 N 
ATOM      6  CZ  ARG D 557     -25.015  -2.066 -14.320  1.00 35.49     0.666 C 
ATOM      7  NH1 ARG D 557     -25.733  -3.156 -14.517  1.00 35.49    -0.235 N 
ATOM      8  NH2 ARG D 557     -24.021  -2.084 -13.480  1.00 35.49    -0.235 N 
ATOM      9  HH  ARG D 557     -26.390  -3.168 -15.067  1.00 35.49     0.174 HD
ATOM     10  HH  ARG D 557     -25.526  -3.864 -14.081  1.00 35.49     0.174 HD
ATOM     11  HH  ARG D 557     -23.570  -1.367 -13.378  1.00 35.49     0.174 HD
ATOM     12  HH  ARG D 557     -23.831  -2.795 -13.059  1.00 35.49     0.174 HD
ATOM     13  HE  ARG D 557     -24.793  -0.268 -14.706  1.00 35.49     0.178 HD
ENDBRANCH   4   5
ENDBRANCH   3   4
ENDBRANCH   2   3
ENDBRANCH   1   2
END_RES ARG D 557
BEGIN_RES GLU D 570
REMARK  3 active torsions:
REMARK  status: ('A' for Active; 'I' for Inactive)
REMARK    5  A    between atoms: CA   and  CB  
REMARK    6  A    between atoms: CB   and  CG  
REMARK    7  A    between atoms: CG   and  CD  
ROOT
ATOM     14  CA  GLU D 570     -18.033  -6.348 -13.375  1.00 32.92     0.160 C 
ENDROOT
BRANCH  14  15
ATOM     15  CB  GLU D 570     -19.500  -6.345 -13.794  1.00 32.92     0.043 C 
BRANCH  15  16
ATOM     16  CG  GLU D 570     -20.442  -5.532 -12.982  1.00 32.92     0.100 C 
BRANCH  16  17
ATOM     17  CD  GLU D 570     -21.684  -5.133 -13.745  1.00 32.92     0.185 C 
ATOM     18  OE1 GLU D 570     -21.644  -5.097 -14.990  1.00 32.92    -0.647 OA
ATOM     19  OE2 GLU D 570     -22.703  -4.837 -13.089  1.00 32.92    -0.647 OA
ENDBRANCH  16  17
ENDBRANCH  15  16
ENDBRANCH  14  15
END_RES GLU D 570
ENDMDL
MODEL 8
REMARK VINA RESULT:      -2.0      2.729      3.237
REMARK  1 active torsions:
REMARK  status: ('A' for Active; 'I' for Inactive)
REMARK    1  A    between atoms: C_2  and  O_3 
ROOT
HETATM    1  C   UNL     1     -23.857  -4.793 -10.436  1.00  0.00     0.033 C 
HETATM    2  C   UNL     1     -24.448  -3.406 -10.576  1.00  0.00     0.159 C 
ENDROOT
BRANCH   2   3
HETATM    3  O   UNL     1     -25.608  -3.288  -9.765  1.00  0.00    -0.401 OA
HETATM    4  H   UNL     1     -25.754  -2.342  -9.598  1.00  0.00     0.209 HD
ENDBRANCH   2   3
TORSDOF 1
BEGIN_RES ARG D 557
REMARK  4 active torsions:
REMARK  status: ('A' for Active; 'I' for Inactive)
REMARK    1  A    between atoms: CA   and  CB  
REMARK    2  A    between atoms: CB   and  CG  
REMARK    3  A    between atoms: CG   and  CD  
REMARK    4  A    between atoms: CD   and  NE  
REMARK       I    between atoms: NE   and  CZ  
REMARK       I    between atoms: CZ   and  NH1 
REMARK       I    between atoms: CZ   and  NH2 
ROOT
ATOM      1  CA  ARG D 557     -26.217   2.705 -17.014  1.00 35.49     0.159 C 
ENDROOT
BRANCH   1   2
ATOM      2  CB  ARG D 557     -26.789   1.319 -17.183  1.00 35.49     0.034 C 
BRANCH   2   3
ATOM      3  CG  ARG D 557     -28.200   1.138 -16.821  1.00 35.49     0.027 C 
BRANCH   3   4
ATOM      4  CD  ARG D 557     -28.734  -0.169 -17.269  1.00 35.49     0.116 C 
BRANCH   4   5
ATOM      5  NE  ARG D 557     -28.015  -1.274 -16.693  1.00 35.49    -0.212 N 
ATOM      6  CZ  ARG D 557     -28.305  -2.546 -16.853  1.00 35.49     0.666 C 
ATOM      7  NH1 ARG D 557     -29.334  -2.954 -17.574  1.00 35.49    -0.235 N 
ATOM      8  NH2 ARG D 557     -27.530  -3.416 -16.274  1.00 35.49    -0.235 N 
ATOM      9  HH  ARG D 557     -29.856  -2.398 -17.965  1.00 35.49     0.174 HD
ATOM     10  HH  ARG D 557     -29.473  -3.796 -17.645  1.00 35.49     0.174 HD
ATOM     11  HH  ARG D 557     -26.869  -3.125 -15.821  1.00 35.49     0.174 HD
ATOM     12  HH  ARG D 557     -27.683  -4.246 -16.358  1.00 35.49     0.174 HD
ATOM     13  HE  ARG D 557     -27.380  -1.101 -16.155  1.00 35.49     0.178 HD
ENDBRANCH   4   5
ENDBRANCH   3   4
ENDBRANCH   2   3
ENDBRANCH   1   2
END_RES ARG D 557
BEGIN_RES GLU D 570
REMARK  3 active torsions:
REMARK  status: ('A' for Active; 'I' for Inactive)
REMARK    5  A    between atoms: CA   and  CB  
REMARK    6  A    between atoms: CB   and  CG  
REMARK    7  A    between atoms: CG   and  CD  
ROOT
ATOM     14  CA  GLU D 570     -18.033  -6.348 -13.375  1.00 32.92     0.160 C 
ENDROOT
BRANCH  14  15
ATOM     15  CB  GLU D 570     -19.500  -6.345 -13.794  1.00 32.92     0.043 C 
BRANCH  15  16
ATOM     16  CG  GLU D 570     -20.445  -5.545 -12.972  1.00 32.92     0.100 C 
BRANCH  16  17
ATOM     17  CD  GLU D 570     -21.746  -5.257 -13.684  1.00 32.92     0.185 C 
ATOM     18  OE1 GLU D 570     -22.249  -6.139 -14.406  1.00 32.92    -0.647 OA
ATOM     19  OE2 GLU D 570     -22.260  -4.132 -13.530  1.00 32.92    -0.647 OA
ENDBRANCH  16  17
ENDBRANCH  15  16
ENDBRANCH  14  15
END_RES GLU D 570
ENDMDL
MODEL 9
REMARK VINA RESULT:      -2.0      3.261      3.740
REMARK  1 active torsions:
REMARK  status: ('A' for Active; 'I' for Inactive)
REMARK    1  A    between atoms: C_2  and  O_3 
ROOT
HETATM    1  C   UNL     1     -24.087  -4.750 -10.154  1.00  0.00     0.033 C 
HETATM    2  C   UNL     1     -24.504  -3.347  -9.765  1.00  0.00     0.159 C 
ENDROOT
BRANCH   2   3
HETATM    3  O   UNL     1     -25.921  -3.253  -9.727  1.00  0.00    -0.401 OA
HETATM    4  H   UNL     1     -26.279  -4.113 -10.002  1.00  0.00     0.209 HD
ENDBRANCH   2   3
TORSDOF 1
BEGIN_RES ARG D 557
REMARK  4 active torsions:
REMARK  status: ('A' for Active; 'I' for Inactive)
REMARK    1  A    between atoms: CA   and  CB  
REMARK    2  A    between atoms: CB   and  CG  
REMARK    3  A    between atoms: CG   and  CD  
REMARK    4  A    between atoms: CD   and  NE  
REMARK       I    between atoms: NE   and  CZ  
REMARK       I    between atoms: CZ   and  NH1 
REMARK       I    between atoms: CZ   and  NH2 
ROOT
ATOM      1  CA  ARG D 557     -26.217   2.705 -17.014  1.00 35.49     0.159 C 
ENDROOT
BRANCH   1   2
ATOM      2  CB  ARG D 557     -26.789   1.319 -17.183  1.00 35.49     0.034 C 
BRANCH   2   3
ATOM      3  CG  ARG D 557     -28.230   1.227 -17.447  1.00 35.49     0.027 C 
BRANCH   3   4
ATOM      4  CD  ARG D 557     -28.917   0.307 -16.511  1.00 35.49     0.116 C 
BRANCH   4   5
ATOM      5  NE  ARG D 557     -29.309  -0.922 -17.149  1.00 35.49    -0.212 N 
ATOM      6  CZ  ARG D 557     -28.689  -2.075 -17.041  1.00 35.49     0.666 C 
ATOM      7  NH1 ARG D 557     -27.592  -2.226 -16.321  1.00 35.49    -0.235 N 
ATOM      8  NH2 ARG D 557     -29.198  -3.093 -17.673  1.00 35.49    -0.235 N 
ATOM      9  HH  ARG D 557     -27.241  -1.570 -15.895  1.00 35.49     0.174 HD
ATOM     10  HH  ARG D 557     -27.232  -3.003 -16.285  1.00 35.49     0.174 HD
ATOM     11  HH  ARG D 557     -29.911  -2.967 -18.124  1.00 35.49     0.174 HD
ATOM     12  HH  ARG D 557     -28.828  -3.854 -17.624  1.00 35.49     0.174 HD
ATOM     13  HE  ARG D 557     -29.965  -0.899 -17.691  1.00 35.49     0.178 HD
ENDBRANCH   4   5
ENDBRANCH   3   4
ENDBRANCH   2   3
ENDBRANCH   1   2
END_RES ARG D 557
BEGIN_RES GLU D 570
REMARK  3 active torsions:
REMARK  status: ('A' for Active; 'I' for Inactive)
REMARK    5  A    between atoms: CA   and  CB  
REMARK    6  A    between atoms: CB   and  CG  
REMARK    7  A    between atoms: CG   and  CD  
ROOT
ATOM     14  CA  GLU D 570     -18.033  -6.348 -13.375  1.00 32.92     0.160 C 
ENDROOT
BRANCH  14  15
ATOM     15  CB  GLU D 570     -19.500  -6.345 -13.794  1.00 32.92     0.043 C 
BRANCH  15  16
ATOM     16  CG  GLU D 570     -19.799  -6.180 -15.240  1.00 32.92     0.100 C 
BRANCH  16  17
ATOM     17  CD  GLU D 570     -20.702  -7.262 -15.783  1.00 32.92     0.185 C 
ATOM     18  OE1 GLU D 570     -21.560  -6.963 -16.635  1.00 32.92    -0.647 OA
ATOM     19  OE2 GLU D 570     -20.562  -8.419 -15.338  1.00 32.92    -0.647 OA
ENDBRANCH  16  17
ENDBRANCH  15  16
ENDBRANCH  14  15
END_RES GLU D 570
ENDMDL
