MODEL 1
REMARK VINA RESULT:      -6.6      0.000      0.000
REMARK  7 active torsions:
REMARK  status: ('A' for Active; 'I' for Inactive)
REMARK    1  A    between atoms: C_2  and  C_3 
REMARK    2  A    between atoms: C_2  and  C_9 
REMARK    3  A    between atoms: C_3  and  C_4 
REMARK    4  A    between atoms: C_4  and  C_5 
REMARK    5  A    between atoms: C_9  and  C_10 
REMARK    6  A    between atoms: C_10  and  O_11 
REMARK    7  A    between atoms: O_11  and  C_12 
ROOT
HETATM    1  C   UNL     1     -36.114  -1.874 -10.610  1.00  0.00     0.010 C 
HETATM    2  C   UNL     1     -34.868  -1.451 -11.396  1.00  0.00    -0.016 C 
ENDROOT
BRANCH   2   3
HETATM    3  C   UNL     1     -33.618  -2.063 -10.718  1.00  0.00     0.008 C 
BRANCH   3   4
HETATM    4  C   UNL     1     -33.164  -3.374 -11.370  1.00  0.00     0.027 C 
BRANCH   4   5
HETATM    5  C   UNL     1     -33.537  -4.598 -10.583  1.00  0.00    -0.025 C 
HETATM    6  C   UNL     1     -34.335  -5.581 -11.046  1.00  0.00    -0.091 C 
HETATM    7  C   UNL     1     -34.942  -5.595 -12.424  1.00  0.00     0.042 C 
HETATM    8  C   UNL     1     -34.694  -6.769 -10.194  1.00  0.00     0.042 C 
ENDBRANCH   4   5
ENDBRANCH   3   4
ENDBRANCH   2   3
BRANCH   2   9
HETATM    9  C   UNL     1     -34.965  -1.860 -12.878  1.00  0.00     0.031 C 
BRANCH   9  10
HETATM   10  C   UNL     1     -35.418  -0.743 -13.817  1.00  0.00     0.179 C 
BRANCH  10  11
HETATM   11  O   UNL     1     -35.434  -1.226 -15.170  1.00  0.00    -0.322 OA
BRANCH  11  12
HETATM   12  C   UNL     1     -36.090  -0.431 -16.061  1.00  0.00     0.254 C 
HETATM   13  O   UNL     1     -36.644  -0.813 -17.082  1.00  0.00    -0.266 OA
HETATM   14  C   UNL     1     -36.037   1.002 -15.633  1.00  0.00     0.126 C 
ENDBRANCH  11  12
ENDBRANCH  10  11
ENDBRANCH   9  10
ENDBRANCH   2   9
TORSDOF 7
BEGIN_RES ARG D 557
REMARK  4 active torsions:
REMARK  status: ('A' for Active; 'I' for Inactive)
REMARK    1  A    between atoms: CA   and  CB  
REMARK    2  A    between atoms: CB   and  CG  
REMARK    3  A    between atoms: CG   and  CD  
REMARK    4  A    between atoms: CD   and  NE  
REMARK       I    between atoms: NE   and  CZ  
REMARK       I    between atoms: CZ   and  NH1 
REMARK       I    between atoms: CZ   and  NH2 
ROOT
ATOM      1  CA  ARG D 557     -26.217   2.705 -17.014  1.00 35.49     0.159 C 
ENDROOT
BRANCH   1   2
ATOM      2  CB  ARG D 557     -26.789   1.319 -17.183  1.00 35.49     0.034 C 
BRANCH   2   3
ATOM      3  CG  ARG D 557     -28.228   1.227 -17.457  1.00 35.49     0.027 C 
BRANCH   3   4
ATOM      4  CD  ARG D 557     -28.925   0.320 -16.516  1.00 35.49     0.116 C 
BRANCH   4   5
ATOM      5  NE  ARG D 557     -29.323  -0.912 -17.145  1.00 35.49    -0.212 N 
ATOM      6  CZ  ARG D 557     -28.697  -2.063 -17.044  1.00 35.49     0.666 C 
ATOM      7  NH1 ARG D 557     -27.590  -2.209 -16.341  1.00 35.49    -0.235 N 
ATOM      8  NH2 ARG D 557     -29.213  -3.083 -17.666  1.00 35.49    -0.235 N 
ATOM      9  HH  ARG D 557     -27.234  -1.551 -15.922  1.00 35.49     0.174 HD
ATOM     10  HH  ARG D 557     -27.227  -2.984 -16.309  1.00 35.49     0.174 HD
ATOM     11  HH  ARG D 557     -29.933  -2.961 -18.106  1.00 35.49     0.174 HD
ATOM     12  HH  ARG D 557     -28.840  -3.843 -17.621  1.00 35.49     0.174 HD
ATOM     13  HE  ARG D 557     -29.987  -0.892 -17.677  1.00 35.49     0.178 HD
ENDBRANCH   4   5
ENDBRANCH   3   4
ENDBRANCH   2   3
ENDBRANCH   1   2
END_RES ARG D 557
BEGIN_RES GLU D 570
REMARK  3 active torsions:
REMARK  status: ('A' for Active; 'I' for Inactive)
REMARK    5  A    between atoms: CA   and  CB  
REMARK    6  A    between atoms: CB   and  CG  
REMARK    7  A    between atoms: CG   and  CD  
ROOT
ATOM     14  CA  GLU D 570     -18.033  -6.348 -13.375  1.00 32.92     0.160 C 
ENDROOT
BRANCH  14  15
ATOM     15  CB  GLU D 570     -19.500  -6.345 -13.794  1.00 32.92     0.043 C 
BRANCH  15  16
ATOM     16  CG  GLU D 570     -19.796  -6.276 -15.248  1.00 32.92     0.100 C 
BRANCH  16  17
ATOM     17  CD  GLU D 570     -20.827  -7.289 -15.688  1.00 32.92     0.185 C 
ATOM     18  OE1 GLU D 570     -20.573  -8.503 -15.567  1.00 32.92    -0.647 OA
ATOM     19  OE2 GLU D 570     -21.894  -6.864 -16.175  1.00 32.92    -0.647 OA
ENDBRANCH  16  17
ENDBRANCH  15  16
ENDBRANCH  14  15
END_RES GLU D 570
ENDMDL
MODEL 2
REMARK VINA RESULT:      -6.3      6.853      9.966
REMARK  7 active torsions:
REMARK  status: ('A' for Active; 'I' for Inactive)
REMARK    1  A    between atoms: C_2  and  C_3 
REMARK    2  A    between atoms: C_2  and  C_9 
REMARK    3  A    between atoms: C_3  and  C_4 
REMARK    4  A    between atoms: C_4  and  C_5 
REMARK    5  A    between atoms: C_9  and  C_10 
REMARK    6  A    between atoms: C_10  and  O_11 
REMARK    7  A    between atoms: O_11  and  C_12 
ROOT
HETATM    1  C   UNL     1     -24.015  -3.935 -10.699  1.00  0.00     0.010 C 
HETATM    2  C   UNL     1     -22.822  -3.197 -11.319  1.00  0.00    -0.016 C 
ENDROOT
BRANCH   2   3
HETATM    3  C   UNL     1     -21.623  -4.170 -11.407  1.00  0.00     0.008 C 
BRANCH   3   4
HETATM    4  C   UNL     1     -20.450  -3.758 -10.510  1.00  0.00     0.027 C 
BRANCH   4   5
HETATM    5  C   UNL     1     -20.118  -4.770  -9.449  1.00  0.00    -0.025 C 
HETATM    6  C   UNL     1     -20.616  -4.743  -8.196  1.00  0.00    -0.091 C 
HETATM    7  C   UNL     1     -21.590  -3.709  -7.698  1.00  0.00     0.042 C 
HETATM    8  C   UNL     1     -20.217  -5.770  -7.171  1.00  0.00     0.042 C 
ENDBRANCH   4   5
ENDBRANCH   3   4
ENDBRANCH   2   3
BRANCH   2   9
HETATM    9  C   UNL     1     -23.174  -2.604 -12.696  1.00  0.00     0.031 C 
BRANCH   9  10
HETATM   10  C   UNL     1     -22.908  -3.537 -13.877  1.00  0.00     0.179 C 
BRANCH  10  11
HETATM   11  O   UNL     1     -24.130  -3.765 -14.598  1.00  0.00    -0.322 OA
BRANCH  11  12
HETATM   12  C   UNL     1     -24.446  -5.074 -14.803  1.00  0.00     0.254 C 
HETATM   13  O   UNL     1     -25.335  -5.485 -15.535  1.00  0.00    -0.266 OA
HETATM   14  C   UNL     1     -23.558  -5.967 -13.995  1.00  0.00     0.126 C 
ENDBRANCH  11  12
ENDBRANCH  10  11
ENDBRANCH   9  10
ENDBRANCH   2   9
TORSDOF 7
BEGIN_RES ARG D 557
REMARK  4 active torsions:
REMARK  status: ('A' for Active; 'I' for Inactive)
REMARK    1  A    between atoms: CA   and  CB  
REMARK    2  A    between atoms: CB   and  CG  
REMARK    3  A    between atoms: CG   and  CD  
REMARK    4  A    between atoms: CD   and  NE  
REMARK       I    between atoms: NE   and  CZ  
REMARK       I    between atoms: CZ   and  NH1 
REMARK       I    between atoms: CZ   and  NH2 
ROOT
ATOM      1  CA  ARG D 557     -26.217   2.705 -17.014  1.00 35.49     0.159 C 
ENDROOT
BRANCH   1   2
ATOM      2  CB  ARG D 557     -26.789   1.319 -17.183  1.00 35.49     0.034 C 
BRANCH   2   3
ATOM      3  CG  ARG D 557     -28.182   1.123 -16.762  1.00 35.49     0.027 C 
BRANCH   3   4
ATOM      4  CD  ARG D 557     -28.717  -0.193 -17.179  1.00 35.49     0.116 C 
BRANCH   4   5
ATOM      5  NE  ARG D 557     -27.984  -1.286 -16.597  1.00 35.49    -0.212 N 
ATOM      6  CZ  ARG D 557     -28.237  -2.563 -16.778  1.00 35.49     0.666 C 
ATOM      7  NH1 ARG D 557     -29.235  -2.989 -17.530  1.00 35.49    -0.235 N 
ATOM      8  NH2 ARG D 557     -27.454  -3.419 -16.188  1.00 35.49    -0.235 N 
ATOM      9  HH  ARG D 557     -29.761  -2.443 -17.929  1.00 35.49     0.174 HD
ATOM     10  HH  ARG D 557     -29.350  -3.834 -17.613  1.00 35.49     0.174 HD
ATOM     11  HH  ARG D 557     -26.813  -3.115 -15.714  1.00 35.49     0.174 HD
ATOM     12  HH  ARG D 557     -27.583  -4.252 -16.284  1.00 35.49     0.174 HD
ATOM     13  HE  ARG D 557     -27.368  -1.102 -16.040  1.00 35.49     0.178 HD
ENDBRANCH   4   5
ENDBRANCH   3   4
ENDBRANCH   2   3
ENDBRANCH   1   2
END_RES ARG D 557
BEGIN_RES GLU D 570
REMARK  3 active torsions:
REMARK  status: ('A' for Active; 'I' for Inactive)
REMARK    5  A    between atoms: CA   and  CB  
REMARK    6  A    between atoms: CB   and  CG  
REMARK    7  A    between atoms: CG   and  CD  
ROOT
ATOM     14  CA  GLU D 570     -18.033  -6.348 -13.375  1.00 32.92     0.160 C 
ENDROOT
BRANCH  14  15
ATOM     15  CB  GLU D 570     -19.500  -6.345 -13.794  1.00 32.92     0.043 C 
BRANCH  15  16
ATOM     16  CG  GLU D 570     -19.799  -6.181 -15.240  1.00 32.92     0.100 C 
BRANCH  16  17
ATOM     17  CD  GLU D 570     -20.667  -7.288 -15.792  1.00 32.92     0.185 C 
ATOM     18  OE1 GLU D 570     -20.601  -8.421 -15.278  1.00 32.92    -0.647 OA
ATOM     19  OE2 GLU D 570     -21.408  -7.023 -16.759  1.00 32.92    -0.647 OA
ENDBRANCH  16  17
ENDBRANCH  15  16
ENDBRANCH  14  15
END_RES GLU D 570
ENDMDL
MODEL 3
REMARK VINA RESULT:      -6.2      7.937     11.532
REMARK  7 active torsions:
REMARK  status: ('A' for Active; 'I' for Inactive)
REMARK    1  A    between atoms: C_2  and  C_3 
REMARK    2  A    between atoms: C_2  and  C_9 
REMARK    3  A    between atoms: C_3  and  C_4 
REMARK    4  A    between atoms: C_4  and  C_5 
REMARK    5  A    between atoms: C_9  and  C_10 
REMARK    6  A    between atoms: C_10  and  O_11 
REMARK    7  A    between atoms: O_11  and  C_12 
ROOT
HETATM    1  C   UNL     1     -19.735  -5.499  -6.550  1.00  0.00     0.010 C 
HETATM    2  C   UNL     1     -21.217  -5.574  -6.933  1.00  0.00    -0.016 C 
ENDROOT
BRANCH   2   3
HETATM    3  C   UNL     1     -22.044  -5.912  -5.669  1.00  0.00     0.008 C 
BRANCH   3   4
HETATM    4  C   UNL     1     -21.175  -6.357  -4.488  1.00  0.00     0.027 C 
BRANCH   4   5
HETATM    5  C   UNL     1     -21.885  -6.306  -3.164  1.00  0.00    -0.025 C 
HETATM    6  C   UNL     1     -21.561  -7.071  -2.102  1.00  0.00    -0.091 C 
HETATM    7  C   UNL     1     -20.428  -8.063  -2.092  1.00  0.00     0.042 C 
HETATM    8  C   UNL     1     -22.333  -6.992  -0.813  1.00  0.00     0.042 C 
ENDBRANCH   4   5
ENDBRANCH   3   4
ENDBRANCH   2   3
BRANCH   2   9
HETATM    9  C   UNL     1     -21.700  -4.270  -7.595  1.00  0.00     0.031 C 
BRANCH   9  10
HETATM   10  C   UNL     1     -23.173  -4.271  -8.003  1.00  0.00     0.179 C 
BRANCH  10  11
HETATM   11  O   UNL     1     -23.373  -3.355  -9.093  1.00  0.00    -0.322 OA
BRANCH  11  12
HETATM   12  C   UNL     1     -24.233  -3.784 -10.059  1.00  0.00     0.254 C 
HETATM   13  O   UNL     1     -25.219  -3.178 -10.454  1.00  0.00    -0.266 OA
HETATM   14  C   UNL     1     -23.820  -5.126 -10.579  1.00  0.00     0.126 C 
ENDBRANCH  11  12
ENDBRANCH  10  11
ENDBRANCH   9  10
ENDBRANCH   2   9
TORSDOF 7
BEGIN_RES ARG D 557
REMARK  4 active torsions:
REMARK  status: ('A' for Active; 'I' for Inactive)
REMARK    1  A    between atoms: CA   and  CB  
REMARK    2  A    between atoms: CB   and  CG  
REMARK    3  A    between atoms: CG   and  CD  
REMARK    4  A    between atoms: CD   and  NE  
REMARK       I    between atoms: NE   and  CZ  
REMARK       I    between atoms: CZ   and  NH1 
REMARK       I    between atoms: CZ   and  NH2 
ROOT
ATOM      1  CA  ARG D 557     -26.217   2.705 -17.014  1.00 35.49     0.159 C 
ENDROOT
BRANCH   1   2
ATOM      2  CB  ARG D 557     -26.789   1.319 -17.183  1.00 35.49     0.034 C 
BRANCH   2   3
ATOM      3  CG  ARG D 557     -25.930   0.197 -16.787  1.00 35.49     0.027 C 
BRANCH   3   4
ATOM      4  CD  ARG D 557     -26.680  -0.867 -16.080  1.00 35.49     0.116 C 
BRANCH   4   5
ATOM      5  NE  ARG D 557     -25.944  -1.400 -14.965  1.00 35.49    -0.212 N 
ATOM      6  CZ  ARG D 557     -25.892  -2.666 -14.614  1.00 35.49     0.666 C 
ATOM      7  NH1 ARG D 557     -26.545  -3.610 -15.265  1.00 35.49    -0.235 N 
ATOM      8  NH2 ARG D 557     -25.155  -2.973 -13.586  1.00 35.49    -0.235 N 
ATOM      9  HH  ARG D 557     -27.033  -3.430 -15.946  1.00 35.49     0.174 HD
ATOM     10  HH  ARG D 557     -26.471  -4.419 -14.992  1.00 35.49     0.174 HD
ATOM     11  HH  ARG D 557     -24.739  -2.344 -13.189  1.00 35.49     0.174 HD
ATOM     12  HH  ARG D 557     -25.094  -3.780 -13.332  1.00 35.49     0.174 HD
ATOM     13  HE  ARG D 557     -25.552  -0.852 -14.446  1.00 35.49     0.178 HD
ENDBRANCH   4   5
ENDBRANCH   3   4
ENDBRANCH   2   3
ENDBRANCH   1   2
END_RES ARG D 557
BEGIN_RES GLU D 570
REMARK  3 active torsions:
REMARK  status: ('A' for Active; 'I' for Inactive)
REMARK    5  A    between atoms: CA   and  CB  
REMARK    6  A    between atoms: CB   and  CG  
REMARK    7  A    between atoms: CG   and  CD  
ROOT
ATOM     14  CA  GLU D 570     -18.033  -6.348 -13.375  1.00 32.92     0.160 C 
ENDROOT
BRANCH  14  15
ATOM     15  CB  GLU D 570     -19.500  -6.345 -13.794  1.00 32.92     0.043 C 
BRANCH  15  16
ATOM     16  CG  GLU D 570     -20.433  -5.492 -13.013  1.00 32.92     0.100 C 
BRANCH  16  17
ATOM     17  CD  GLU D 570     -21.746  -5.252 -13.722  1.00 32.92     0.185 C 
ATOM     18  OE1 GLU D 570     -22.246  -6.172 -14.397  1.00 32.92    -0.647 OA
ATOM     19  OE2 GLU D 570     -22.270  -4.126 -13.616  1.00 32.92    -0.647 OA
ENDBRANCH  16  17
ENDBRANCH  15  16
ENDBRANCH  14  15
END_RES GLU D 570
ENDMDL
MODEL 4
REMARK VINA RESULT:      -6.2      8.318     12.584
REMARK  7 active torsions:
REMARK  status: ('A' for Active; 'I' for Inactive)
REMARK    1  A    between atoms: C_2  and  C_3 
REMARK    2  A    between atoms: C_2  and  C_9 
REMARK    3  A    between atoms: C_3  and  C_4 
REMARK    4  A    between atoms: C_4  and  C_5 
REMARK    5  A    between atoms: C_9  and  C_10 
REMARK    6  A    between atoms: C_10  and  O_11 
REMARK    7  A    between atoms: O_11  and  C_12 
ROOT
HETATM    1  C   UNL     1     -20.147  -4.670  -5.726  1.00  0.00     0.010 C 
HETATM    2  C   UNL     1     -21.481  -5.151  -6.310  1.00  0.00    -0.016 C 
ENDROOT
BRANCH   2   3
HETATM    3  C   UNL     1     -21.235  -5.691  -7.740  1.00  0.00     0.008 C 
BRANCH   3   4
HETATM    4  C   UNL     1     -21.274  -4.592  -8.808  1.00  0.00     0.027 C 
BRANCH   4   5
HETATM    5  C   UNL     1     -22.544  -3.790  -8.802  1.00  0.00    -0.025 C 
HETATM    6  C   UNL     1     -23.597  -4.036  -9.608  1.00  0.00    -0.091 C 
HETATM    7  C   UNL     1     -23.651  -5.163 -10.605  1.00  0.00     0.042 C 
HETATM    8  C   UNL     1     -24.830  -3.174  -9.573  1.00  0.00     0.042 C 
ENDBRANCH   4   5
ENDBRANCH   3   4
ENDBRANCH   2   3
BRANCH   2   9
HETATM    9  C   UNL     1     -22.144  -6.211  -5.411  1.00  0.00     0.031 C 
BRANCH   9  10
HETATM   10  C   UNL     1     -21.388  -6.513  -4.118  1.00  0.00     0.179 C 
BRANCH  10  11
HETATM   11  O   UNL     1     -22.134  -6.019  -2.994  1.00  0.00    -0.322 OA
BRANCH  11  12
HETATM   12  C   UNL     1     -22.012  -6.751  -1.851  1.00  0.00     0.254 C 
HETATM   13  O   UNL     1     -22.757  -6.689  -0.883  1.00  0.00    -0.266 OA
HETATM   14  C   UNL     1     -20.818  -7.651  -1.922  1.00  0.00     0.126 C 
ENDBRANCH  11  12
ENDBRANCH  10  11
ENDBRANCH   9  10
ENDBRANCH   2   9
TORSDOF 7
BEGIN_RES ARG D 557
REMARK  4 active torsions:
REMARK  status: ('A' for Active; 'I' for Inactive)
REMARK    1  A    between atoms: CA   and  CB  
REMARK    2  A    between atoms: CB   and  CG  
REMARK    3  A    between atoms: CG   and  CD  
REMARK    4  A    between atoms: CD   and  NE  
REMARK       I    between atoms: NE   and  CZ  
REMARK       I    between atoms: CZ   and  NH1 
REMARK       I    between atoms: CZ   and  NH2 
ROOT
ATOM      1  CA  ARG D 557     -26.217   2.705 -17.014  1.00 35.49     0.159 C 
ENDROOT
BRANCH   1   2
ATOM      2  CB  ARG D 557     -26.789   1.319 -17.183  1.00 35.49     0.034 C 
BRANCH   2   3
ATOM      3  CG  ARG D 557     -25.861   0.195 -17.005  1.00 35.49     0.027 C 
BRANCH   3   4
ATOM      4  CD  ARG D 557     -26.318  -0.754 -15.964  1.00 35.49     0.116 C 
BRANCH   4   5
ATOM      5  NE  ARG D 557     -25.333  -0.943 -14.932  1.00 35.49    -0.212 N 
ATOM      6  CZ  ARG D 557     -25.052  -2.080 -14.338  1.00 35.49     0.666 C 
ATOM      7  NH1 ARG D 557     -25.678  -3.206 -14.627  1.00 35.49    -0.235 N 
ATOM      8  NH2 ARG D 557     -24.112  -2.071 -13.437  1.00 35.49    -0.235 N 
ATOM      9  HH  ARG D 557     -26.298  -3.236 -15.218  1.00 35.49     0.174 HD
ATOM     10  HH  ARG D 557     -25.450  -3.918 -14.209  1.00 35.49     0.174 HD
ATOM     11  HH  ARG D 557     -23.719  -1.331 -13.276  1.00 35.49     0.174 HD
ATOM     12  HH  ARG D 557     -23.899  -2.787 -13.035  1.00 35.49     0.174 HD
ATOM     13  HE  ARG D 557     -24.932  -0.255 -14.632  1.00 35.49     0.178 HD
ENDBRANCH   4   5
ENDBRANCH   3   4
ENDBRANCH   2   3
ENDBRANCH   1   2
END_RES ARG D 557
BEGIN_RES GLU D 570
REMARK  3 active torsions:
REMARK  status: ('A' for Active; 'I' for Inactive)
REMARK    5  A    between atoms: CA   and  CB  
REMARK    6  A    between atoms: CB   and  CG  
REMARK    7  A    between atoms: CG   and  CD  
ROOT
ATOM     14  CA  GLU D 570     -18.033  -6.348 -13.375  1.00 32.92     0.160 C 
ENDROOT
BRANCH  14  15
ATOM     15  CB  GLU D 570     -19.500  -6.345 -13.794  1.00 32.92     0.043 C 
BRANCH  15  16
ATOM     16  CG  GLU D 570     -20.441  -5.527 -12.986  1.00 32.92     0.100 C 
BRANCH  16  17
ATOM     17  CD  GLU D 570     -21.722  -5.206 -13.719  1.00 32.92     0.185 C 
ATOM     18  OE1 GLU D 570     -22.328  -6.122 -14.309  1.00 32.92    -0.647 OA
ATOM     19  OE2 GLU D 570     -22.116  -4.023 -13.718  1.00 32.92    -0.647 OA
ENDBRANCH  16  17
ENDBRANCH  15  16
ENDBRANCH  14  15
END_RES GLU D 570
ENDMDL
MODEL 5
REMARK VINA RESULT:      -6.1      8.083     11.487
REMARK  7 active torsions:
REMARK  status: ('A' for Active; 'I' for Inactive)
REMARK    1  A    between atoms: C_2  and  C_3 
REMARK    2  A    between atoms: C_2  and  C_9 
REMARK    3  A    between atoms: C_3  and  C_4 
REMARK    4  A    between atoms: C_4  and  C_5 
REMARK    5  A    between atoms: C_9  and  C_10 
REMARK    6  A    between atoms: C_10  and  O_11 
REMARK    7  A    between atoms: O_11  and  C_12 
ROOT
HETATM    1  C   UNL     1     -20.221  -4.753  -6.115  1.00  0.00     0.010 C 
HETATM    2  C   UNL     1     -21.536  -5.433  -6.513  1.00  0.00    -0.016 C 
ENDROOT
BRANCH   2   3
HETATM    3  C   UNL     1     -22.090  -6.203  -5.290  1.00  0.00     0.008 C 
BRANCH   3   4
HETATM    4  C   UNL     1     -21.204  -6.071  -4.047  1.00  0.00     0.027 C 
BRANCH   4   5
HETATM    5  C   UNL     1     -21.950  -6.237  -2.754  1.00  0.00    -0.025 C 
HETATM    6  C   UNL     1     -21.622  -7.135  -1.802  1.00  0.00    -0.091 C 
HETATM    7  C   UNL     1     -20.450  -8.075  -1.897  1.00  0.00     0.042 C 
HETATM    8  C   UNL     1     -22.432  -7.272  -0.541  1.00  0.00     0.042 C 
ENDBRANCH   4   5
ENDBRANCH   3   4
ENDBRANCH   2   3
BRANCH   2   9
HETATM    9  C   UNL     1     -22.559  -4.419  -7.056  1.00  0.00     0.031 C 
BRANCH   9  10
HETATM   10  C   UNL     1     -22.740  -4.446  -8.573  1.00  0.00     0.179 C 
BRANCH  10  11
HETATM   11  O   UNL     1     -23.983  -3.818  -8.924  1.00  0.00    -0.322 OA
BRANCH  11  12
HETATM   12  C   UNL     1     -24.288  -3.838 -10.251  1.00  0.00     0.254 C 
HETATM   13  O   UNL     1     -25.160  -3.171 -10.791  1.00  0.00    -0.266 OA
HETATM   14  C   UNL     1     -23.414  -4.808 -10.982  1.00  0.00     0.126 C 
ENDBRANCH  11  12
ENDBRANCH  10  11
ENDBRANCH   9  10
ENDBRANCH   2   9
TORSDOF 7
BEGIN_RES ARG D 557
REMARK  4 active torsions:
REMARK  status: ('A' for Active; 'I' for Inactive)
REMARK    1  A    between atoms: CA   and  CB  
REMARK    2  A    between atoms: CB   and  CG  
REMARK    3  A    between atoms: CG   and  CD  
REMARK    4  A    between atoms: CD   and  NE  
REMARK       I    between atoms: NE   and  CZ  
REMARK       I    between atoms: CZ   and  NH1 
REMARK       I    between atoms: CZ   and  NH2 
ROOT
ATOM      1  CA  ARG D 557     -26.217   2.705 -17.014  1.00 35.49     0.159 C 
ENDROOT
BRANCH   1   2
ATOM      2  CB  ARG D 557     -26.789   1.319 -17.183  1.00 35.49     0.034 C 
BRANCH   2   3
ATOM      3  CG  ARG D 557     -25.865   0.195 -16.988  1.00 35.49     0.027 C 
BRANCH   3   4
ATOM      4  CD  ARG D 557     -26.310  -0.720 -15.911  1.00 35.49     0.116 C 
BRANCH   4   5
ATOM      5  NE  ARG D 557     -25.282  -0.941 -14.929  1.00 35.49    -0.212 N 
ATOM      6  CZ  ARG D 557     -25.036  -2.077 -14.316  1.00 35.49     0.666 C 
ATOM      7  NH1 ARG D 557     -25.743  -3.170 -14.539  1.00 35.49    -0.235 N 
ATOM      8  NH2 ARG D 557     -24.049  -2.101 -13.469  1.00 35.49    -0.235 N 
ATOM      9  HH  ARG D 557     -26.395  -3.178 -15.094  1.00 35.49     0.174 HD
ATOM     10  HH  ARG D 557     -25.535  -3.883 -14.112  1.00 35.49     0.174 HD
ATOM     11  HH  ARG D 557     -23.605  -1.383 -13.351  1.00 35.49     0.174 HD
ATOM     12  HH  ARG D 557     -23.857  -2.818 -13.057  1.00 35.49     0.174 HD
ATOM     13  HE  ARG D 557     -24.825  -0.271 -14.671  1.00 35.49     0.178 HD
ENDBRANCH   4   5
ENDBRANCH   3   4
ENDBRANCH   2   3
ENDBRANCH   1   2
END_RES ARG D 557
BEGIN_RES GLU D 570
REMARK  3 active torsions:
REMARK  status: ('A' for Active; 'I' for Inactive)
REMARK    5  A    between atoms: CA   and  CB  
REMARK    6  A    between atoms: CB   and  CG  
REMARK    7  A    between atoms: CG   and  CD  
ROOT
ATOM     14  CA  GLU D 570     -18.033  -6.348 -13.375  1.00 32.92     0.160 C 
ENDROOT
BRANCH  14  15
ATOM     15  CB  GLU D 570     -19.500  -6.345 -13.794  1.00 32.92     0.043 C 
BRANCH  15  16
ATOM     16  CG  GLU D 570     -20.030  -7.573 -14.441  1.00 32.92     0.100 C 
BRANCH  16  17
ATOM     17  CD  GLU D 570     -20.804  -7.285 -15.707  1.00 32.92     0.185 C 
ATOM     18  OE1 GLU D 570     -21.714  -8.064 -16.050  1.00 32.92    -0.647 OA
ATOM     19  OE2 GLU D 570     -20.486  -6.279 -16.370  1.00 32.92    -0.647 OA
ENDBRANCH  16  17
ENDBRANCH  15  16
ENDBRANCH  14  15
END_RES GLU D 570
ENDMDL
MODEL 6
REMARK VINA RESULT:      -6.1      7.462     12.531
REMARK  7 active torsions:
REMARK  status: ('A' for Active; 'I' for Inactive)
REMARK    1  A    between atoms: C_2  and  C_3 
REMARK    2  A    between atoms: C_2  and  C_9 
REMARK    3  A    between atoms: C_3  and  C_4 
REMARK    4  A    between atoms: C_4  and  C_5 
REMARK    5  A    between atoms: C_9  and  C_10 
REMARK    6  A    between atoms: C_10  and  O_11 
REMARK    7  A    between atoms: O_11  and  C_12 
ROOT
HETATM    1  C   UNL     1     -19.112  -4.516  -7.169  1.00  0.00     0.010 C 
HETATM    2  C   UNL     1     -20.507  -4.743  -6.576  1.00  0.00    -0.016 C 
ENDROOT
BRANCH   2   3
HETATM    3  C   UNL     1     -21.503  -3.772  -7.254  1.00  0.00     0.008 C 
BRANCH   3   4
HETATM    4  C   UNL     1     -22.387  -4.458  -8.302  1.00  0.00     0.027 C 
BRANCH   4   5
HETATM    5  C   UNL     1     -22.581  -3.645  -9.551  1.00  0.00    -0.025 C 
HETATM    6  C   UNL     1     -21.723  -3.642 -10.592  1.00  0.00    -0.091 C 
HETATM    7  C   UNL     1     -20.468  -4.471 -10.653  1.00  0.00     0.042 C 
HETATM    8  C   UNL     1     -21.962  -2.780 -11.803  1.00  0.00     0.042 C 
ENDBRANCH   4   5
ENDBRANCH   3   4
ENDBRANCH   2   3
BRANCH   2   9
HETATM    9  C   UNL     1     -20.955  -6.209  -6.723  1.00  0.00     0.031 C 
BRANCH   9  10
HETATM   10  C   UNL     1     -21.388  -6.877  -5.418  1.00  0.00     0.179 C 
BRANCH  10  11
HETATM   11  O   UNL     1     -21.575  -5.878  -4.403  1.00  0.00    -0.322 OA
BRANCH  11  12
HETATM   12  C   UNL     1     -21.724  -6.359  -3.137  1.00  0.00     0.254 C 
HETATM   13  O   UNL     1     -22.442  -5.876  -2.272  1.00  0.00    -0.266 OA
HETATM   14  C   UNL     1     -20.873  -7.572  -2.927  1.00  0.00     0.126 C 
ENDBRANCH  11  12
ENDBRANCH  10  11
ENDBRANCH   9  10
ENDBRANCH   2   9
TORSDOF 7
BEGIN_RES ARG D 557
REMARK  4 active torsions:
REMARK  status: ('A' for Active; 'I' for Inactive)
REMARK    1  A    between atoms: CA   and  CB  
REMARK    2  A    between atoms: CB   and  CG  
REMARK    3  A    between atoms: CG   and  CD  
REMARK    4  A    between atoms: CD   and  NE  
REMARK       I    between atoms: NE   and  CZ  
REMARK       I    between atoms: CZ   and  NH1 
REMARK       I    between atoms: CZ   and  NH2 
ROOT
ATOM      1  CA  ARG D 557     -26.217   2.705 -17.014  1.00 35.49     0.159 C 
ENDROOT
BRANCH   1   2
ATOM      2  CB  ARG D 557     -26.789   1.319 -17.183  1.00 35.49     0.034 C 
BRANCH   2   3
ATOM      3  CG  ARG D 557     -28.231   1.167 -16.954  1.00 35.49     0.027 C 
BRANCH   3   4
ATOM      4  CD  ARG D 557     -28.610  -0.232 -16.651  1.00 35.49     0.116 C 
BRANCH   4   5
ATOM      5  NE  ARG D 557     -27.574  -0.933 -15.939  1.00 35.49    -0.212 N 
ATOM      6  CZ  ARG D 557     -27.334  -2.223 -16.005  1.00 35.49     0.666 C 
ATOM      7  NH1 ARG D 557     -28.056  -3.042 -16.747  1.00 35.49    -0.235 N 
ATOM      8  NH2 ARG D 557     -26.338  -2.685 -15.306  1.00 35.49    -0.235 N 
ATOM      9  HH  ARG D 557     -28.715  -2.759 -17.217  1.00 35.49     0.174 HD
ATOM     10  HH  ARG D 557     -27.852  -3.874 -16.753  1.00 35.49     0.174 HD
ATOM     11  HH  ARG D 557     -25.884  -2.132 -14.842  1.00 35.49     0.174 HD
ATOM     12  HH  ARG D 557     -26.150  -3.512 -15.326  1.00 35.49     0.174 HD
ATOM     13  HE  ARG D 557     -27.106  -0.494 -15.381  1.00 35.49     0.178 HD
ENDBRANCH   4   5
ENDBRANCH   3   4
ENDBRANCH   2   3
ENDBRANCH   1   2
END_RES ARG D 557
BEGIN_RES GLU D 570
REMARK  3 active torsions:
REMARK  status: ('A' for Active; 'I' for Inactive)
REMARK    5  A    between atoms: CA   and  CB  
REMARK    6  A    between atoms: CB   and  CG  
REMARK    7  A    between atoms: CG   and  CD  
ROOT
ATOM     14  CA  GLU D 570     -18.033  -6.348 -13.375  1.00 32.92     0.160 C 
ENDROOT
BRANCH  14  15
ATOM     15  CB  GLU D 570     -19.500  -6.345 -13.794  1.00 32.92     0.043 C 
BRANCH  15  16
ATOM     16  CG  GLU D 570     -19.801  -6.119 -15.231  1.00 32.92     0.100 C 
BRANCH  16  17
ATOM     17  CD  GLU D 570     -21.105  -5.389 -15.453  1.00 32.92     0.185 C 
ATOM     18  OE1 GLU D 570     -21.811  -5.099 -14.468  1.00 32.92    -0.647 OA
ATOM     19  OE2 GLU D 570     -21.432  -5.118 -16.625  1.00 32.92    -0.647 OA
ENDBRANCH  16  17
ENDBRANCH  15  16
ENDBRANCH  14  15
END_RES GLU D 570
ENDMDL
MODEL 7
REMARK VINA RESULT:      -6.1      8.979     12.778
REMARK  7 active torsions:
REMARK  status: ('A' for Active; 'I' for Inactive)
REMARK    1  A    between atoms: C_2  and  C_3 
REMARK    2  A    between atoms: C_2  and  C_9 
REMARK    3  A    between atoms: C_3  and  C_4 
REMARK    4  A    between atoms: C_4  and  C_5 
REMARK    5  A    between atoms: C_9  and  C_10 
REMARK    6  A    between atoms: C_10  and  O_11 
REMARK    7  A    between atoms: O_11  and  C_12 
ROOT
HETATM    1  C   UNL     1     -20.273  -8.166  -4.409  1.00  0.00     0.010 C 
HETATM    2  C   UNL     1     -21.122  -7.157  -5.190  1.00  0.00    -0.016 C 
ENDROOT
BRANCH   2   3
HETATM    3  C   UNL     1     -21.988  -6.353  -4.190  1.00  0.00     0.008 C 
BRANCH   3   4
HETATM    4  C   UNL     1     -21.343  -6.229  -2.805  1.00  0.00     0.027 C 
BRANCH   4   5
HETATM    5  C   UNL     1     -22.282  -6.533  -1.673  1.00  0.00    -0.025 C 
HETATM    6  C   UNL     1     -22.085  -7.515  -0.769  1.00  0.00    -0.091 C 
HETATM    7  C   UNL     1     -20.884  -8.422  -0.758  1.00  0.00     0.042 C 
HETATM    8  C   UNL     1     -23.083  -7.787   0.325  1.00  0.00     0.042 C 
ENDBRANCH   4   5
ENDBRANCH   3   4
ENDBRANCH   2   3
BRANCH   2   9
HETATM    9  C   UNL     1     -20.249  -6.230  -6.056  1.00  0.00     0.031 C 
BRANCH   9  10
HETATM   10  C   UNL     1     -20.645  -4.754  -6.008  1.00  0.00     0.179 C 
BRANCH  10  11
HETATM   11  O   UNL     1     -20.833  -4.261  -7.344  1.00  0.00    -0.322 OA
BRANCH  11  12
HETATM   12  C   UNL     1     -22.104  -4.362  -7.825  1.00  0.00     0.254 C 
HETATM   13  O   UNL     1     -23.117  -4.453  -7.145  1.00  0.00    -0.266 OA
HETATM   14  C   UNL     1     -22.106  -4.363  -9.321  1.00  0.00     0.126 C 
ENDBRANCH  11  12
ENDBRANCH  10  11
ENDBRANCH   9  10
ENDBRANCH   2   9
TORSDOF 7
BEGIN_RES ARG D 557
REMARK  4 active torsions:
REMARK  status: ('A' for Active; 'I' for Inactive)
REMARK    1  A    between atoms: CA   and  CB  
REMARK    2  A    between atoms: CB   and  CG  
REMARK    3  A    between atoms: CG   and  CD  
REMARK    4  A    between atoms: CD   and  NE  
REMARK       I    between atoms: NE   and  CZ  
REMARK       I    between atoms: CZ   and  NH1 
REMARK       I    between atoms: CZ   and  NH2 
ROOT
ATOM      1  CA  ARG D 557     -26.217   2.705 -17.014  1.00 35.49     0.159 C 
ENDROOT
BRANCH   1   2
ATOM      2  CB  ARG D 557     -26.789   1.319 -17.183  1.00 35.49     0.034 C 
BRANCH   2   3
ATOM      3  CG  ARG D 557     -25.863   0.195 -17.000  1.00 35.49     0.027 C 
BRANCH   3   4
ATOM      4  CD  ARG D 557     -26.266  -0.693 -15.886  1.00 35.49     0.116 C 
BRANCH   4   5
ATOM      5  NE  ARG D 557     -25.200  -0.893 -14.939  1.00 35.49    -0.212 N 
ATOM      6  CZ  ARG D 557     -24.889  -2.032 -14.362  1.00 35.49     0.666 C 
ATOM      7  NH1 ARG D 557     -25.556  -3.148 -14.590  1.00 35.49    -0.235 N 
ATOM      8  NH2 ARG D 557     -23.877  -2.034 -13.544  1.00 35.49    -0.235 N 
ATOM      9  HH  ARG D 557     -26.224  -3.170 -15.127  1.00 35.49     0.174 HD
ATOM     10  HH  ARG D 557     -25.306  -3.861 -14.187  1.00 35.49     0.174 HD
ATOM     11  HH  ARG D 557     -23.460  -1.300 -13.422  1.00 35.49     0.174 HD
ATOM     12  HH  ARG D 557     -23.643  -2.750 -13.156  1.00 35.49     0.174 HD
ATOM     13  HE  ARG D 557     -24.764  -0.211 -14.679  1.00 35.49     0.178 HD
ENDBRANCH   4   5
ENDBRANCH   3   4
ENDBRANCH   2   3
ENDBRANCH   1   2
END_RES ARG D 557
BEGIN_RES GLU D 570
REMARK  3 active torsions:
REMARK  status: ('A' for Active; 'I' for Inactive)
REMARK    5  A    between atoms: CA   and  CB  
REMARK    6  A    between atoms: CB   and  CG  
REMARK    7  A    between atoms: CG   and  CD  
ROOT
ATOM     14  CA  GLU D 570     -18.033  -6.348 -13.375  1.00 32.92     0.160 C 
ENDROOT
BRANCH  14  15
ATOM     15  CB  GLU D 570     -19.500  -6.345 -13.794  1.00 32.92     0.043 C 
BRANCH  15  16
ATOM     16  CG  GLU D 570     -20.449  -5.563 -12.960  1.00 32.92     0.100 C 
BRANCH  16  17
ATOM     17  CD  GLU D 570     -21.682  -5.130 -13.718  1.00 32.92     0.185 C 
ATOM     18  OE1 GLU D 570     -21.633  -5.054 -14.961  1.00 32.92    -0.647 OA
ATOM     19  OE2 GLU D 570     -22.703  -4.848 -13.061  1.00 32.92    -0.647 OA
ENDBRANCH  16  17
ENDBRANCH  15  16
ENDBRANCH  14  15
END_RES GLU D 570
ENDMDL
MODEL 8
REMARK VINA RESULT:      -6.0      8.806     12.223
REMARK  7 active torsions:
REMARK  status: ('A' for Active; 'I' for Inactive)
REMARK    1  A    between atoms: C_2  and  C_3 
REMARK    2  A    between atoms: C_2  and  C_9 
REMARK    3  A    between atoms: C_3  and  C_4 
REMARK    4  A    between atoms: C_4  and  C_5 
REMARK    5  A    between atoms: C_9  and  C_10 
REMARK    6  A    between atoms: C_10  and  O_11 
REMARK    7  A    between atoms: O_11  and  C_12 
ROOT
HETATM    1  C   UNL     1     -20.193  -4.634  -5.600  1.00  0.00     0.010 C 
HETATM    2  C   UNL     1     -20.039  -5.843  -6.530  1.00  0.00    -0.016 C 
ENDROOT
BRANCH   2   3
HETATM    3  C   UNL     1     -21.125  -6.888  -6.175  1.00  0.00     0.008 C 
BRANCH   3   4
HETATM    4  C   UNL     1     -21.762  -6.647  -4.802  1.00  0.00     0.027 C 
BRANCH   4   5
HETATM    5  C   UNL     1     -21.187  -7.507  -3.712  1.00  0.00    -0.025 C 
HETATM    6  C   UNL     1     -21.352  -7.269  -2.395  1.00  0.00    -0.091 C 
HETATM    7  C   UNL     1     -22.156  -6.123  -1.839  1.00  0.00     0.042 C 
HETATM    8  C   UNL     1     -20.723  -8.154  -1.353  1.00  0.00     0.042 C 
ENDBRANCH   4   5
ENDBRANCH   3   4
ENDBRANCH   2   3
BRANCH   2   9
HETATM    9  C   UNL     1     -20.110  -5.433  -8.012  1.00  0.00     0.031 C 
BRANCH   9  10
HETATM   10  C   UNL     1     -20.765  -4.075  -8.266  1.00  0.00     0.179 C 
BRANCH  10  11
HETATM   11  O   UNL     1     -21.911  -4.243  -9.117  1.00  0.00    -0.322 OA
BRANCH  11  12
HETATM   12  C   UNL     1     -23.117  -4.110  -8.496  1.00  0.00     0.254 C 
HETATM   13  O   UNL     1     -23.347  -4.374  -7.324  1.00  0.00    -0.266 OA
HETATM   14  C   UNL     1     -24.151  -3.602  -9.451  1.00  0.00     0.126 C 
ENDBRANCH  11  12
ENDBRANCH  10  11
ENDBRANCH   9  10
ENDBRANCH   2   9
TORSDOF 7
BEGIN_RES ARG D 557
REMARK  4 active torsions:
REMARK  status: ('A' for Active; 'I' for Inactive)
REMARK    1  A    between atoms: CA   and  CB  
REMARK    2  A    between atoms: CB   and  CG  
REMARK    3  A    between atoms: CG   and  CD  
REMARK    4  A    between atoms: CD   and  NE  
REMARK       I    between atoms: NE   and  CZ  
REMARK       I    between atoms: CZ   and  NH1 
REMARK       I    between atoms: CZ   and  NH2 
ROOT
ATOM      1  CA  ARG D 557     -26.217   2.705 -17.014  1.00 35.49     0.159 C 
ENDROOT
BRANCH   1   2
ATOM      2  CB  ARG D 557     -26.789   1.319 -17.183  1.00 35.49     0.034 C 
BRANCH   2   3
ATOM      3  CG  ARG D 557     -25.835   0.203 -17.162  1.00 35.49     0.027 C 
BRANCH   3   4
ATOM      4  CD  ARG D 557     -24.758   0.400 -16.165  1.00 35.49     0.116 C 
BRANCH   4   5
ATOM      5  NE  ARG D 557     -24.921  -0.452 -15.016  1.00 35.49    -0.212 N 
ATOM      6  CZ  ARG D 557     -24.109  -1.422 -14.659  1.00 35.49     0.666 C 
ATOM      7  NH1 ARG D 557     -23.029  -1.734 -15.351  1.00 35.49    -0.235 N 
ATOM      8  NH2 ARG D 557     -24.400  -2.079 -13.574  1.00 35.49    -0.235 N 
ATOM      9  HH  ARG D 557     -22.816  -1.313 -16.066  1.00 35.49     0.174 HD
ATOM     10  HH  ARG D 557     -22.535  -2.374 -15.067  1.00 35.49     0.174 HD
ATOM     11  HH  ARG D 557     -25.100  -1.851 -13.144  1.00 35.49     0.174 HD
ATOM     12  HH  ARG D 557     -23.898  -2.709 -13.310  1.00 35.49     0.174 HD
ATOM     13  HE  ARG D 557     -25.629  -0.368 -14.554  1.00 35.49     0.178 HD
ENDBRANCH   4   5
ENDBRANCH   3   4
ENDBRANCH   2   3
ENDBRANCH   1   2
END_RES ARG D 557
BEGIN_RES GLU D 570
REMARK  3 active torsions:
REMARK  status: ('A' for Active; 'I' for Inactive)
REMARK    5  A    between atoms: CA   and  CB  
REMARK    6  A    between atoms: CB   and  CG  
REMARK    7  A    between atoms: CG   and  CD  
ROOT
ATOM     14  CA  GLU D 570     -18.033  -6.348 -13.375  1.00 32.92     0.160 C 
ENDROOT
BRANCH  14  15
ATOM     15  CB  GLU D 570     -19.500  -6.345 -13.794  1.00 32.92     0.043 C 
BRANCH  15  16
ATOM     16  CG  GLU D 570     -20.445  -5.545 -12.972  1.00 32.92     0.100 C 
BRANCH  16  17
ATOM     17  CD  GLU D 570     -21.658  -5.087 -13.748  1.00 32.92     0.185 C 
ATOM     18  OE1 GLU D 570     -21.930  -5.642 -14.830  1.00 32.92    -0.647 OA
ATOM     19  OE2 GLU D 570     -22.334  -4.151 -13.277  1.00 32.92    -0.647 OA
ENDBRANCH  16  17
ENDBRANCH  15  16
ENDBRANCH  14  15
END_RES GLU D 570
ENDMDL
MODEL 9
REMARK VINA RESULT:      -5.8      2.265      2.967
REMARK  7 active torsions:
REMARK  status: ('A' for Active; 'I' for Inactive)
REMARK    1  A    between atoms: C_2  and  C_3 
REMARK    2  A    between atoms: C_2  and  C_9 
REMARK    3  A    between atoms: C_3  and  C_4 
REMARK    4  A    between atoms: C_4  and  C_5 
REMARK    5  A    between atoms: C_9  and  C_10 
REMARK    6  A    between atoms: C_10  and  O_11 
REMARK    7  A    between atoms: O_11  and  C_12 
ROOT
HETATM    1  C   UNL     1     -37.160   0.822  -9.506  1.00  0.00     0.010 C 
HETATM    2  C   UNL     1     -36.829  -0.090 -10.694  1.00  0.00    -0.016 C 
ENDROOT
BRANCH   2   3
HETATM    3  C   UNL     1     -36.420  -1.483 -10.156  1.00  0.00     0.008 C 
BRANCH   3   4
HETATM    4  C   UNL     1     -35.281  -2.122 -10.956  1.00  0.00     0.027 C 
BRANCH   4   5
HETATM    5  C   UNL     1     -35.144  -3.602 -10.734  1.00  0.00    -0.025 C 
HETATM    6  C   UNL     1     -34.044  -4.316 -11.049  1.00  0.00    -0.091 C 
HETATM    7  C   UNL     1     -32.796  -3.721 -11.645  1.00  0.00     0.042 C 
HETATM    8  C   UNL     1     -33.983  -5.803 -10.828  1.00  0.00     0.042 C 
ENDBRANCH   4   5
ENDBRANCH   3   4
ENDBRANCH   2   3
BRANCH   2   9
HETATM    9  C   UNL     1     -38.008  -0.188 -11.680  1.00  0.00     0.031 C 
BRANCH   9  10
HETATM   10  C   UNL     1     -37.606  -0.168 -13.155  1.00  0.00     0.179 C 
BRANCH  10  11
HETATM   11  O   UNL     1     -36.295   0.403 -13.291  1.00  0.00    -0.322 OA
BRANCH  11  12
HETATM   12  C   UNL     1     -35.489  -0.210 -14.203  1.00  0.00     0.254 C 
HETATM   13  O   UNL     1     -35.375  -1.418 -14.353  1.00  0.00    -0.266 OA
HETATM   14  C   UNL     1     -34.733   0.801 -15.007  1.00  0.00     0.126 C 
ENDBRANCH  11  12
ENDBRANCH  10  11
ENDBRANCH   9  10
ENDBRANCH   2   9
TORSDOF 7
BEGIN_RES ARG D 557
REMARK  4 active torsions:
REMARK  status: ('A' for Active; 'I' for Inactive)
REMARK    1  A    between atoms: CA   and  CB  
REMARK    2  A    between atoms: CB   and  CG  
REMARK    3  A    between atoms: CG   and  CD  
REMARK    4  A    between atoms: CD   and  NE  
REMARK       I    between atoms: NE   and  CZ  
REMARK       I    between atoms: CZ   and  NH1 
REMARK       I    between atoms: CZ   and  NH2 
ROOT
ATOM      1  CA  ARG D 557     -26.217   2.705 -17.014  1.00 35.49     0.159 C 
ENDROOT
BRANCH   1   2
ATOM      2  CB  ARG D 557     -26.789   1.319 -17.183  1.00 35.49     0.034 C 
BRANCH   2   3
ATOM      3  CG  ARG D 557     -25.924   0.196 -16.801  1.00 35.49     0.027 C 
BRANCH   3   4
ATOM      4  CD  ARG D 557     -26.669  -0.879 -16.107  1.00 35.49     0.116 C 
BRANCH   4   5
ATOM      5  NE  ARG D 557     -25.890  -1.494 -15.065  1.00 35.49    -0.212 N 
ATOM      6  CZ  ARG D 557     -25.921  -2.764 -14.730  1.00 35.49     0.666 C 
ATOM      7  NH1 ARG D 557     -26.711  -3.636 -15.328  1.00 35.49    -0.235 N 
ATOM      8  NH2 ARG D 557     -25.129  -3.152 -13.773  1.00 35.49    -0.235 N 
ATOM      9  HH  ARG D 557     -27.239  -3.403 -15.962  1.00 35.49     0.174 HD
ATOM     10  HH  ARG D 557     -26.686  -4.452 -15.069  1.00 35.49     0.174 HD
ATOM     11  HH  ARG D 557     -24.624  -2.568 -13.409  1.00 35.49     0.174 HD
ATOM     12  HH  ARG D 557     -25.118  -3.965 -13.531  1.00 35.49     0.174 HD
ATOM     13  HE  ARG D 557     -25.406  -0.991 -14.579  1.00 35.49     0.178 HD
ENDBRANCH   4   5
ENDBRANCH   3   4
ENDBRANCH   2   3
ENDBRANCH   1   2
END_RES ARG D 557
BEGIN_RES GLU D 570
REMARK  3 active torsions:
REMARK  status: ('A' for Active; 'I' for Inactive)
REMARK    5  A    between atoms: CA   and  CB  
REMARK    6  A    between atoms: CB   and  CG  
REMARK    7  A    between atoms: CG   and  CD  
ROOT
ATOM     14  CA  GLU D 570     -18.033  -6.348 -13.375  1.00 32.92     0.160 C 
ENDROOT
BRANCH  14  15
ATOM     15  CB  GLU D 570     -19.500  -6.345 -13.794  1.00 32.92     0.043 C 
BRANCH  15  16
ATOM     16  CG  GLU D 570     -20.438  -5.514 -12.996  1.00 32.92     0.100 C 
BRANCH  16  17
ATOM     17  CD  GLU D 570     -21.742  -5.246 -13.710  1.00 32.92     0.185 C 
ATOM     18  OE1 GLU D 570     -22.457  -4.299 -13.331  1.00 32.92    -0.647 OA
ATOM     19  OE2 GLU D 570     -22.061  -6.003 -14.649  1.00 32.92    -0.647 OA
ENDBRANCH  16  17
ENDBRANCH  15  16
ENDBRANCH  14  15
END_RES GLU D 570
ENDMDL
