MODEL 1
REMARK VINA RESULT:      -7.8      0.000      0.000
REMARK  13 active torsions:
REMARK  status: ('A' for Active; 'I' for Inactive)
REMARK    1  A    between atoms: C_2  and  C_3 
REMARK    2  A    between atoms: C_3  and  C_4 
REMARK    3  A    between atoms: C_4  and  C_5 
REMARK    4  A    between atoms: C_5  and  C_6 
REMARK    5  A    between atoms: C_6  and  C_7 
REMARK    6  A    between atoms: C_7  and  C_8 
REMARK    7  A    between atoms: C_8  and  C_9 
REMARK    8  A    between atoms: C_9  and  C_10 
REMARK    9  A    between atoms: C_10  and  C_11 
REMARK   10  A    between atoms: C_11  and  C_12 
REMARK   11  A    between atoms: C_12  and  C_13 
REMARK   12  A    between atoms: C_14  and  O_31 
REMARK   13  A    between atoms: C_15  and  N_20 
ROOT
HETATM    1  C   UNL     1     -20.059  -8.463  -3.677  1.00  0.00    -0.022 A 
HETATM    2  C   UNL     1     -20.150  -7.766  -4.896  1.00  0.00     0.102 A 
HETATM    3  C   UNL     1     -20.929  -6.604  -4.993  1.00  0.00     0.109 A 
HETATM    4  C   UNL     1     -21.587  -6.125  -3.839  1.00  0.00     0.043 A 
HETATM    5  C   UNL     1     -21.477  -6.796  -2.614  1.00  0.00    -0.059 A 
HETATM    6  C   UNL     1     -20.713  -7.961  -2.545  1.00  0.00     0.017 A 
HETATM    7  C   UNL     1     -22.167  -6.309  -1.376  1.00  0.00     0.048 C 
ENDROOT
BRANCH   1   8
HETATM    8  C   UNL     1     -19.315  -9.763  -3.540  1.00  0.00     0.041 C 
BRANCH   8   9
HETATM    9  C   UNL     1     -20.252 -10.918  -3.183  1.00  0.00     0.005 C 
BRANCH   9  10
HETATM   10  C   UNL     1     -21.362 -11.088  -4.218  1.00  0.00     0.000 C 
BRANCH  10  11
HETATM   11  C   UNL     1     -22.745 -11.024  -3.580  1.00  0.00     0.000 C 
BRANCH  11  12
HETATM   12  C   UNL     1     -22.826 -11.899  -2.341  1.00  0.00     0.000 C 
BRANCH  12  13
HETATM   13  C   UNL     1     -23.978 -11.430  -1.461  1.00  0.00     0.000 C 
BRANCH  13  14
HETATM   14  C   UNL     1     -23.473 -11.076  -0.073  1.00  0.00     0.000 C 
BRANCH  14  15
HETATM   15  C   UNL     1     -22.797  -9.712  -0.084  1.00  0.00     0.000 C 
BRANCH  15  16
HETATM   16  C   UNL     1     -21.409  -9.806   0.534  1.00  0.00     0.000 C 
BRANCH  16  17
HETATM   17  C   UNL     1     -21.062 -11.254   0.858  1.00  0.00    -0.000 C 
BRANCH  17  18
HETATM   18  C   UNL     1     -19.701 -11.626   0.283  1.00  0.00    -0.005 C 
HETATM   19  C   UNL     1     -19.667 -13.086  -0.129  1.00  0.00     0.005 C 
ENDBRANCH  17  18
ENDBRANCH  16  17
ENDBRANCH  15  16
ENDBRANCH  14  15
ENDBRANCH  13  14
ENDBRANCH  12  13
ENDBRANCH  11  12
ENDBRANCH  10  11
ENDBRANCH   9  10
ENDBRANCH   8   9
ENDBRANCH   1   8
BRANCH   2  20
HETATM   20  O   UNL     1     -19.483  -8.246  -5.990  1.00  0.00    -0.358 OA
HETATM   21  H   UNL     1     -19.883  -7.924  -6.811  1.00  0.00     0.217 HD
ENDBRANCH   2  20
BRANCH   3  22
HETATM   22  N   UNL     1     -21.087  -5.890  -6.222  1.00  0.00    -0.193 N 
HETATM   23  N   UNL     1     -20.094  -5.763  -7.135  1.00  0.00    -0.277 N 
HETATM   24  C   UNL     1     -20.650  -5.055  -8.118  1.00  0.00     0.078 A 
ATOM     25  HN  UNL     1     -19.142  -6.125  -7.082  1.00  0.00     0.189 HD
HETATM   26  C   UNL     1     -20.079  -4.629  -9.329  1.00  0.00     0.033 A 
HETATM   27  C   UNL     1     -22.026  -4.755  -7.746  1.00  0.00     0.078 A 
HETATM   28  C   UNL     1     -20.944  -3.886 -10.150  1.00  0.00     0.002 A 
HETATM   29  C   UNL     1     -22.288  -3.589  -9.792  1.00  0.00     0.002 A 
HETATM   30  C   UNL     1     -22.877  -4.012  -8.583  1.00  0.00     0.033 A 
HETATM   31  N   UNL     1     -22.270  -5.294  -6.545  1.00  0.00    -0.277 N 
ATOM     32  HN  UNL     1     -23.133  -5.264  -6.001  1.00  0.00     0.189 HD
ENDBRANCH   3  22
TORSDOF 13
BEGIN_RES ARG D 557
REMARK  4 active torsions:
REMARK  status: ('A' for Active; 'I' for Inactive)
REMARK    1  A    between atoms: CA   and  CB  
REMARK    2  A    between atoms: CB   and  CG  
REMARK    3  A    between atoms: CG   and  CD  
REMARK    4  A    between atoms: CD   and  NE  
REMARK       I    between atoms: NE   and  CZ  
REMARK       I    between atoms: CZ   and  NH1 
REMARK       I    between atoms: CZ   and  NH2 
ROOT
ATOM      1  CA  ARG D 557     -26.217   2.705 -17.014  1.00 35.49     0.159 C 
ENDROOT
BRANCH   1   2
ATOM      2  CB  ARG D 557     -26.789   1.319 -17.183  1.00 35.49     0.034 C 
BRANCH   2   3
ATOM      3  CG  ARG D 557     -25.835   0.203 -17.162  1.00 35.49     0.027 C 
BRANCH   3   4
ATOM      4  CD  ARG D 557     -24.757   0.402 -16.167  1.00 35.49     0.116 C 
BRANCH   4   5
ATOM      5  NE  ARG D 557     -24.920  -0.443 -15.014  1.00 35.49    -0.212 N 
ATOM      6  CZ  ARG D 557     -24.114  -1.417 -14.654  1.00 35.49     0.666 C 
ATOM      7  NH1 ARG D 557     -23.039  -1.740 -15.349  1.00 35.49    -0.235 N 
ATOM      8  NH2 ARG D 557     -24.406  -2.067 -13.565  1.00 35.49    -0.235 N 
ATOM      9  HH  ARG D 557     -22.826  -1.325 -16.067  1.00 35.49     0.174 HD
ATOM     10  HH  ARG D 557     -22.549  -2.383 -15.064  1.00 35.49     0.174 HD
ATOM     11  HH  ARG D 557     -25.103  -1.831 -13.133  1.00 35.49     0.174 HD
ATOM     12  HH  ARG D 557     -23.908  -2.699 -13.299  1.00 35.49     0.174 HD
ATOM     13  HE  ARG D 557     -25.627  -0.352 -14.549  1.00 35.49     0.178 HD
ENDBRANCH   4   5
ENDBRANCH   3   4
ENDBRANCH   2   3
ENDBRANCH   1   2
END_RES ARG D 557
BEGIN_RES GLU D 570
REMARK  3 active torsions:
REMARK  status: ('A' for Active; 'I' for Inactive)
REMARK    5  A    between atoms: CA   and  CB  
REMARK    6  A    between atoms: CB   and  CG  
REMARK    7  A    between atoms: CG   and  CD  
ROOT
ATOM     14  CA  GLU D 570     -18.033  -6.348 -13.375  1.00 32.92     0.160 C 
ENDROOT
BRANCH  14  15
ATOM     15  CB  GLU D 570     -19.500  -6.345 -13.794  1.00 32.92     0.043 C 
BRANCH  15  16
ATOM     16  CG  GLU D 570     -20.441  -5.526 -12.987  1.00 32.92     0.100 C 
BRANCH  16  17
ATOM     17  CD  GLU D 570     -21.748  -5.259 -13.696  1.00 32.92     0.185 C 
ATOM     18  OE1 GLU D 570     -22.310  -4.159 -13.535  1.00 32.92    -0.647 OA
ATOM     19  OE2 GLU D 570     -22.222  -6.165 -14.409  1.00 32.92    -0.647 OA
ENDBRANCH  16  17
ENDBRANCH  15  16
ENDBRANCH  14  15
END_RES GLU D 570
ENDMDL
MODEL 2
REMARK VINA RESULT:      -7.7      1.298      3.170
REMARK  13 active torsions:
REMARK  status: ('A' for Active; 'I' for Inactive)
REMARK    1  A    between atoms: C_2  and  C_3 
REMARK    2  A    between atoms: C_3  and  C_4 
REMARK    3  A    between atoms: C_4  and  C_5 
REMARK    4  A    between atoms: C_5  and  C_6 
REMARK    5  A    between atoms: C_6  and  C_7 
REMARK    6  A    between atoms: C_7  and  C_8 
REMARK    7  A    between atoms: C_8  and  C_9 
REMARK    8  A    between atoms: C_9  and  C_10 
REMARK    9  A    between atoms: C_10  and  C_11 
REMARK   10  A    between atoms: C_11  and  C_12 
REMARK   11  A    between atoms: C_12  and  C_13 
REMARK   12  A    between atoms: C_14  and  O_31 
REMARK   13  A    between atoms: C_15  and  N_20 
ROOT
HETATM    1  C   UNL     1     -21.300  -7.702  -1.994  1.00  0.00    -0.022 A 
HETATM    2  C   UNL     1     -21.562  -6.949  -3.153  1.00  0.00     0.102 A 
HETATM    3  C   UNL     1     -20.847  -7.191  -4.335  1.00  0.00     0.109 A 
HETATM    4  C   UNL     1     -19.890  -8.229  -4.352  1.00  0.00     0.043 A 
HETATM    5  C   UNL     1     -19.644  -9.004  -3.211  1.00  0.00    -0.059 A 
HETATM    6  C   UNL     1     -20.352  -8.732  -2.040  1.00  0.00     0.017 A 
HETATM    7  C   UNL     1     -18.632 -10.109  -3.204  1.00  0.00     0.048 C 
ENDROOT
BRANCH   1   8
HETATM    8  C   UNL     1     -21.969  -7.422  -0.677  1.00  0.00     0.041 C 
BRANCH   8   9
HETATM    9  C   UNL     1     -22.084  -8.683   0.182  1.00  0.00     0.005 C 
BRANCH   9  10
HETATM   10  C   UNL     1     -21.189  -8.610   1.417  1.00  0.00     0.000 C 
BRANCH  10  11
HETATM   11  C   UNL     1     -20.468  -9.929   1.671  1.00  0.00     0.000 C 
BRANCH  11  12
HETATM   12  C   UNL     1     -20.608 -10.876   0.492  1.00  0.00     0.000 C 
BRANCH  12  13
HETATM   13  C   UNL     1     -21.379 -12.117   0.924  1.00  0.00     0.000 C 
BRANCH  13  14
HETATM   14  C   UNL     1     -22.489 -12.421  -0.065  1.00  0.00     0.000 C 
BRANCH  14  15
HETATM   15  C   UNL     1     -22.074 -12.017  -1.474  1.00  0.00     0.000 C 
BRANCH  15  16
HETATM   16  C   UNL     1     -23.206 -11.266  -2.162  1.00  0.00     0.000 C 
BRANCH  16  17
HETATM   17  C   UNL     1     -22.815 -10.895  -3.587  1.00  0.00    -0.000 C 
BRANCH  17  18
HETATM   18  C   UNL     1     -21.927 -11.970  -4.202  1.00  0.00    -0.005 C 
HETATM   19  C   UNL     1     -21.319 -11.491  -5.507  1.00  0.00     0.005 C 
ENDBRANCH  17  18
ENDBRANCH  16  17
ENDBRANCH  15  16
ENDBRANCH  14  15
ENDBRANCH  13  14
ENDBRANCH  12  13
ENDBRANCH  11  12
ENDBRANCH  10  11
ENDBRANCH   9  10
ENDBRANCH   8   9
ENDBRANCH   1   8
BRANCH   2  20
HETATM   20  O   UNL     1     -22.512  -5.964  -3.107  1.00  0.00    -0.358 OA
HETATM   21  H   UNL     1     -23.360  -6.313  -2.796  1.00  0.00     0.217 HD
ENDBRANCH   2  20
BRANCH   3  22
HETATM   22  N   UNL     1     -21.049  -6.420  -5.522  1.00  0.00    -0.193 N 
HETATM   23  N   UNL     1     -22.164  -5.684  -5.744  1.00  0.00    -0.277 N 
HETATM   24  C   UNL     1     -21.948  -5.122  -6.933  1.00  0.00     0.078 A 
ATOM     25  HN  UNL     1     -22.981  -5.584  -5.141  1.00  0.00     0.189 HD
HETATM   26  C   UNL     1     -22.775  -4.249  -7.659  1.00  0.00     0.033 A 
HETATM   27  C   UNL     1     -20.648  -5.564  -7.419  1.00  0.00     0.078 A 
HETATM   28  C   UNL     1     -22.247  -3.841  -8.896  1.00  0.00     0.002 A 
HETATM   29  C   UNL     1     -20.979  -4.271  -9.377  1.00  0.00     0.002 A 
HETATM   30  C   UNL     1     -20.135  -5.142  -8.659  1.00  0.00     0.033 A 
HETATM   31  N   UNL     1     -20.107  -6.383  -6.508  1.00  0.00    -0.277 N 
ATOM     32  HN  UNL     1     -19.208  -6.865  -6.542  1.00  0.00     0.189 HD
ENDBRANCH   3  22
TORSDOF 13
BEGIN_RES ARG D 557
REMARK  4 active torsions:
REMARK  status: ('A' for Active; 'I' for Inactive)
REMARK    1  A    between atoms: CA   and  CB  
REMARK    2  A    between atoms: CB   and  CG  
REMARK    3  A    between atoms: CG   and  CD  
REMARK    4  A    between atoms: CD   and  NE  
REMARK       I    between atoms: NE   and  CZ  
REMARK       I    between atoms: CZ   and  NH1 
REMARK       I    between atoms: CZ   and  NH2 
ROOT
ATOM      1  CA  ARG D 557     -26.217   2.705 -17.014  1.00 35.49     0.159 C 
ENDROOT
BRANCH   1   2
ATOM      2  CB  ARG D 557     -26.789   1.319 -17.183  1.00 35.49     0.034 C 
BRANCH   2   3
ATOM      3  CG  ARG D 557     -25.863   0.195 -16.999  1.00 35.49     0.027 C 
BRANCH   3   4
ATOM      4  CD  ARG D 557     -26.280  -0.705 -15.899  1.00 35.49     0.116 C 
BRANCH   4   5
ATOM      5  NE  ARG D 557     -25.222  -0.928 -14.949  1.00 35.49    -0.212 N 
ATOM      6  CZ  ARG D 557     -24.971  -2.059 -14.330  1.00 35.49     0.666 C 
ATOM      7  NH1 ARG D 557     -25.700  -3.145 -14.513  1.00 35.49    -0.235 N 
ATOM      8  NH2 ARG D 557     -23.956  -2.086 -13.516  1.00 35.49    -0.235 N 
ATOM      9  HH  ARG D 557     -26.371  -3.150 -15.046  1.00 35.49     0.174 HD
ATOM     10  HH  ARG D 557     -25.487  -3.855 -14.084  1.00 35.49     0.174 HD
ATOM     11  HH  ARG D 557     -23.498  -1.372 -13.424  1.00 35.49     0.174 HD
ATOM     12  HH  ARG D 557     -23.760  -2.799 -13.102  1.00 35.49     0.174 HD
ATOM     13  HE  ARG D 557     -24.747  -0.261 -14.717  1.00 35.49     0.178 HD
ENDBRANCH   4   5
ENDBRANCH   3   4
ENDBRANCH   2   3
ENDBRANCH   1   2
END_RES ARG D 557
BEGIN_RES GLU D 570
REMARK  3 active torsions:
REMARK  status: ('A' for Active; 'I' for Inactive)
REMARK    5  A    between atoms: CA   and  CB  
REMARK    6  A    between atoms: CB   and  CG  
REMARK    7  A    between atoms: CG   and  CD  
ROOT
ATOM     14  CA  GLU D 570     -18.033  -6.348 -13.375  1.00 32.92     0.160 C 
ENDROOT
BRANCH  14  15
ATOM     15  CB  GLU D 570     -19.500  -6.345 -13.794  1.00 32.92     0.043 C 
BRANCH  15  16
ATOM     16  CG  GLU D 570     -20.452  -5.580 -12.948  1.00 32.92     0.100 C 
BRANCH  16  17
ATOM     17  CD  GLU D 570     -21.691  -5.148 -13.698  1.00 32.92     0.185 C 
ATOM     18  OE1 GLU D 570     -21.662  -5.110 -14.943  1.00 32.92    -0.647 OA
ATOM     19  OE2 GLU D 570     -22.695  -4.827 -13.032  1.00 32.92    -0.647 OA
ENDBRANCH  16  17
ENDBRANCH  15  16
ENDBRANCH  14  15
END_RES GLU D 570
ENDMDL
MODEL 3
REMARK VINA RESULT:      -7.6      1.791      2.610
REMARK  13 active torsions:
REMARK  status: ('A' for Active; 'I' for Inactive)
REMARK    1  A    between atoms: C_2  and  C_3 
REMARK    2  A    between atoms: C_3  and  C_4 
REMARK    3  A    between atoms: C_4  and  C_5 
REMARK    4  A    between atoms: C_5  and  C_6 
REMARK    5  A    between atoms: C_6  and  C_7 
REMARK    6  A    between atoms: C_7  and  C_8 
REMARK    7  A    between atoms: C_8  and  C_9 
REMARK    8  A    between atoms: C_9  and  C_10 
REMARK    9  A    between atoms: C_10  and  C_11 
REMARK   10  A    between atoms: C_11  and  C_12 
REMARK   11  A    between atoms: C_12  and  C_13 
REMARK   12  A    between atoms: C_14  and  O_31 
REMARK   13  A    between atoms: C_15  and  N_20 
ROOT
HETATM    1  C   UNL     1     -20.003  -8.479  -3.738  1.00  0.00    -0.022 A 
HETATM    2  C   UNL     1     -20.093  -7.771  -4.951  1.00  0.00     0.102 A 
HETATM    3  C   UNL     1     -20.891  -6.622  -5.045  1.00  0.00     0.109 A 
HETATM    4  C   UNL     1     -21.571  -6.168  -3.893  1.00  0.00     0.043 A 
HETATM    5  C   UNL     1     -21.463  -6.851  -2.674  1.00  0.00    -0.059 A 
HETATM    6  C   UNL     1     -20.679  -8.002  -2.609  1.00  0.00     0.017 A 
HETATM    7  C   UNL     1     -22.176  -6.390  -1.440  1.00  0.00     0.048 C 
ENDROOT
BRANCH   1   8
HETATM    8  C   UNL     1     -19.237  -9.767  -3.608  1.00  0.00     0.041 C 
BRANCH   8   9
HETATM    9  C   UNL     1     -19.266 -10.302  -2.175  1.00  0.00     0.005 C 
BRANCH   9  10
HETATM   10  C   UNL     1     -19.859 -11.708  -2.108  1.00  0.00     0.000 C 
BRANCH  10  11
HETATM   11  C   UNL     1     -20.002 -12.193  -0.670  1.00  0.00     0.000 C 
BRANCH  11  12
HETATM   12  C   UNL     1     -19.534 -11.141   0.321  1.00  0.00     0.000 C 
BRANCH  12  13
HETATM   13  C   UNL     1     -20.714 -10.671   1.161  1.00  0.00     0.000 C 
BRANCH  13  14
HETATM   14  C   UNL     1     -21.140  -9.276   0.740  1.00  0.00     0.000 C 
BRANCH  14  15
HETATM   15  C   UNL     1     -22.641  -9.231   0.486  1.00  0.00     0.000 C 
BRANCH  15  16
HETATM   16  C   UNL     1     -23.007 -10.144  -0.676  1.00  0.00     0.000 C 
BRANCH  16  17
HETATM   17  C   UNL     1     -24.130 -11.093  -0.280  1.00  0.00    -0.000 C 
BRANCH  17  18
HETATM   18  C   UNL     1     -23.654 -12.541  -0.321  1.00  0.00    -0.005 C 
HETATM   19  C   UNL     1     -23.357 -13.053   1.076  1.00  0.00     0.005 C 
ENDBRANCH  17  18
ENDBRANCH  16  17
ENDBRANCH  15  16
ENDBRANCH  14  15
ENDBRANCH  13  14
ENDBRANCH  12  13
ENDBRANCH  11  12
ENDBRANCH  10  11
ENDBRANCH   9  10
ENDBRANCH   8   9
ENDBRANCH   1   8
BRANCH   2  20
HETATM   20  O   UNL     1     -19.404  -8.227  -6.042  1.00  0.00    -0.358 OA
HETATM   21  H   UNL     1     -18.462  -8.332  -5.841  1.00  0.00     0.217 HD
ENDBRANCH   2  20
BRANCH   3  22
HETATM   22  N   UNL     1     -21.048  -5.898  -6.268  1.00  0.00    -0.193 N 
HETATM   23  N   UNL     1     -20.049  -5.746  -7.169  1.00  0.00    -0.277 N 
HETATM   24  C   UNL     1     -20.605  -5.036  -8.151  1.00  0.00     0.078 A 
ATOM     25  HN  UNL     1     -19.092  -6.095  -7.111  1.00  0.00     0.189 HD
HETATM   26  C   UNL     1     -20.029  -4.589  -9.351  1.00  0.00     0.033 A 
HETATM   27  C   UNL     1     -21.989  -4.761  -7.789  1.00  0.00     0.078 A 
HETATM   28  C   UNL     1     -20.898  -3.850 -10.173  1.00  0.00     0.002 A 
HETATM   29  C   UNL     1     -22.249  -3.576  -9.825  1.00  0.00     0.002 A 
HETATM   30  C   UNL     1     -22.844  -4.020  -8.626  1.00  0.00     0.033 A 
HETATM   31  N   UNL     1     -22.237  -5.315  -6.595  1.00  0.00    -0.277 N 
ATOM     32  HN  UNL     1     -23.105  -5.304  -6.059  1.00  0.00     0.189 HD
ENDBRANCH   3  22
TORSDOF 13
BEGIN_RES ARG D 557
REMARK  4 active torsions:
REMARK  status: ('A' for Active; 'I' for Inactive)
REMARK    1  A    between atoms: CA   and  CB  
REMARK    2  A    between atoms: CB   and  CG  
REMARK    3  A    between atoms: CG   and  CD  
REMARK    4  A    between atoms: CD   and  NE  
REMARK       I    between atoms: NE   and  CZ  
REMARK       I    between atoms: CZ   and  NH1 
REMARK       I    between atoms: CZ   and  NH2 
ROOT
ATOM      1  CA  ARG D 557     -26.217   2.705 -17.014  1.00 35.49     0.159 C 
ENDROOT
BRANCH   1   2
ATOM      2  CB  ARG D 557     -26.789   1.319 -17.183  1.00 35.49     0.034 C 
BRANCH   2   3
ATOM      3  CG  ARG D 557     -28.233   1.226 -17.433  1.00 35.49     0.027 C 
BRANCH   3   4
ATOM      4  CD  ARG D 557     -28.909   0.299 -16.497  1.00 35.49     0.116 C 
BRANCH   4   5
ATOM      5  NE  ARG D 557     -29.314  -0.923 -17.141  1.00 35.49    -0.212 N 
ATOM      6  CZ  ARG D 557     -28.699  -2.080 -17.048  1.00 35.49     0.666 C 
ATOM      7  NH1 ARG D 557     -27.597  -2.243 -16.339  1.00 35.49    -0.235 N 
ATOM      8  NH2 ARG D 557     -29.220  -3.089 -17.684  1.00 35.49    -0.235 N 
ATOM      9  HH  ARG D 557     -27.238  -1.593 -15.911  1.00 35.49     0.174 HD
ATOM     10  HH  ARG D 557     -27.241  -3.022 -16.313  1.00 35.49     0.174 HD
ATOM     11  HH  ARG D 557     -29.936  -2.956 -18.128  1.00 35.49     0.174 HD
ATOM     12  HH  ARG D 557     -28.853  -3.853 -17.645  1.00 35.49     0.174 HD
ATOM     13  HE  ARG D 557     -29.973  -0.892 -17.677  1.00 35.49     0.178 HD
ENDBRANCH   4   5
ENDBRANCH   3   4
ENDBRANCH   2   3
ENDBRANCH   1   2
END_RES ARG D 557
BEGIN_RES GLU D 570
REMARK  3 active torsions:
REMARK  status: ('A' for Active; 'I' for Inactive)
REMARK    5  A    between atoms: CA   and  CB  
REMARK    6  A    between atoms: CB   and  CG  
REMARK    7  A    between atoms: CG   and  CD  
ROOT
ATOM     14  CA  GLU D 570     -18.033  -6.348 -13.375  1.00 32.92     0.160 C 
ENDROOT
BRANCH  14  15
ATOM     15  CB  GLU D 570     -19.500  -6.345 -13.794  1.00 32.92     0.043 C 
BRANCH  15  16
ATOM     16  CG  GLU D 570     -20.446  -5.550 -12.969  1.00 32.92     0.100 C 
BRANCH  16  17
ATOM     17  CD  GLU D 570     -21.694  -5.152 -13.722  1.00 32.92     0.185 C 
ATOM     18  OE1 GLU D 570     -21.642  -5.036 -14.962  1.00 32.92    -0.647 OA
ATOM     19  OE2 GLU D 570     -22.731  -4.937 -13.064  1.00 32.92    -0.647 OA
ENDBRANCH  16  17
ENDBRANCH  15  16
ENDBRANCH  14  15
END_RES GLU D 570
ENDMDL
MODEL 4
REMARK VINA RESULT:      -7.6      2.886      9.439
REMARK  13 active torsions:
REMARK  status: ('A' for Active; 'I' for Inactive)
REMARK    1  A    between atoms: C_2  and  C_3 
REMARK    2  A    between atoms: C_3  and  C_4 
REMARK    3  A    between atoms: C_4  and  C_5 
REMARK    4  A    between atoms: C_5  and  C_6 
REMARK    5  A    between atoms: C_6  and  C_7 
REMARK    6  A    between atoms: C_7  and  C_8 
REMARK    7  A    between atoms: C_8  and  C_9 
REMARK    8  A    between atoms: C_9  and  C_10 
REMARK    9  A    between atoms: C_10  and  C_11 
REMARK   10  A    between atoms: C_11  and  C_12 
REMARK   11  A    between atoms: C_12  and  C_13 
REMARK   12  A    between atoms: C_14  and  O_31 
REMARK   13  A    between atoms: C_15  and  N_20 
ROOT
HETATM    1  C   UNL     1     -22.268  -4.647  -7.251  1.00  0.00    -0.022 A 
HETATM    2  C   UNL     1     -22.398  -5.321  -6.023  1.00  0.00     0.102 A 
HETATM    3  C   UNL     1     -21.261  -5.668  -5.279  1.00  0.00     0.109 A 
HETATM    4  C   UNL     1     -19.989  -5.297  -5.765  1.00  0.00     0.043 A 
HETATM    5  C   UNL     1     -19.852  -4.599  -6.972  1.00  0.00    -0.059 A 
HETATM    6  C   UNL     1     -20.995  -4.282  -7.705  1.00  0.00     0.017 A 
HETATM    7  C   UNL     1     -18.513  -4.196  -7.509  1.00  0.00     0.048 C 
ENDROOT
BRANCH   1   8
HETATM    8  C   UNL     1     -23.445  -4.335  -8.132  1.00  0.00     0.041 C 
BRANCH   8   9
HETATM    9  C   UNL     1     -23.018  -4.059  -9.575  1.00  0.00     0.005 C 
BRANCH   9  10
HETATM   10  C   UNL     1     -24.213  -3.729 -10.466  1.00  0.00     0.000 C 
BRANCH  10  11
HETATM   11  C   UNL     1     -23.803  -2.903 -11.680  1.00  0.00     0.000 C 
BRANCH  11  12
HETATM   12  C   UNL     1     -22.609  -3.516 -12.391  1.00  0.00     0.000 C 
BRANCH  12  13
HETATM   13  C   UNL     1     -22.715  -3.251 -13.887  1.00  0.00     0.000 C 
BRANCH  13  14
HETATM   14  C   UNL     1     -22.673  -4.557 -14.660  1.00  0.00     0.000 C 
BRANCH  14  15
HETATM   15  C   UNL     1     -23.996  -5.298 -14.529  1.00  0.00     0.000 C 
BRANCH  15  16
HETATM   16  C   UNL     1     -23.839  -6.742 -14.986  1.00  0.00     0.000 C 
BRANCH  16  17
HETATM   17  C   UNL     1     -24.772  -7.041 -16.153  1.00  0.00    -0.000 C 
BRANCH  17  18
HETATM   18  C   UNL     1     -26.207  -6.659 -15.809  1.00  0.00    -0.005 C 
HETATM   19  C   UNL     1     -26.862  -5.917 -16.959  1.00  0.00     0.005 C 
ENDBRANCH  17  18
ENDBRANCH  16  17
ENDBRANCH  15  16
ENDBRANCH  14  15
ENDBRANCH  13  14
ENDBRANCH  12  13
ENDBRANCH  11  12
ENDBRANCH  10  11
ENDBRANCH   9  10
ENDBRANCH   8   9
ENDBRANCH   1   8
BRANCH   2  20
HETATM   20  O   UNL     1     -23.648  -5.648  -5.571  1.00  0.00    -0.358 OA
HETATM   21  H   UNL     1     -24.022  -4.933  -5.034  1.00  0.00     0.217 HD
ENDBRANCH   2  20
BRANCH   3  22
HETATM   22  N   UNL     1     -21.345  -6.392  -4.049  1.00  0.00    -0.193 N 
HETATM   23  N   UNL     1     -22.062  -5.960  -2.984  1.00  0.00    -0.277 N 
HETATM   24  C   UNL     1     -21.890  -6.915  -2.070  1.00  0.00     0.078 A 
ATOM     25  HN  UNL     1     -22.608  -5.102  -2.901  1.00  0.00     0.189 HD
HETATM   26  C   UNL     1     -22.412  -6.994  -0.769  1.00  0.00     0.033 A 
HETATM   27  C   UNL     1     -21.025  -7.941  -2.637  1.00  0.00     0.078 A 
HETATM   28  C   UNL     1     -22.026  -8.142  -0.056  1.00  0.00     0.002 A 
HETATM   29  C   UNL     1     -21.180  -9.147  -0.603  1.00  0.00     0.002 A 
HETATM   30  C   UNL     1     -20.652  -9.085  -1.908  1.00  0.00     0.033 A 
HETATM   31  N   UNL     1     -20.696  -7.581  -3.885  1.00  0.00    -0.277 N 
ATOM     32  HN  UNL     1     -20.104  -8.076  -4.552  1.00  0.00     0.189 HD
ENDBRANCH   3  22
TORSDOF 13
BEGIN_RES ARG D 557
REMARK  4 active torsions:
REMARK  status: ('A' for Active; 'I' for Inactive)
REMARK    1  A    between atoms: CA   and  CB  
REMARK    2  A    between atoms: CB   and  CG  
REMARK    3  A    between atoms: CG   and  CD  
REMARK    4  A    between atoms: CD   and  NE  
REMARK       I    between atoms: NE   and  CZ  
REMARK       I    between atoms: CZ   and  NH1 
REMARK       I    between atoms: CZ   and  NH2 
ROOT
ATOM      1  CA  ARG D 557     -26.217   2.705 -17.014  1.00 35.49     0.159 C 
ENDROOT
BRANCH   1   2
ATOM      2  CB  ARG D 557     -26.789   1.319 -17.183  1.00 35.49     0.034 C 
BRANCH   2   3
ATOM      3  CG  ARG D 557     -28.236   1.225 -17.411  1.00 35.49     0.027 C 
BRANCH   3   4
ATOM      4  CD  ARG D 557     -28.895   0.285 -16.475  1.00 35.49     0.116 C 
BRANCH   4   5
ATOM      5  NE  ARG D 557     -29.297  -0.934 -17.124  1.00 35.49    -0.212 N 
ATOM      6  CZ  ARG D 557     -28.680  -2.091 -17.035  1.00 35.49     0.666 C 
ATOM      7  NH1 ARG D 557     -27.579  -2.255 -16.326  1.00 35.49    -0.235 N 
ATOM      8  NH2 ARG D 557     -29.199  -3.099 -17.675  1.00 35.49    -0.235 N 
ATOM      9  HH  ARG D 557     -27.222  -1.606 -15.895  1.00 35.49     0.174 HD
ATOM     10  HH  ARG D 557     -27.222  -3.034 -16.302  1.00 35.49     0.174 HD
ATOM     11  HH  ARG D 557     -29.914  -2.965 -18.120  1.00 35.49     0.174 HD
ATOM     12  HH  ARG D 557     -28.831  -3.862 -17.638  1.00 35.49     0.174 HD
ATOM     13  HE  ARG D 557     -29.956  -0.903 -17.661  1.00 35.49     0.178 HD
ENDBRANCH   4   5
ENDBRANCH   3   4
ENDBRANCH   2   3
ENDBRANCH   1   2
END_RES ARG D 557
BEGIN_RES GLU D 570
REMARK  3 active torsions:
REMARK  status: ('A' for Active; 'I' for Inactive)
REMARK    5  A    between atoms: CA   and  CB  
REMARK    6  A    between atoms: CB   and  CG  
REMARK    7  A    between atoms: CG   and  CD  
ROOT
ATOM     14  CA  GLU D 570     -18.033  -6.348 -13.375  1.00 32.92     0.160 C 
ENDROOT
BRANCH  14  15
ATOM     15  CB  GLU D 570     -19.500  -6.345 -13.794  1.00 32.92     0.043 C 
BRANCH  15  16
ATOM     16  CG  GLU D 570     -20.086  -7.634 -14.245  1.00 32.92     0.100 C 
BRANCH  16  17
ATOM     17  CD  GLU D 570     -20.483  -7.622 -15.703  1.00 32.92     0.185 C 
ATOM     18  OE1 GLU D 570     -20.843  -8.687 -16.241  1.00 32.92    -0.647 OA
ATOM     19  OE2 GLU D 570     -20.418  -6.540 -16.318  1.00 32.92    -0.647 OA
ENDBRANCH  16  17
ENDBRANCH  15  16
ENDBRANCH  14  15
END_RES GLU D 570
ENDMDL
MODEL 5
REMARK VINA RESULT:      -7.5      0.911      1.710
REMARK  13 active torsions:
REMARK  status: ('A' for Active; 'I' for Inactive)
REMARK    1  A    between atoms: C_2  and  C_3 
REMARK    2  A    between atoms: C_3  and  C_4 
REMARK    3  A    between atoms: C_4  and  C_5 
REMARK    4  A    between atoms: C_5  and  C_6 
REMARK    5  A    between atoms: C_6  and  C_7 
REMARK    6  A    between atoms: C_7  and  C_8 
REMARK    7  A    between atoms: C_8  and  C_9 
REMARK    8  A    between atoms: C_9  and  C_10 
REMARK    9  A    between atoms: C_10  and  C_11 
REMARK   10  A    between atoms: C_11  and  C_12 
REMARK   11  A    between atoms: C_12  and  C_13 
REMARK   12  A    between atoms: C_14  and  O_31 
REMARK   13  A    between atoms: C_15  and  N_20 
ROOT
HETATM    1  C   UNL     1     -19.907  -8.634  -3.539  1.00  0.00    -0.022 A 
HETATM    2  C   UNL     1     -20.020  -7.919  -4.746  1.00  0.00     0.102 A 
HETATM    3  C   UNL     1     -20.881  -6.816  -4.840  1.00  0.00     0.109 A 
HETATM    4  C   UNL     1     -21.601  -6.412  -3.694  1.00  0.00     0.043 A 
HETATM    5  C   UNL     1     -21.471  -7.100  -2.480  1.00  0.00    -0.059 A 
HETATM    6  C   UNL     1     -20.624  -8.207  -2.415  1.00  0.00     0.017 A 
HETATM    7  C   UNL     1     -22.225  -6.692  -1.251  1.00  0.00     0.048 C 
ENDROOT
BRANCH   1   8
HETATM    8  C   UNL     1     -19.072  -9.877  -3.409  1.00  0.00     0.041 C 
BRANCH   8   9
HETATM    9  C   UNL     1     -19.610 -10.812  -2.324  1.00  0.00     0.005 C 
BRANCH   9  10
HETATM   10  C   UNL     1     -19.657 -12.263  -2.800  1.00  0.00     0.000 C 
BRANCH  10  11
HETATM   11  C   UNL     1     -20.734 -12.476  -3.858  1.00  0.00     0.000 C 
BRANCH  11  12
HETATM   12  C   UNL     1     -22.064 -11.885  -3.425  1.00  0.00     0.000 C 
BRANCH  12  13
HETATM   13  C   UNL     1     -22.837 -12.913  -2.609  1.00  0.00     0.000 C 
BRANCH  13  14
HETATM   14  C   UNL     1     -23.425 -12.269  -1.366  1.00  0.00     0.000 C 
BRANCH  14  15
HETATM   15  C   UNL     1     -23.298 -10.754  -1.440  1.00  0.00     0.000 C 
BRANCH  15  16
HETATM   16  C   UNL     1     -22.806 -10.200  -0.110  1.00  0.00     0.000 C 
BRANCH  16  17
HETATM   17  C   UNL     1     -21.758 -11.121   0.501  1.00  0.00    -0.000 C 
BRANCH  17  18
HETATM   18  C   UNL     1     -20.626 -10.314   1.124  1.00  0.00    -0.005 C 
HETATM   19  C   UNL     1     -21.044  -8.872   1.342  1.00  0.00     0.005 C 
ENDBRANCH  17  18
ENDBRANCH  16  17
ENDBRANCH  15  16
ENDBRANCH  14  15
ENDBRANCH  13  14
ENDBRANCH  12  13
ENDBRANCH  11  12
ENDBRANCH  10  11
ENDBRANCH   9  10
ENDBRANCH   8   9
ENDBRANCH   1   8
BRANCH   2  20
HETATM   20  O   UNL     1     -19.292  -8.325  -5.831  1.00  0.00    -0.358 OA
HETATM   21  H   UNL     1     -18.739  -9.089  -5.614  1.00  0.00     0.217 HD
ENDBRANCH   2  20
BRANCH   3  22
HETATM   22  N   UNL     1     -21.061  -6.089  -6.058  1.00  0.00    -0.193 N 
HETATM   23  N   UNL     1     -22.213  -5.452  -6.375  1.00  0.00    -0.277 N 
HETATM   24  C   UNL     1     -21.960  -4.899  -7.562  1.00  0.00     0.078 A 
ATOM     25  HN  UNL     1     -23.075  -5.405  -5.831  1.00  0.00     0.189 HD
HETATM   26  C   UNL     1     -22.802  -4.113  -8.365  1.00  0.00     0.033 A 
HETATM   27  C   UNL     1     -20.598  -5.245  -7.947  1.00  0.00     0.078 A 
HETATM   28  C   UNL     1     -22.223  -3.690  -9.574  1.00  0.00     0.002 A 
HETATM   29  C   UNL     1     -20.895  -4.025  -9.957  1.00  0.00     0.002 A 
HETATM   30  C   UNL     1     -20.036  -4.810  -9.161  1.00  0.00     0.033 A 
HETATM   31  N   UNL     1     -20.059  -5.998  -6.979  1.00  0.00    -0.277 N 
ATOM     32  HN  UNL     1     -19.124  -6.405  -6.940  1.00  0.00     0.189 HD
ENDBRANCH   3  22
TORSDOF 13
BEGIN_RES ARG D 557
REMARK  4 active torsions:
REMARK  status: ('A' for Active; 'I' for Inactive)
REMARK    1  A    between atoms: CA   and  CB  
REMARK    2  A    between atoms: CB   and  CG  
REMARK    3  A    between atoms: CG   and  CD  
REMARK    4  A    between atoms: CD   and  NE  
REMARK       I    between atoms: NE   and  CZ  
REMARK       I    between atoms: CZ   and  NH1 
REMARK       I    between atoms: CZ   and  NH2 
ROOT
ATOM      1  CA  ARG D 557     -26.217   2.705 -17.014  1.00 35.49     0.159 C 
ENDROOT
BRANCH   1   2
ATOM      2  CB  ARG D 557     -26.789   1.319 -17.183  1.00 35.49     0.034 C 
BRANCH   2   3
ATOM      3  CG  ARG D 557     -25.865   0.195 -16.990  1.00 35.49     0.027 C 
BRANCH   3   4
ATOM      4  CD  ARG D 557     -26.274  -0.688 -15.874  1.00 35.49     0.116 C 
BRANCH   4   5
ATOM      5  NE  ARG D 557     -25.208  -0.899 -14.930  1.00 35.49    -0.212 N 
ATOM      6  CZ  ARG D 557     -24.900  -2.043 -14.363  1.00 35.49     0.666 C 
ATOM      7  NH1 ARG D 557     -25.572  -3.155 -14.599  1.00 35.49    -0.235 N 
ATOM      8  NH2 ARG D 557     -23.887  -2.055 -13.547  1.00 35.49    -0.235 N 
ATOM      9  HH  ARG D 557     -26.241  -3.171 -15.134  1.00 35.49     0.174 HD
ATOM     10  HH  ARG D 557     -25.323  -3.873 -14.202  1.00 35.49     0.174 HD
ATOM     11  HH  ARG D 557     -23.467  -1.324 -13.419  1.00 35.49     0.174 HD
ATOM     12  HH  ARG D 557     -23.656  -2.776 -13.164  1.00 35.49     0.174 HD
ATOM     13  HE  ARG D 557     -24.770  -0.220 -14.665  1.00 35.49     0.178 HD
ENDBRANCH   4   5
ENDBRANCH   3   4
ENDBRANCH   2   3
ENDBRANCH   1   2
END_RES ARG D 557
BEGIN_RES GLU D 570
REMARK  3 active torsions:
REMARK  status: ('A' for Active; 'I' for Inactive)
REMARK    5  A    between atoms: CA   and  CB  
REMARK    6  A    between atoms: CB   and  CG  
REMARK    7  A    between atoms: CG   and  CD  
ROOT
ATOM     14  CA  GLU D 570     -18.033  -6.348 -13.375  1.00 32.92     0.160 C 
ENDROOT
BRANCH  14  15
ATOM     15  CB  GLU D 570     -19.500  -6.345 -13.794  1.00 32.92     0.043 C 
BRANCH  15  16
ATOM     16  CG  GLU D 570     -20.445  -5.547 -12.971  1.00 32.92     0.100 C 
BRANCH  16  17
ATOM     17  CD  GLU D 570     -21.686  -5.137 -13.729  1.00 32.92     0.185 C 
ATOM     18  OE1 GLU D 570     -21.643  -5.078 -14.973  1.00 32.92    -0.647 OA
ATOM     19  OE2 GLU D 570     -22.707  -4.856 -13.072  1.00 32.92    -0.647 OA
ENDBRANCH  16  17
ENDBRANCH  15  16
ENDBRANCH  14  15
END_RES GLU D 570
ENDMDL
MODEL 6
REMARK VINA RESULT:      -7.4      0.694      2.233
REMARK  13 active torsions:
REMARK  status: ('A' for Active; 'I' for Inactive)
REMARK    1  A    between atoms: C_2  and  C_3 
REMARK    2  A    between atoms: C_3  and  C_4 
REMARK    3  A    between atoms: C_4  and  C_5 
REMARK    4  A    between atoms: C_5  and  C_6 
REMARK    5  A    between atoms: C_6  and  C_7 
REMARK    6  A    between atoms: C_7  and  C_8 
REMARK    7  A    between atoms: C_8  and  C_9 
REMARK    8  A    between atoms: C_9  and  C_10 
REMARK    9  A    between atoms: C_10  and  C_11 
REMARK   10  A    between atoms: C_11  and  C_12 
REMARK   11  A    between atoms: C_12  and  C_13 
REMARK   12  A    between atoms: C_14  and  O_31 
REMARK   13  A    between atoms: C_15  and  N_20 
ROOT
HETATM    1  C   UNL     1     -20.074  -8.679  -3.547  1.00  0.00    -0.022 A 
HETATM    2  C   UNL     1     -20.162  -7.973  -4.761  1.00  0.00     0.102 A 
HETATM    3  C   UNL     1     -20.924  -6.799  -4.847  1.00  0.00     0.109 A 
HETATM    4  C   UNL     1     -21.568  -6.318  -3.686  1.00  0.00     0.043 A 
HETATM    5  C   UNL     1     -21.461  -6.999  -2.465  1.00  0.00    -0.059 A 
HETATM    6  C   UNL     1     -20.714  -8.175  -2.409  1.00  0.00     0.017 A 
HETATM    7  C   UNL     1     -22.136  -6.509  -1.221  1.00  0.00     0.048 C 
ENDROOT
BRANCH   1   8
HETATM    8  C   UNL     1     -19.349  -9.990  -3.424  1.00  0.00     0.041 C 
BRANCH   8   9
HETATM    9  C   UNL     1     -18.887 -10.251  -1.989  1.00  0.00     0.005 C 
BRANCH   9  10
HETATM   10  C   UNL     1     -19.530 -11.508  -1.407  1.00  0.00     0.000 C 
BRANCH  10  11
HETATM   11  C   UNL     1     -19.571 -11.468   0.116  1.00  0.00     0.000 C 
BRANCH  11  12
HETATM   12  C   UNL     1     -20.998 -11.441   0.634  1.00  0.00     0.000 C 
BRANCH  12  13
HETATM   13  C   UNL     1     -21.518 -10.010   0.622  1.00  0.00     0.000 C 
BRANCH  13  14
HETATM   14  C   UNL     1     -22.841  -9.934  -0.120  1.00  0.00     0.000 C 
BRANCH  14  15
HETATM   15  C   UNL     1     -23.547 -11.282  -0.089  1.00  0.00     0.000 C 
BRANCH  15  16
HETATM   16  C   UNL     1     -23.822 -11.766  -1.507  1.00  0.00     0.000 C 
BRANCH  16  17
HETATM   17  C   UNL     1     -23.020 -10.954  -2.516  1.00  0.00    -0.000 C 
BRANCH  17  18
HETATM   18  C   UNL     1     -22.616 -11.818  -3.705  1.00  0.00    -0.005 C 
HETATM   19  C   UNL     1     -22.175 -13.197  -3.249  1.00  0.00     0.005 C 
ENDBRANCH  17  18
ENDBRANCH  16  17
ENDBRANCH  15  16
ENDBRANCH  14  15
ENDBRANCH  13  14
ENDBRANCH  12  13
ENDBRANCH  11  12
ENDBRANCH  10  11
ENDBRANCH   9  10
ENDBRANCH   8   9
ENDBRANCH   1   8
BRANCH   2  20
HETATM   20  O   UNL     1     -19.507  -8.456  -5.862  1.00  0.00    -0.358 OA
HETATM   21  H   UNL     1     -19.973  -9.217  -6.238  1.00  0.00     0.217 HD
ENDBRANCH   2  20
BRANCH   3  22
HETATM   22  N   UNL     1     -21.077  -6.075  -6.070  1.00  0.00    -0.193 N 
HETATM   23  N   UNL     1     -22.222  -5.438  -6.413  1.00  0.00    -0.277 N 
HETATM   24  C   UNL     1     -21.944  -4.888  -7.595  1.00  0.00     0.078 A 
ATOM     25  HN  UNL     1     -23.096  -5.390  -5.888  1.00  0.00     0.189 HD
HETATM   26  C   UNL     1     -22.768  -4.103  -8.417  1.00  0.00     0.033 A 
HETATM   27  C   UNL     1     -20.574  -5.234  -7.950  1.00  0.00     0.078 A 
HETATM   28  C   UNL     1     -22.164  -3.683  -9.615  1.00  0.00     0.002 A 
HETATM   29  C   UNL     1     -20.827  -4.019  -9.968  1.00  0.00     0.002 A 
HETATM   30  C   UNL     1     -19.986  -4.802  -9.152  1.00  0.00     0.033 A 
HETATM   31  N   UNL     1     -20.056  -5.985  -6.969  1.00  0.00    -0.277 N 
ATOM     32  HN  UNL     1     -19.122  -6.392  -6.909  1.00  0.00     0.189 HD
ENDBRANCH   3  22
TORSDOF 13
BEGIN_RES ARG D 557
REMARK  4 active torsions:
REMARK  status: ('A' for Active; 'I' for Inactive)
REMARK    1  A    between atoms: CA   and  CB  
REMARK    2  A    between atoms: CB   and  CG  
REMARK    3  A    between atoms: CG   and  CD  
REMARK    4  A    between atoms: CD   and  NE  
REMARK       I    between atoms: NE   and  CZ  
REMARK       I    between atoms: CZ   and  NH1 
REMARK       I    between atoms: CZ   and  NH2 
ROOT
ATOM      1  CA  ARG D 557     -26.217   2.705 -17.014  1.00 35.49     0.159 C 
ENDROOT
BRANCH   1   2
ATOM      2  CB  ARG D 557     -26.789   1.319 -17.183  1.00 35.49     0.034 C 
BRANCH   2   3
ATOM      3  CG  ARG D 557     -25.843   0.199 -17.099  1.00 35.49     0.027 C 
BRANCH   3   4
ATOM      4  CD  ARG D 557     -25.382  -0.047 -15.714  1.00 35.49     0.116 C 
BRANCH   4   5
ATOM      5  NE  ARG D 557     -25.666  -1.388 -15.277  1.00 35.49    -0.212 N 
ATOM      6  CZ  ARG D 557     -24.953  -2.085 -14.421  1.00 35.49     0.666 C 
ATOM      7  NH1 ARG D 557     -23.854  -1.612 -13.863  1.00 35.49    -0.235 N 
ATOM      8  NH2 ARG D 557     -25.372  -3.281 -14.124  1.00 35.49    -0.235 N 
ATOM      9  HH  ARG D 557     -23.561  -0.827 -14.043  1.00 35.49     0.174 HD
ATOM     10  HH  ARG D 557     -23.431  -2.111 -13.309  1.00 35.49     0.174 HD
ATOM     11  HH  ARG D 557     -26.089  -3.557 -14.493  1.00 35.49     0.174 HD
ATOM     12  HH  ARG D 557     -24.941  -3.759 -13.572  1.00 35.49     0.174 HD
ATOM     13  HE  ARG D 557     -26.317  -1.797 -15.642  1.00 35.49     0.178 HD
ENDBRANCH   4   5
ENDBRANCH   3   4
ENDBRANCH   2   3
ENDBRANCH   1   2
END_RES ARG D 557
BEGIN_RES GLU D 570
REMARK  3 active torsions:
REMARK  status: ('A' for Active; 'I' for Inactive)
REMARK    5  A    between atoms: CA   and  CB  
REMARK    6  A    between atoms: CB   and  CG  
REMARK    7  A    between atoms: CG   and  CD  
ROOT
ATOM     14  CA  GLU D 570     -18.033  -6.348 -13.375  1.00 32.92     0.160 C 
ENDROOT
BRANCH  14  15
ATOM     15  CB  GLU D 570     -19.500  -6.345 -13.794  1.00 32.92     0.043 C 
BRANCH  15  16
ATOM     16  CG  GLU D 570     -20.444  -5.539 -12.977  1.00 32.92     0.100 C 
BRANCH  16  17
ATOM     17  CD  GLU D 570     -21.737  -5.236 -13.697  1.00 32.92     0.185 C 
ATOM     18  OE1 GLU D 570     -22.122  -6.005 -14.598  1.00 32.92    -0.647 OA
ATOM     19  OE2 GLU D 570     -22.362  -4.208 -13.369  1.00 32.92    -0.647 OA
ENDBRANCH  16  17
ENDBRANCH  15  16
ENDBRANCH  14  15
END_RES GLU D 570
ENDMDL
MODEL 7
REMARK VINA RESULT:      -7.4      1.492      3.194
REMARK  13 active torsions:
REMARK  status: ('A' for Active; 'I' for Inactive)
REMARK    1  A    between atoms: C_2  and  C_3 
REMARK    2  A    between atoms: C_3  and  C_4 
REMARK    3  A    between atoms: C_4  and  C_5 
REMARK    4  A    between atoms: C_5  and  C_6 
REMARK    5  A    between atoms: C_6  and  C_7 
REMARK    6  A    between atoms: C_7  and  C_8 
REMARK    7  A    between atoms: C_8  and  C_9 
REMARK    8  A    between atoms: C_9  and  C_10 
REMARK    9  A    between atoms: C_10  and  C_11 
REMARK   10  A    between atoms: C_11  and  C_12 
REMARK   11  A    between atoms: C_12  and  C_13 
REMARK   12  A    between atoms: C_14  and  O_31 
REMARK   13  A    between atoms: C_15  and  N_20 
ROOT
HETATM    1  C   UNL     1     -21.361  -7.722  -1.717  1.00  0.00    -0.022 A 
HETATM    2  C   UNL     1     -21.591  -6.967  -2.882  1.00  0.00     0.102 A 
HETATM    3  C   UNL     1     -20.844  -7.209  -4.044  1.00  0.00     0.109 A 
HETATM    4  C   UNL     1     -19.886  -8.247  -4.036  1.00  0.00     0.043 A 
HETATM    5  C   UNL     1     -19.673  -9.024  -2.890  1.00  0.00    -0.059 A 
HETATM    6  C   UNL     1     -20.414  -8.753  -1.739  1.00  0.00     0.017 A 
HETATM    7  C   UNL     1     -18.662 -10.129  -2.856  1.00  0.00     0.048 C 
ENDROOT
BRANCH   1   8
HETATM    8  C   UNL     1     -22.067  -7.444  -0.419  1.00  0.00     0.041 C 
BRANCH   8   9
HETATM    9  C   UNL     1     -22.256  -8.716   0.409  1.00  0.00     0.005 C 
BRANCH   9  10
HETATM   10  C   UNL     1     -23.614  -9.363   0.151  1.00  0.00     0.000 C 
BRANCH  10  11
HETATM   11  C   UNL     1     -23.487 -10.860  -0.109  1.00  0.00     0.000 C 
BRANCH  11  12
HETATM   12  C   UNL     1     -23.314 -11.155  -1.589  1.00  0.00     0.000 C 
BRANCH  12  13
HETATM   13  C   UNL     1     -22.056 -11.986  -1.800  1.00  0.00     0.000 C 
BRANCH  13  14
HETATM   14  C   UNL     1     -21.883 -12.320  -3.271  1.00  0.00     0.000 C 
BRANCH  14  15
HETATM   15  C   UNL     1     -22.308 -11.143  -4.138  1.00  0.00     0.000 C 
BRANCH  15  16
HETATM   16  C   UNL     1     -21.597 -11.196  -5.484  1.00  0.00     0.000 C 
BRANCH  16  17
HETATM   17  C   UNL     1     -20.399 -12.136  -5.422  1.00  0.00    -0.000 C 
BRANCH  17  18
HETATM   18  C   UNL     1     -19.243 -11.593  -6.253  1.00  0.00    -0.005 C 
HETATM   19  C   UNL     1     -17.938 -12.267  -5.872  1.00  0.00     0.005 C 
ENDBRANCH  17  18
ENDBRANCH  16  17
ENDBRANCH  15  16
ENDBRANCH  14  15
ENDBRANCH  13  14
ENDBRANCH  12  13
ENDBRANCH  11  12
ENDBRANCH  10  11
ENDBRANCH   9  10
ENDBRANCH   8   9
ENDBRANCH   1   8
BRANCH   2  20
HETATM   20  O   UNL     1     -22.541  -5.982  -2.862  1.00  0.00    -0.358 OA
HETATM   21  H   UNL     1     -23.204  -6.152  -2.177  1.00  0.00     0.217 HD
ENDBRANCH   2  20
BRANCH   3  22
HETATM   22  N   UNL     1     -21.012  -6.435  -5.235  1.00  0.00    -0.193 N 
HETATM   23  N   UNL     1     -20.039  -6.292  -6.166  1.00  0.00    -0.277 N 
HETATM   24  C   UNL     1     -20.599  -5.525  -7.102  1.00  0.00     0.078 A 
ATOM     25  HN  UNL     1     -19.096  -6.680  -6.154  1.00  0.00     0.189 HD
HETATM   26  C   UNL     1     -20.047  -5.059  -8.306  1.00  0.00     0.033 A 
HETATM   27  C   UNL     1     -21.957  -5.208  -6.682  1.00  0.00     0.078 A 
HETATM   28  C   UNL     1     -20.911  -4.257  -9.071  1.00  0.00     0.002 A 
HETATM   29  C   UNL     1     -22.238  -3.942  -8.665  1.00  0.00     0.002 A 
HETATM   30  C   UNL     1     -22.808  -4.404  -7.462  1.00  0.00     0.033 A 
HETATM   31  N   UNL     1     -22.187  -5.794  -5.500  1.00  0.00    -0.277 N 
ATOM     32  HN  UNL     1     -23.035  -5.768  -4.933  1.00  0.00     0.189 HD
ENDBRANCH   3  22
TORSDOF 13
BEGIN_RES ARG D 557
REMARK  4 active torsions:
REMARK  status: ('A' for Active; 'I' for Inactive)
REMARK    1  A    between atoms: CA   and  CB  
REMARK    2  A    between atoms: CB   and  CG  
REMARK    3  A    between atoms: CG   and  CD  
REMARK    4  A    between atoms: CD   and  NE  
REMARK       I    between atoms: NE   and  CZ  
REMARK       I    between atoms: CZ   and  NH1 
REMARK       I    between atoms: CZ   and  NH2 
ROOT
ATOM      1  CA  ARG D 557     -26.217   2.705 -17.014  1.00 35.49     0.159 C 
ENDROOT
BRANCH   1   2
ATOM      2  CB  ARG D 557     -26.789   1.319 -17.183  1.00 35.49     0.034 C 
BRANCH   2   3
ATOM      3  CG  ARG D 557     -25.861   0.195 -17.007  1.00 35.49     0.027 C 
BRANCH   3   4
ATOM      4  CD  ARG D 557     -26.224  -0.662 -15.855  1.00 35.49     0.116 C 
BRANCH   4   5
ATOM      5  NE  ARG D 557     -25.137  -0.807 -14.923  1.00 35.49    -0.212 N 
ATOM      6  CZ  ARG D 557     -24.739  -1.934 -14.377  1.00 35.49     0.666 C 
ATOM      7  NH1 ARG D 557     -25.327  -3.089 -14.626  1.00 35.49    -0.235 N 
ATOM      8  NH2 ARG D 557     -23.721  -1.882 -13.568  1.00 35.49    -0.235 N 
ATOM      9  HH  ARG D 557     -25.998  -3.147 -15.156  1.00 35.49     0.174 HD
ATOM     10  HH  ARG D 557     -25.023  -3.792 -14.242  1.00 35.49     0.174 HD
ATOM     11  HH  ARG D 557     -23.356  -1.123 -13.432  1.00 35.49     0.174 HD
ATOM     12  HH  ARG D 557     -23.433  -2.589 -13.200  1.00 35.49     0.174 HD
ATOM     13  HE  ARG D 557     -24.748  -0.101 -14.651  1.00 35.49     0.178 HD
ENDBRANCH   4   5
ENDBRANCH   3   4
ENDBRANCH   2   3
ENDBRANCH   1   2
END_RES ARG D 557
BEGIN_RES GLU D 570
REMARK  3 active torsions:
REMARK  status: ('A' for Active; 'I' for Inactive)
REMARK    5  A    between atoms: CA   and  CB  
REMARK    6  A    between atoms: CB   and  CG  
REMARK    7  A    between atoms: CG   and  CD  
ROOT
ATOM     14  CA  GLU D 570     -18.033  -6.348 -13.375  1.00 32.92     0.160 C 
ENDROOT
BRANCH  14  15
ATOM     15  CB  GLU D 570     -19.500  -6.345 -13.794  1.00 32.92     0.043 C 
BRANCH  15  16
ATOM     16  CG  GLU D 570     -20.440  -5.522 -12.990  1.00 32.92     0.100 C 
BRANCH  16  17
ATOM     17  CD  GLU D 570     -21.647  -5.067 -13.777  1.00 32.92     0.185 C 
ATOM     18  OE1 GLU D 570     -21.633  -5.169 -15.019  1.00 32.92    -0.647 OA
ATOM     19  OE2 GLU D 570     -22.610  -4.588 -13.146  1.00 32.92    -0.647 OA
ENDBRANCH  16  17
ENDBRANCH  15  16
ENDBRANCH  14  15
END_RES GLU D 570
ENDMDL
MODEL 8
REMARK VINA RESULT:      -7.2      2.338      4.003
REMARK  13 active torsions:
REMARK  status: ('A' for Active; 'I' for Inactive)
REMARK    1  A    between atoms: C_2  and  C_3 
REMARK    2  A    between atoms: C_3  and  C_4 
REMARK    3  A    between atoms: C_4  and  C_5 
REMARK    4  A    between atoms: C_5  and  C_6 
REMARK    5  A    between atoms: C_6  and  C_7 
REMARK    6  A    between atoms: C_7  and  C_8 
REMARK    7  A    between atoms: C_8  and  C_9 
REMARK    8  A    between atoms: C_9  and  C_10 
REMARK    9  A    between atoms: C_10  and  C_11 
REMARK   10  A    between atoms: C_11  and  C_12 
REMARK   11  A    between atoms: C_12  and  C_13 
REMARK   12  A    between atoms: C_14  and  O_31 
REMARK   13  A    between atoms: C_15  and  N_20 
ROOT
HETATM    1  C   UNL     1     -21.359  -7.766  -1.629  1.00  0.00    -0.022 A 
HETATM    2  C   UNL     1     -21.598  -7.008  -2.790  1.00  0.00     0.102 A 
HETATM    3  C   UNL     1     -20.865  -7.250  -3.961  1.00  0.00     0.109 A 
HETATM    4  C   UNL     1     -19.911  -8.291  -3.965  1.00  0.00     0.043 A 
HETATM    5  C   UNL     1     -19.688  -9.071  -2.822  1.00  0.00    -0.059 A 
HETATM    6  C   UNL     1     -20.416  -8.800  -1.663  1.00  0.00     0.017 A 
HETATM    7  C   UNL     1     -18.682 -10.181  -2.801  1.00  0.00     0.048 C 
ENDROOT
BRANCH   1   8
HETATM    8  C   UNL     1     -22.050  -7.487  -0.323  1.00  0.00     0.041 C 
BRANCH   8   9
HETATM    9  C   UNL     1     -22.309  -8.771   0.468  1.00  0.00     0.005 C 
BRANCH   9  10
HETATM   10  C   UNL     1     -23.677  -9.368   0.146  1.00  0.00     0.000 C 
BRANCH  10  11
HETATM   11  C   UNL     1     -23.596 -10.871  -0.092  1.00  0.00     0.000 C 
BRANCH  11  12
HETATM   12  C   UNL     1     -23.362 -11.190  -1.558  1.00  0.00     0.000 C 
BRANCH  12  13
HETATM   13  C   UNL     1     -22.132 -12.078  -1.697  1.00  0.00     0.000 C 
BRANCH  13  14
HETATM   14  C   UNL     1     -21.784 -12.275  -3.161  1.00  0.00     0.000 C 
BRANCH  14  15
HETATM   15  C   UNL     1     -22.366 -11.148  -4.004  1.00  0.00     0.000 C 
BRANCH  15  16
HETATM   16  C   UNL     1     -21.723 -11.136  -5.384  1.00  0.00     0.000 C 
BRANCH  16  17
HETATM   17  C   UNL     1     -20.479 -12.015  -5.405  1.00  0.00    -0.000 C 
BRANCH  17  18
HETATM   18  C   UNL     1     -19.967 -12.193  -6.830  1.00  0.00    -0.005 C 
HETATM   19  C   UNL     1     -20.843 -13.161  -7.604  1.00  0.00     0.005 C 
ENDBRANCH  17  18
ENDBRANCH  16  17
ENDBRANCH  15  16
ENDBRANCH  14  15
ENDBRANCH  13  14
ENDBRANCH  12  13
ENDBRANCH  11  12
ENDBRANCH  10  11
ENDBRANCH   9  10
ENDBRANCH   8   9
ENDBRANCH   1   8
BRANCH   2  20
HETATM   20  O   UNL     1     -22.545  -6.019  -2.758  1.00  0.00    -0.358 OA
HETATM   21  H   UNL     1     -23.028  -6.028  -1.919  1.00  0.00     0.217 HD
ENDBRANCH   2  20
BRANCH   3  22
HETATM   22  N   UNL     1     -21.043  -6.474  -5.148  1.00  0.00    -0.193 N 
HETATM   23  N   UNL     1     -22.192  -5.818  -5.437  1.00  0.00    -0.277 N 
HETATM   24  C   UNL     1     -21.938  -5.219  -6.601  1.00  0.00     0.078 A 
ATOM     25  HN  UNL     1     -23.053  -5.789  -4.890  1.00  0.00     0.189 HD
HETATM   26  C   UNL     1     -22.776  -4.396  -7.370  1.00  0.00     0.033 A 
HETATM   27  C   UNL     1     -20.578  -5.556  -7.002  1.00  0.00     0.078 A 
HETATM   28  C   UNL     1     -22.197  -3.928  -8.562  1.00  0.00     0.002 A 
HETATM   29  C   UNL     1     -20.871  -4.255  -8.960  1.00  0.00     0.002 A 
HETATM   30  C   UNL     1     -20.016  -5.075  -8.198  1.00  0.00     0.033 A 
HETATM   31  N   UNL     1     -20.041  -6.350  -6.067  1.00  0.00    -0.277 N 
ATOM     32  HN  UNL     1     -19.109  -6.764  -6.046  1.00  0.00     0.189 HD
ENDBRANCH   3  22
TORSDOF 13
BEGIN_RES ARG D 557
REMARK  4 active torsions:
REMARK  status: ('A' for Active; 'I' for Inactive)
REMARK    1  A    between atoms: CA   and  CB  
REMARK    2  A    between atoms: CB   and  CG  
REMARK    3  A    between atoms: CG   and  CD  
REMARK    4  A    between atoms: CD   and  NE  
REMARK       I    between atoms: NE   and  CZ  
REMARK       I    between atoms: CZ   and  NH1 
REMARK       I    between atoms: CZ   and  NH2 
ROOT
ATOM      1  CA  ARG D 557     -26.217   2.705 -17.014  1.00 35.49     0.159 C 
ENDROOT
BRANCH   1   2
ATOM      2  CB  ARG D 557     -26.789   1.319 -17.183  1.00 35.49     0.034 C 
BRANCH   2   3
ATOM      3  CG  ARG D 557     -28.231   1.227 -17.444  1.00 35.49     0.027 C 
BRANCH   3   4
ATOM      4  CD  ARG D 557     -28.916   0.307 -16.508  1.00 35.49     0.116 C 
BRANCH   4   5
ATOM      5  NE  ARG D 557     -29.269  -0.940 -17.133  1.00 35.49    -0.212 N 
ATOM      6  CZ  ARG D 557     -28.611  -2.072 -17.015  1.00 35.49     0.666 C 
ATOM      7  NH1 ARG D 557     -27.509  -2.180 -16.295  1.00 35.49    -0.235 N 
ATOM      8  NH2 ARG D 557     -29.088  -3.111 -17.636  1.00 35.49    -0.235 N 
ATOM      9  HH  ARG D 557     -27.179  -1.509 -15.876  1.00 35.49     0.174 HD
ATOM     10  HH  ARG D 557     -27.124  -2.944 -16.252  1.00 35.49     0.174 HD
ATOM     11  HH  ARG D 557     -29.805  -3.013 -18.087  1.00 35.49     0.174 HD
ATOM     12  HH  ARG D 557     -28.693  -3.859 -17.580  1.00 35.49     0.174 HD
ATOM     13  HE  ARG D 557     -29.925  -0.944 -17.673  1.00 35.49     0.178 HD
ENDBRANCH   4   5
ENDBRANCH   3   4
ENDBRANCH   2   3
ENDBRANCH   1   2
END_RES ARG D 557
BEGIN_RES GLU D 570
REMARK  3 active torsions:
REMARK  status: ('A' for Active; 'I' for Inactive)
REMARK    5  A    between atoms: CA   and  CB  
REMARK    6  A    between atoms: CB   and  CG  
REMARK    7  A    between atoms: CG   and  CD  
ROOT
ATOM     14  CA  GLU D 570     -18.033  -6.348 -13.375  1.00 32.92     0.160 C 
ENDROOT
BRANCH  14  15
ATOM     15  CB  GLU D 570     -19.500  -6.345 -13.794  1.00 32.92     0.043 C 
BRANCH  15  16
ATOM     16  CG  GLU D 570     -19.798  -6.205 -15.243  1.00 32.92     0.100 C 
BRANCH  16  17
ATOM     17  CD  GLU D 570     -20.729  -7.277 -15.759  1.00 32.92     0.185 C 
ATOM     18  OE1 GLU D 570     -20.555  -8.457 -15.397  1.00 32.92    -0.647 OA
ATOM     19  OE2 GLU D 570     -21.633  -6.936 -16.548  1.00 32.92    -0.647 OA
ENDBRANCH  16  17
ENDBRANCH  15  16
ENDBRANCH  14  15
END_RES GLU D 570
ENDMDL
MODEL 9
REMARK VINA RESULT:      -7.2      3.136      8.129
REMARK  13 active torsions:
REMARK  status: ('A' for Active; 'I' for Inactive)
REMARK    1  A    between atoms: C_2  and  C_3 
REMARK    2  A    between atoms: C_3  and  C_4 
REMARK    3  A    between atoms: C_4  and  C_5 
REMARK    4  A    between atoms: C_5  and  C_6 
REMARK    5  A    between atoms: C_6  and  C_7 
REMARK    6  A    between atoms: C_7  and  C_8 
REMARK    7  A    between atoms: C_8  and  C_9 
REMARK    8  A    between atoms: C_9  and  C_10 
REMARK    9  A    between atoms: C_10  and  C_11 
REMARK   10  A    between atoms: C_11  and  C_12 
REMARK   11  A    between atoms: C_12  and  C_13 
REMARK   12  A    between atoms: C_14  and  O_31 
REMARK   13  A    between atoms: C_15  and  N_20 
ROOT
HETATM    1  C   UNL     1     -21.175  -6.779  -4.657  1.00  0.00    -0.022 A 
HETATM    2  C   UNL     1     -20.151  -7.743  -4.713  1.00  0.00     0.102 A 
HETATM    3  C   UNL     1     -19.763  -8.436  -3.557  1.00  0.00     0.109 A 
HETATM    4  C   UNL     1     -20.443  -8.177  -2.346  1.00  0.00     0.043 A 
HETATM    5  C   UNL     1     -21.484  -7.241  -2.288  1.00  0.00    -0.059 A 
HETATM    6  C   UNL     1     -21.840  -6.549  -3.446  1.00  0.00     0.017 A 
HETATM    7  C   UNL     1     -22.219  -6.948  -1.016  1.00  0.00     0.048 C 
ENDROOT
BRANCH   1   8
HETATM    8  C   UNL     1     -21.565  -5.942  -5.843  1.00  0.00     0.041 C 
BRANCH   8   9
HETATM    9  C   UNL     1     -20.686  -4.698  -5.974  1.00  0.00     0.005 C 
BRANCH   9  10
HETATM   10  C   UNL     1     -19.828  -4.741  -7.237  1.00  0.00     0.000 C 
BRANCH  10  11
HETATM   11  C   UNL     1     -20.673  -4.957  -8.487  1.00  0.00     0.000 C 
BRANCH  11  12
HETATM   12  C   UNL     1     -20.491  -3.825  -9.484  1.00  0.00     0.000 C 
BRANCH  12  13
HETATM   13  C   UNL     1     -20.082  -4.396 -10.835  1.00  0.00     0.000 C 
BRANCH  13  14
HETATM   14  C   UNL     1     -21.236  -4.307 -11.818  1.00  0.00     0.000 C 
BRANCH  14  15
HETATM   15  C   UNL     1     -21.892  -2.934 -11.748  1.00  0.00     0.000 C 
BRANCH  15  16
HETATM   16  C   UNL     1     -23.406  -3.077 -11.672  1.00  0.00     0.000 C 
BRANCH  16  17
HETATM   17  C   UNL     1     -23.795  -4.514 -11.353  1.00  0.00    -0.000 C 
BRANCH  17  18
HETATM   18  C   UNL     1     -24.293  -4.633  -9.917  1.00  0.00    -0.005 C 
HETATM   19  C   UNL     1     -24.687  -3.275  -9.366  1.00  0.00     0.005 C 
ENDBRANCH  17  18
ENDBRANCH  16  17
ENDBRANCH  15  16
ENDBRANCH  14  15
ENDBRANCH  13  14
ENDBRANCH  12  13
ENDBRANCH  11  12
ENDBRANCH  10  11
ENDBRANCH   9  10
ENDBRANCH   8   9
ENDBRANCH   1   8
BRANCH   2  20
HETATM   20  O   UNL     1     -19.527  -7.984  -5.907  1.00  0.00    -0.358 OA
HETATM   21  H   UNL     1     -19.368  -7.159  -6.389  1.00  0.00     0.217 HD
ENDBRANCH   2  20
BRANCH   3  22
HETATM   22  N   UNL     1     -18.698  -9.390  -3.559  1.00  0.00    -0.193 N 
HETATM   23  N   UNL     1     -18.633 -10.422  -4.433  1.00  0.00    -0.277 N 
HETATM   24  C   UNL     1     -17.500 -11.047  -4.109  1.00  0.00     0.078 A 
ATOM     25  HN  UNL     1     -19.296 -10.665  -5.169  1.00  0.00     0.189 HD
HETATM   26  C   UNL     1     -16.926 -12.188  -4.692  1.00  0.00     0.033 A 
HETATM   27  C   UNL     1     -16.892 -10.341  -2.989  1.00  0.00     0.078 A 
HETATM   28  C   UNL     1     -15.718 -12.597  -4.102  1.00  0.00     0.002 A 
HETATM   29  C   UNL     1     -15.120 -11.914  -3.007  1.00  0.00     0.002 A 
HETATM   30  C   UNL     1     -15.680 -10.766  -2.414  1.00  0.00     0.033 A 
HETATM   31  N   UNL     1     -17.672  -9.303  -2.664  1.00  0.00    -0.277 N 
ATOM     32  HN  UNL     1     -17.534  -8.614  -1.924  1.00  0.00     0.189 HD
ENDBRANCH   3  22
TORSDOF 13
BEGIN_RES ARG D 557
REMARK  4 active torsions:
REMARK  status: ('A' for Active; 'I' for Inactive)
REMARK    1  A    between atoms: CA   and  CB  
REMARK    2  A    between atoms: CB   and  CG  
REMARK    3  A    between atoms: CG   and  CD  
REMARK    4  A    between atoms: CD   and  NE  
REMARK       I    between atoms: NE   and  CZ  
REMARK       I    between atoms: CZ   and  NH1 
REMARK       I    between atoms: CZ   and  NH2 
ROOT
ATOM      1  CA  ARG D 557     -26.217   2.705 -17.014  1.00 35.49     0.159 C 
ENDROOT
BRANCH   1   2
ATOM      2  CB  ARG D 557     -26.789   1.319 -17.183  1.00 35.49     0.034 C 
BRANCH   2   3
ATOM      3  CG  ARG D 557     -28.234   1.226 -17.427  1.00 35.49     0.027 C 
BRANCH   3   4
ATOM      4  CD  ARG D 557     -28.907   0.305 -16.482  1.00 35.49     0.116 C 
BRANCH   4   5
ATOM      5  NE  ARG D 557     -29.337  -0.910 -17.122  1.00 35.49    -0.212 N 
ATOM      6  CZ  ARG D 557     -28.730  -2.073 -17.049  1.00 35.49     0.666 C 
ATOM      7  NH1 ARG D 557     -27.614  -2.249 -16.366  1.00 35.49    -0.235 N 
ATOM      8  NH2 ARG D 557     -29.274  -3.075 -17.677  1.00 35.49    -0.235 N 
ATOM      9  HH  ARG D 557     -27.240  -1.604 -15.943  1.00 35.49     0.174 HD
ATOM     10  HH  ARG D 557     -27.265  -3.031 -16.351  1.00 35.49     0.174 HD
ATOM     11  HH  ARG D 557     -29.999  -2.933 -18.104  1.00 35.49     0.174 HD
ATOM     12  HH  ARG D 557     -28.914  -3.842 -17.649  1.00 35.49     0.174 HD
ATOM     13  HE  ARG D 557     -30.009  -0.871 -17.643  1.00 35.49     0.178 HD
ENDBRANCH   4   5
ENDBRANCH   3   4
ENDBRANCH   2   3
ENDBRANCH   1   2
END_RES ARG D 557
BEGIN_RES GLU D 570
REMARK  3 active torsions:
REMARK  status: ('A' for Active; 'I' for Inactive)
REMARK    5  A    between atoms: CA   and  CB  
REMARK    6  A    between atoms: CB   and  CG  
REMARK    7  A    between atoms: CG   and  CD  
ROOT
ATOM     14  CA  GLU D 570     -18.033  -6.348 -13.375  1.00 32.92     0.160 C 
ENDROOT
BRANCH  14  15
ATOM     15  CB  GLU D 570     -19.500  -6.345 -13.794  1.00 32.92     0.043 C 
BRANCH  15  16
ATOM     16  CG  GLU D 570     -19.810  -5.970 -15.198  1.00 32.92     0.100 C 
BRANCH  16  17
ATOM     17  CD  GLU D 570     -21.272  -5.657 -15.415  1.00 32.92     0.185 C 
ATOM     18  OE1 GLU D 570     -21.583  -4.672 -16.112  1.00 32.92    -0.647 OA
ATOM     19  OE2 GLU D 570     -22.116  -6.395 -14.868  1.00 32.92    -0.647 OA
ENDBRANCH  16  17
ENDBRANCH  15  16
ENDBRANCH  14  15
END_RES GLU D 570
ENDMDL
