MODEL 1
REMARK VINA RESULT:      -7.4      0.000      0.000
REMARK  11 active torsions:
REMARK  status: ('A' for Active; 'I' for Inactive)
REMARK    1  A    between atoms: C_1  and  C_2 
REMARK    2  A    between atoms: C_1  and  O_17 
REMARK    3  A    between atoms: C_2  and  C_3 
REMARK    4  A    between atoms: C_2  and  O_16 
REMARK    5  A    between atoms: C_3  and  O_4 
REMARK    6  A    between atoms: O_4  and  C_5 
REMARK    7  A    between atoms: C_6  and  O_15 
REMARK    8  A    between atoms: C_7  and  C_11 
REMARK    9  A    between atoms: C_11  and  C_12 
REMARK   10  A    between atoms: C_11  and  O_14 
REMARK   11  A    between atoms: C_12  and  O_13 
ROOT
HETATM    1  C   UNL     1     -23.867  -3.724 -11.158  1.00  0.00     0.176 A 
HETATM    2  C   UNL     1     -22.743  -4.333 -10.772  1.00  0.00     0.115 A 
HETATM    3  C   UNL     1     -22.737  -4.646  -9.323  1.00  0.00     0.222 A 
HETATM    4  O   UNL     1     -24.023  -4.189  -8.888  1.00  0.00    -0.301 OA
HETATM    5  C   UNL     1     -24.691  -3.612  -9.930  1.00  0.00     0.320 A 
HETATM    6  O   UNL     1     -25.794  -3.106  -9.837  1.00  0.00    -0.257 OA
ENDROOT
BRANCH   1   7
HETATM    7  O   UNL     1     -24.168  -3.346 -12.445  1.00  0.00    -0.341 OA
BRANCH   7   8
HETATM    8  C   UNL     1     -23.349  -2.273 -12.944  1.00  0.00     0.209 C 
BRANCH   8   9
HETATM    9  C   UNL     1     -23.246  -2.328 -14.474  1.00  0.00     0.166 C 
BRANCH   9  10
HETATM   10  C   UNL     1     -23.734  -1.030 -15.133  1.00  0.00     0.198 C 
BRANCH  10  11
HETATM   11  O   UNL     1     -24.997  -0.619 -14.614  1.00  0.00    -0.398 OA
HETATM   12  H   UNL     1     -25.312   0.136 -15.142  1.00  0.00     0.209 HD
ENDBRANCH  10  11
ENDBRANCH   9  10
BRANCH   9  13
HETATM   13  O   UNL     1     -23.981  -3.452 -14.969  1.00  0.00    -0.391 OA
HETATM   14  H   UNL     1     -24.367  -3.907 -14.201  1.00  0.00     0.210 HD
ENDBRANCH   9  13
ENDBRANCH   8   9
ENDBRANCH   7   8
ENDBRANCH   1   7
BRANCH   2  15
HETATM   15  O   UNL     1     -21.692  -4.700 -11.568  1.00  0.00    -0.359 OA
HETATM   16  H   UNL     1     -20.889  -4.262 -11.228  1.00  0.00     0.217 HD
ENDBRANCH   2  15
BRANCH   3  17
HETATM   17  C   UNL     1     -21.627  -3.932  -8.524  1.00  0.00     0.177 C 
BRANCH  17  18
HETATM   18  C   UNL     1     -21.467  -4.548  -7.129  1.00  0.00     0.198 C 
BRANCH  18  19
HETATM   19  O   UNL     1     -22.753  -4.747  -6.544  1.00  0.00    -0.398 OA
HETATM   20  H   UNL     1     -23.196  -5.418  -7.103  1.00  0.00     0.209 HD
ENDBRANCH  18  19
ENDBRANCH  17  18
BRANCH  17  21
HETATM   21  O   UNL     1     -20.336  -4.004  -9.157  1.00  0.00    -0.390 OA
HETATM   22  H   UNL     1     -20.390  -4.625  -9.906  1.00  0.00     0.210 HD
ENDBRANCH  17  21
ENDBRANCH   3  17
TORSDOF 11
BEGIN_RES ARG D 557
REMARK  4 active torsions:
REMARK  status: ('A' for Active; 'I' for Inactive)
REMARK    1  A    between atoms: CA   and  CB  
REMARK    2  A    between atoms: CB   and  CG  
REMARK    3  A    between atoms: CG   and  CD  
REMARK    4  A    between atoms: CD   and  NE  
REMARK       I    between atoms: NE   and  CZ  
REMARK       I    between atoms: CZ   and  NH1 
REMARK       I    between atoms: CZ   and  NH2 
ROOT
ATOM      1  CA  ARG D 557     -26.217   2.705 -17.014  1.00 35.49     0.159 C 
ENDROOT
BRANCH   1   2
ATOM      2  CB  ARG D 557     -26.789   1.319 -17.183  1.00 35.49     0.034 C 
BRANCH   2   3
ATOM      3  CG  ARG D 557     -28.220   1.155 -16.897  1.00 35.49     0.027 C 
BRANCH   3   4
ATOM      4  CD  ARG D 557     -28.633  -0.267 -16.881  1.00 35.49     0.116 C 
BRANCH   4   5
ATOM      5  NE  ARG D 557     -27.693  -1.096 -16.173  1.00 35.49    -0.212 N 
ATOM      6  CZ  ARG D 557     -27.615  -2.406 -16.249  1.00 35.49     0.666 C 
ATOM      7  NH1 ARG D 557     -28.431  -3.122 -17.000  1.00 35.49    -0.235 N 
ATOM      8  NH2 ARG D 557     -26.686  -2.993 -15.553  1.00 35.49    -0.235 N 
ATOM      9  HH  ARG D 557     -29.049  -2.756 -17.468  1.00 35.49     0.174 HD
ATOM     10  HH  ARG D 557     -28.332  -3.973 -17.012  1.00 35.49     0.174 HD
ATOM     11  HH  ARG D 557     -26.169  -2.504 -15.083  1.00 35.49     0.174 HD
ATOM     12  HH  ARG D 557     -26.602  -3.837 -15.579  1.00 35.49     0.174 HD
ATOM     13  HE  ARG D 557     -27.176  -0.723 -15.610  1.00 35.49     0.178 HD
ENDBRANCH   4   5
ENDBRANCH   3   4
ENDBRANCH   2   3
ENDBRANCH   1   2
END_RES ARG D 557
BEGIN_RES GLU D 570
REMARK  3 active torsions:
REMARK  status: ('A' for Active; 'I' for Inactive)
REMARK    5  A    between atoms: CA   and  CB  
REMARK    6  A    between atoms: CB   and  CG  
REMARK    7  A    between atoms: CG   and  CD  
ROOT
ATOM     14  CA  GLU D 570     -18.033  -6.348 -13.375  1.00 32.92     0.160 C 
ENDROOT
BRANCH  14  15
ATOM     15  CB  GLU D 570     -19.500  -6.345 -13.794  1.00 32.92     0.043 C 
BRANCH  15  16
ATOM     16  CG  GLU D 570     -19.819  -5.877 -15.168  1.00 32.92     0.100 C 
BRANCH  16  17
ATOM     17  CD  GLU D 570     -21.253  -5.428 -15.320  1.00 32.92     0.185 C 
ATOM     18  OE1 GLU D 570     -21.607  -4.883 -16.383  1.00 32.92    -0.647 OA
ATOM     19  OE2 GLU D 570     -22.027  -5.607 -14.358  1.00 32.92    -0.647 OA
ENDBRANCH  16  17
ENDBRANCH  15  16
ENDBRANCH  14  15
END_RES GLU D 570
ENDMDL
MODEL 2
REMARK VINA RESULT:      -7.3      1.201      4.846
REMARK  11 active torsions:
REMARK  status: ('A' for Active; 'I' for Inactive)
REMARK    1  A    between atoms: C_1  and  C_2 
REMARK    2  A    between atoms: C_1  and  O_17 
REMARK    3  A    between atoms: C_2  and  C_3 
REMARK    4  A    between atoms: C_2  and  O_16 
REMARK    5  A    between atoms: C_3  and  O_4 
REMARK    6  A    between atoms: O_4  and  C_5 
REMARK    7  A    between atoms: C_6  and  O_15 
REMARK    8  A    between atoms: C_7  and  C_11 
REMARK    9  A    between atoms: C_11  and  C_12 
REMARK   10  A    between atoms: C_11  and  O_14 
REMARK   11  A    between atoms: C_12  and  O_13 
ROOT
HETATM    1  C   UNL     1     -23.119  -4.013 -10.705  1.00  0.00     0.176 A 
HETATM    2  C   UNL     1     -22.759  -3.499 -11.885  1.00  0.00     0.115 A 
HETATM    3  C   UNL     1     -23.877  -2.797 -12.561  1.00  0.00     0.222 A 
HETATM    4  O   UNL     1     -24.949  -2.913 -11.618  1.00  0.00    -0.301 OA
HETATM    5  C   UNL     1     -24.547  -3.650 -10.541  1.00  0.00     0.320 A 
HETATM    6  O   UNL     1     -25.268  -3.936  -9.603  1.00  0.00    -0.257 OA
ENDROOT
BRANCH   1   7
HETATM    7  O   UNL     1     -22.288  -4.687  -9.842  1.00  0.00    -0.341 OA
BRANCH   7   8
HETATM    8  C   UNL     1     -21.671  -3.846  -8.851  1.00  0.00     0.209 C 
BRANCH   8   9
HETATM    9  C   UNL     1     -22.061  -4.291  -7.435  1.00  0.00     0.166 C 
BRANCH   9  10
HETATM   10  C   UNL     1     -21.463  -5.658  -7.073  1.00  0.00     0.198 C 
BRANCH  10  11
HETATM   11  O   UNL     1     -20.301  -5.946  -7.848  1.00  0.00    -0.398 OA
HETATM   12  H   UNL     1     -19.569  -5.396  -7.516  1.00  0.00     0.209 HD
ENDBRANCH  10  11
ENDBRANCH   9  10
BRANCH   9  13
HETATM   13  O   UNL     1     -23.487  -4.316  -7.310  1.00  0.00    -0.391 OA
HETATM   14  H   UNL     1     -23.847  -4.623  -8.160  1.00  0.00     0.210 HD
ENDBRANCH   9  13
ENDBRANCH   8   9
ENDBRANCH   7   8
ENDBRANCH   1   7
BRANCH   2  15
HETATM   15  O   UNL     1     -21.514  -3.534 -12.451  1.00  0.00    -0.359 OA
HETATM   16  H   UNL     1     -21.625  -3.550 -13.421  1.00  0.00     0.217 HD
ENDBRANCH   2  15
BRANCH   3  17
HETATM   17  C   UNL     1     -24.292  -3.418 -13.910  1.00  0.00     0.177 C 
BRANCH  17  18
HETATM   18  C   UNL     1     -25.698  -2.962 -14.319  1.00  0.00     0.198 C 
BRANCH  18  19
HETATM   19  O   UNL     1     -25.605  -2.043 -15.407  1.00  0.00    -0.398 OA
HETATM   20  H   UNL     1     -26.526  -1.882 -15.697  1.00  0.00     0.209 HD
ENDBRANCH  18  19
ENDBRANCH  17  18
BRANCH  17  21
HETATM   21  O   UNL     1     -23.413  -3.065 -14.993  1.00  0.00    -0.390 OA
HETATM   22  H   UNL     1     -22.868  -2.306 -14.717  1.00  0.00     0.210 HD
ENDBRANCH  17  21
ENDBRANCH   3  17
TORSDOF 11
BEGIN_RES ARG D 557
REMARK  4 active torsions:
REMARK  status: ('A' for Active; 'I' for Inactive)
REMARK    1  A    between atoms: CA   and  CB  
REMARK    2  A    between atoms: CB   and  CG  
REMARK    3  A    between atoms: CG   and  CD  
REMARK    4  A    between atoms: CD   and  NE  
REMARK       I    between atoms: NE   and  CZ  
REMARK       I    between atoms: CZ   and  NH1 
REMARK       I    between atoms: CZ   and  NH2 
ROOT
ATOM      1  CA  ARG D 557     -26.217   2.705 -17.014  1.00 35.49     0.159 C 
ENDROOT
BRANCH   1   2
ATOM      2  CB  ARG D 557     -26.789   1.319 -17.183  1.00 35.49     0.034 C 
BRANCH   2   3
ATOM      3  CG  ARG D 557     -28.129   1.085 -16.630  1.00 35.49     0.027 C 
BRANCH   3   4
ATOM      4  CD  ARG D 557     -28.810  -0.063 -17.269  1.00 35.49     0.116 C 
BRANCH   4   5
ATOM      5  NE  ARG D 557     -28.222  -1.322 -16.893  1.00 35.49    -0.212 N 
ATOM      6  CZ  ARG D 557     -28.755  -2.507 -17.087  1.00 35.49     0.666 C 
ATOM      7  NH1 ARG D 557     -29.935  -2.670 -17.656  1.00 35.49    -0.235 N 
ATOM      8  NH2 ARG D 557     -28.069  -3.544 -16.700  1.00 35.49    -0.235 N 
ATOM      9  HH  ARG D 557     -30.402  -2.002 -17.920  1.00 35.49     0.174 HD
ATOM     10  HH  ARG D 557     -30.231  -3.468 -17.758  1.00 35.49     0.174 HD
ATOM     11  HH  ARG D 557     -27.307  -3.409 -16.343  1.00 35.49     0.174 HD
ATOM     12  HH  ARG D 557     -28.378  -4.325 -16.812  1.00 35.49     0.174 HD
ATOM     13  HE  ARG D 557     -27.493  -1.307 -16.455  1.00 35.49     0.178 HD
ENDBRANCH   4   5
ENDBRANCH   3   4
ENDBRANCH   2   3
ENDBRANCH   1   2
END_RES ARG D 557
BEGIN_RES GLU D 570
REMARK  3 active torsions:
REMARK  status: ('A' for Active; 'I' for Inactive)
REMARK    5  A    between atoms: CA   and  CB  
REMARK    6  A    between atoms: CB   and  CG  
REMARK    7  A    between atoms: CG   and  CD  
ROOT
ATOM     14  CA  GLU D 570     -18.033  -6.348 -13.375  1.00 32.92     0.160 C 
ENDROOT
BRANCH  14  15
ATOM     15  CB  GLU D 570     -19.500  -6.345 -13.794  1.00 32.92     0.043 C 
BRANCH  15  16
ATOM     16  CG  GLU D 570     -19.810  -5.971 -15.198  1.00 32.92     0.100 C 
BRANCH  16  17
ATOM     17  CD  GLU D 570     -21.247  -5.545 -15.391  1.00 32.92     0.185 C 
ATOM     18  OE1 GLU D 570     -22.078  -5.797 -14.497  1.00 32.92    -0.647 OA
ATOM     19  OE2 GLU D 570     -21.548  -4.968 -16.454  1.00 32.92    -0.647 OA
ENDBRANCH  16  17
ENDBRANCH  15  16
ENDBRANCH  14  15
END_RES GLU D 570
ENDMDL
MODEL 3
REMARK VINA RESULT:      -7.0      3.886      7.517
REMARK  11 active torsions:
REMARK  status: ('A' for Active; 'I' for Inactive)
REMARK    1  A    between atoms: C_1  and  C_2 
REMARK    2  A    between atoms: C_1  and  O_17 
REMARK    3  A    between atoms: C_2  and  C_3 
REMARK    4  A    between atoms: C_2  and  O_16 
REMARK    5  A    between atoms: C_3  and  O_4 
REMARK    6  A    between atoms: O_4  and  C_5 
REMARK    7  A    between atoms: C_6  and  O_15 
REMARK    8  A    between atoms: C_7  and  C_11 
REMARK    9  A    between atoms: C_11  and  C_12 
REMARK   10  A    between atoms: C_11  and  O_14 
REMARK   11  A    between atoms: C_12  and  O_13 
ROOT
HETATM    1  C   UNL     1     -27.490  -5.908 -16.441  1.00  0.00     0.176 A 
HETATM    2  C   UNL     1     -28.612  -6.209 -17.101  1.00  0.00     0.115 A 
HETATM    3  C   UNL     1     -29.418  -5.008 -17.427  1.00  0.00     0.222 A 
HETATM    4  O   UNL     1     -28.617  -3.935 -16.920  1.00  0.00    -0.301 OA
HETATM    5  C   UNL     1     -27.503  -4.431 -16.305  1.00  0.00     0.320 A 
HETATM    6  O   UNL     1     -26.664  -3.744 -15.754  1.00  0.00    -0.257 OA
ENDROOT
BRANCH   1   7
HETATM    7  O   UNL     1     -26.535  -6.810 -16.038  1.00  0.00    -0.341 OA
BRANCH   7   8
HETATM    8  C   UNL     1     -25.398  -6.886 -16.916  1.00  0.00     0.209 C 
BRANCH   8   9
HETATM    9  C   UNL     1     -24.097  -7.042 -16.116  1.00  0.00     0.166 C 
BRANCH   9  10
HETATM   10  C   UNL     1     -24.181  -6.369 -14.739  1.00  0.00     0.198 C 
BRANCH  10  11
HETATM   11  O   UNL     1     -24.376  -4.960 -14.852  1.00  0.00    -0.398 OA
HETATM   12  H   UNL     1     -24.910  -4.665 -14.093  1.00  0.00     0.209 HD
ENDBRANCH  10  11
ENDBRANCH   9  10
BRANCH   9  13
HETATM   13  O   UNL     1     -23.000  -6.514 -16.868  1.00  0.00    -0.391 OA
HETATM   14  H   UNL     1     -22.187  -6.914 -16.515  1.00  0.00     0.210 HD
ENDBRANCH   9  13
ENDBRANCH   8   9
ENDBRANCH   7   8
ENDBRANCH   1   7
BRANCH   2  15
HETATM   15  O   UNL     1     -29.019  -7.452 -17.505  1.00  0.00    -0.359 OA
HETATM   16  H   UNL     1     -28.733  -7.577 -18.430  1.00  0.00     0.217 HD
ENDBRANCH   2  15
BRANCH   3  17
HETATM   17  C   UNL     1     -30.813  -4.981 -16.769  1.00  0.00     0.177 C 
BRANCH  17  18
HETATM   18  C   UNL     1     -31.699  -3.898 -17.396  1.00  0.00     0.198 C 
BRANCH  18  19
HETATM   19  O   UNL     1     -30.881  -2.943 -18.071  1.00  0.00    -0.398 OA
HETATM   20  H   UNL     1     -31.391  -2.672 -18.862  1.00  0.00     0.209 HD
ENDBRANCH  18  19
ENDBRANCH  17  18
BRANCH  17  21
HETATM   21  O   UNL     1     -31.526  -6.225 -16.899  1.00  0.00    -0.390 OA
HETATM   22  H   UNL     1     -31.207  -6.686 -17.695  1.00  0.00     0.210 HD
ENDBRANCH  17  21
ENDBRANCH   3  17
TORSDOF 11
BEGIN_RES ARG D 557
REMARK  4 active torsions:
REMARK  status: ('A' for Active; 'I' for Inactive)
REMARK    1  A    between atoms: CA   and  CB  
REMARK    2  A    between atoms: CB   and  CG  
REMARK    3  A    between atoms: CG   and  CD  
REMARK    4  A    between atoms: CD   and  NE  
REMARK       I    between atoms: NE   and  CZ  
REMARK       I    between atoms: CZ   and  NH1 
REMARK       I    between atoms: CZ   and  NH2 
ROOT
ATOM      1  CA  ARG D 557     -26.217   2.705 -17.014  1.00 35.49     0.159 C 
ENDROOT
BRANCH   1   2
ATOM      2  CB  ARG D 557     -26.789   1.319 -17.183  1.00 35.49     0.034 C 
BRANCH   2   3
ATOM      3  CG  ARG D 557     -25.833   0.205 -17.177  1.00 35.49     0.027 C 
BRANCH   3   4
ATOM      4  CD  ARG D 557     -24.812   0.343 -16.114  1.00 35.49     0.116 C 
BRANCH   4   5
ATOM      5  NE  ARG D 557     -25.059  -0.542 -15.006  1.00 35.49    -0.212 N 
ATOM      6  CZ  ARG D 557     -24.293  -1.544 -14.638  1.00 35.49     0.666 C 
ATOM      7  NH1 ARG D 557     -23.183  -1.862 -15.279  1.00 35.49    -0.235 N 
ATOM      8  NH2 ARG D 557     -24.660  -2.229 -13.594  1.00 35.49    -0.235 N 
ATOM      9  HH  ARG D 557     -22.921  -1.423 -15.967  1.00 35.49     0.174 HD
ATOM     10  HH  ARG D 557     -22.722  -2.524 -14.992  1.00 35.49     0.174 HD
ATOM     11  HH  ARG D 557     -25.378  -1.996 -13.195  1.00 35.49     0.174 HD
ATOM     12  HH  ARG D 557     -24.190  -2.880 -13.324  1.00 35.49     0.174 HD
ATOM     13  HE  ARG D 557     -25.790  -0.455 -14.581  1.00 35.49     0.178 HD
ENDBRANCH   4   5
ENDBRANCH   3   4
ENDBRANCH   2   3
ENDBRANCH   1   2
END_RES ARG D 557
BEGIN_RES GLU D 570
REMARK  3 active torsions:
REMARK  status: ('A' for Active; 'I' for Inactive)
REMARK    5  A    between atoms: CA   and  CB  
REMARK    6  A    between atoms: CB   and  CG  
REMARK    7  A    between atoms: CG   and  CD  
ROOT
ATOM     14  CA  GLU D 570     -18.033  -6.348 -13.375  1.00 32.92     0.160 C 
ENDROOT
BRANCH  14  15
ATOM     15  CB  GLU D 570     -19.500  -6.345 -13.794  1.00 32.92     0.043 C 
BRANCH  15  16
ATOM     16  CG  GLU D 570     -20.457  -5.606 -12.931  1.00 32.92     0.100 C 
BRANCH  16  17
ATOM     17  CD  GLU D 570     -21.388  -4.711 -13.715  1.00 32.92     0.185 C 
ATOM     18  OE1 GLU D 570     -22.165  -3.957 -13.098  1.00 32.92    -0.647 OA
ATOM     19  OE2 GLU D 570     -21.351  -4.776 -14.959  1.00 32.92    -0.647 OA
ENDBRANCH  16  17
ENDBRANCH  15  16
ENDBRANCH  14  15
END_RES GLU D 570
ENDMDL
MODEL 4
REMARK VINA RESULT:      -6.7      1.850      5.602
REMARK  11 active torsions:
REMARK  status: ('A' for Active; 'I' for Inactive)
REMARK    1  A    between atoms: C_1  and  C_2 
REMARK    2  A    between atoms: C_1  and  O_17 
REMARK    3  A    between atoms: C_2  and  C_3 
REMARK    4  A    between atoms: C_2  and  O_16 
REMARK    5  A    between atoms: C_3  and  O_4 
REMARK    6  A    between atoms: O_4  and  C_5 
REMARK    7  A    between atoms: C_6  and  O_15 
REMARK    8  A    between atoms: C_7  and  C_11 
REMARK    9  A    between atoms: C_11  and  C_12 
REMARK   10  A    between atoms: C_11  and  O_14 
REMARK   11  A    between atoms: C_12  and  O_13 
ROOT
HETATM    1  C   UNL     1     -21.751  -4.132  -7.767  1.00  0.00     0.176 A 
HETATM    2  C   UNL     1     -23.072  -4.258  -7.921  1.00  0.00     0.115 A 
HETATM    3  C   UNL     1     -23.465  -4.402  -9.342  1.00  0.00     0.222 A 
HETATM    4  O   UNL     1     -22.208  -4.394 -10.028  1.00  0.00    -0.301 OA
HETATM    5  C   UNL     1     -21.191  -4.201  -9.139  1.00  0.00     0.320 A 
HETATM    6  O   UNL     1     -20.018  -4.116  -9.451  1.00  0.00    -0.257 OA
ENDROOT
BRANCH   1   7
HETATM    7  O   UNL     1     -21.095  -4.016  -6.565  1.00  0.00    -0.341 OA
BRANCH   7   8
HETATM    8  C   UNL     1     -20.092  -5.025  -6.347  1.00  0.00     0.209 C 
BRANCH   8   9
HETATM    9  C   UNL     1     -20.733  -6.413  -6.207  1.00  0.00     0.166 C 
BRANCH   9  10
HETATM   10  C   UNL     1     -21.472  -6.576  -4.871  1.00  0.00     0.198 C 
BRANCH  10  11
HETATM   11  O   UNL     1     -22.803  -6.067  -4.941  1.00  0.00    -0.398 OA
HETATM   12  H   UNL     1     -22.755  -5.114  -5.135  1.00  0.00     0.209 HD
ENDBRANCH  10  11
ENDBRANCH   9  10
BRANCH   9  13
HETATM   13  O   UNL     1     -19.731  -7.425  -6.355  1.00  0.00    -0.391 OA
HETATM   14  H   UNL     1     -18.972  -7.018  -6.807  1.00  0.00     0.210 HD
ENDBRANCH   9  13
ENDBRANCH   8   9
ENDBRANCH   7   8
ENDBRANCH   1   7
BRANCH   2  15
HETATM   15  O   UNL     1     -24.014  -4.301  -6.929  1.00  0.00    -0.359 OA
HETATM   16  H   UNL     1     -24.231  -3.383  -6.679  1.00  0.00     0.217 HD
ENDBRANCH   2  15
BRANCH   3  17
HETATM   17  C   UNL     1     -24.361  -3.264  -9.872  1.00  0.00     0.177 C 
BRANCH  17  18
HETATM   18  C   UNL     1     -24.391  -3.252 -11.406  1.00  0.00     0.198 C 
BRANCH  18  19
HETATM   19  O   UNL     1     -23.308  -2.464 -11.899  1.00  0.00    -0.398 OA
HETATM   20  H   UNL     1     -23.102  -1.824 -11.187  1.00  0.00     0.209 HD
ENDBRANCH  18  19
ENDBRANCH  17  18
BRANCH  17  21
HETATM   21  O   UNL     1     -25.728  -3.366  -9.434  1.00  0.00    -0.390 OA
HETATM   22  H   UNL     1     -25.778  -4.027  -8.720  1.00  0.00     0.210 HD
ENDBRANCH  17  21
ENDBRANCH   3  17
TORSDOF 11
BEGIN_RES ARG D 557
REMARK  4 active torsions:
REMARK  status: ('A' for Active; 'I' for Inactive)
REMARK    1  A    between atoms: CA   and  CB  
REMARK    2  A    between atoms: CB   and  CG  
REMARK    3  A    between atoms: CG   and  CD  
REMARK    4  A    between atoms: CD   and  NE  
REMARK       I    between atoms: NE   and  CZ  
REMARK       I    between atoms: CZ   and  NH1 
REMARK       I    between atoms: CZ   and  NH2 
ROOT
ATOM      1  CA  ARG D 557     -26.217   2.705 -17.014  1.00 35.49     0.159 C 
ENDROOT
BRANCH   1   2
ATOM      2  CB  ARG D 557     -26.789   1.319 -17.183  1.00 35.49     0.034 C 
BRANCH   2   3
ATOM      3  CG  ARG D 557     -26.026   0.213 -16.592  1.00 35.49     0.027 C 
BRANCH   3   4
ATOM      4  CD  ARG D 557     -26.902  -0.811 -15.977  1.00 35.49     0.116 C 
BRANCH   4   5
ATOM      5  NE  ARG D 557     -26.175  -2.000 -15.617  1.00 35.49    -0.212 N 
ATOM      6  CZ  ARG D 557     -25.118  -2.048 -14.839  1.00 35.49     0.666 C 
ATOM      7  NH1 ARG D 557     -24.585  -0.968 -14.298  1.00 35.49    -0.235 N 
ATOM      8  NH2 ARG D 557     -24.599  -3.218 -14.602  1.00 35.49    -0.235 N 
ATOM      9  HH  ARG D 557     -24.912  -0.188 -14.439  1.00 35.49     0.174 HD
ATOM     10  HH  ARG D 557     -23.897  -1.061 -13.797  1.00 35.49     0.174 HD
ATOM     11  HH  ARG D 557     -24.968  -3.899 -14.959  1.00 35.49     0.174 HD
ATOM     12  HH  ARG D 557     -23.918  -3.290 -14.102  1.00 35.49     0.174 HD
ATOM     13  HE  ARG D 557     -26.406  -2.734 -15.980  1.00 35.49     0.178 HD
ENDBRANCH   4   5
ENDBRANCH   3   4
ENDBRANCH   2   3
ENDBRANCH   1   2
END_RES ARG D 557
BEGIN_RES GLU D 570
REMARK  3 active torsions:
REMARK  status: ('A' for Active; 'I' for Inactive)
REMARK    5  A    between atoms: CA   and  CB  
REMARK    6  A    between atoms: CB   and  CG  
REMARK    7  A    between atoms: CG   and  CD  
ROOT
ATOM     14  CA  GLU D 570     -18.033  -6.348 -13.375  1.00 32.92     0.160 C 
ENDROOT
BRANCH  14  15
ATOM     15  CB  GLU D 570     -19.500  -6.345 -13.794  1.00 32.92     0.043 C 
BRANCH  15  16
ATOM     16  CG  GLU D 570     -20.436  -5.503 -13.005  1.00 32.92     0.100 C 
BRANCH  16  17
ATOM     17  CD  GLU D 570     -21.711  -5.183 -13.749  1.00 32.92     0.185 C 
ATOM     18  OE1 GLU D 570     -21.639  -4.756 -14.917  1.00 32.92    -0.647 OA
ATOM     19  OE2 GLU D 570     -22.793  -5.345 -13.151  1.00 32.92    -0.647 OA
ENDBRANCH  16  17
ENDBRANCH  15  16
ENDBRANCH  14  15
END_RES GLU D 570
ENDMDL
MODEL 5
REMARK VINA RESULT:      -6.7      4.281      7.662
REMARK  11 active torsions:
REMARK  status: ('A' for Active; 'I' for Inactive)
REMARK    1  A    between atoms: C_1  and  C_2 
REMARK    2  A    between atoms: C_1  and  O_17 
REMARK    3  A    between atoms: C_2  and  C_3 
REMARK    4  A    between atoms: C_2  and  O_16 
REMARK    5  A    between atoms: C_3  and  O_4 
REMARK    6  A    between atoms: O_4  and  C_5 
REMARK    7  A    between atoms: C_6  and  O_15 
REMARK    8  A    between atoms: C_7  and  C_11 
REMARK    9  A    between atoms: C_11  and  C_12 
REMARK   10  A    between atoms: C_11  and  O_14 
REMARK   11  A    between atoms: C_12  and  O_13 
ROOT
HETATM    1  C   UNL     1     -27.148  -5.704 -16.725  1.00  0.00     0.176 A 
HETATM    2  C   UNL     1     -27.833  -6.213 -17.753  1.00  0.00     0.115 A 
HETATM    3  C   UNL     1     -29.299  -6.080 -17.579  1.00  0.00     0.222 A 
HETATM    4  O   UNL     1     -29.415  -5.381 -16.334  1.00  0.00    -0.301 OA
HETATM    5  C   UNL     1     -28.177  -5.181 -15.793  1.00  0.00     0.320 A 
HETATM    6  O   UNL     1     -27.980  -4.643 -14.720  1.00  0.00    -0.257 OA
ENDROOT
BRANCH   1   7
HETATM    7  O   UNL     1     -25.779  -5.656 -16.624  1.00  0.00    -0.341 OA
BRANCH   7   8
HETATM    8  C   UNL     1     -25.212  -6.738 -15.865  1.00  0.00     0.209 C 
BRANCH   8   9
HETATM    9  C   UNL     1     -23.960  -7.297 -16.556  1.00  0.00     0.166 C 
BRANCH   9  10
HETATM   10  C   UNL     1     -23.979  -7.053 -18.072  1.00  0.00     0.198 C 
BRANCH  10  11
HETATM   11  O   UNL     1     -22.717  -7.345 -18.668  1.00  0.00    -0.398 OA
HETATM   12  H   UNL     1     -22.815  -8.145 -19.214  1.00  0.00     0.209 HD
ENDBRANCH  10  11
ENDBRANCH   9  10
BRANCH   9  13
HETATM   13  O   UNL     1     -23.834  -8.694 -16.273  1.00  0.00    -0.391 OA
HETATM   14  H   UNL     1     -23.525  -8.777 -15.354  1.00  0.00     0.210 HD
ENDBRANCH   9  13
ENDBRANCH   8   9
ENDBRANCH   7   8
ENDBRANCH   1   7
BRANCH   2  15
HETATM   15  O   UNL     1     -27.314  -6.771 -18.890  1.00  0.00    -0.359 OA
HETATM   16  H   UNL     1     -27.901  -6.538 -19.635  1.00  0.00     0.217 HD
ENDBRANCH   2  15
BRANCH   3  17
HETATM   17  C   UNL     1     -30.054  -7.422 -17.502  1.00  0.00     0.177 C 
BRANCH  17  18
HETATM   18  C   UNL     1     -30.503  -7.885 -18.894  1.00  0.00     0.198 C 
BRANCH  18  19
HETATM   19  O   UNL     1     -29.555  -8.814 -19.417  1.00  0.00    -0.398 OA
HETATM   20  H   UNL     1     -29.947  -9.151 -20.248  1.00  0.00     0.209 HD
ENDBRANCH  18  19
ENDBRANCH  17  18
BRANCH  17  21
HETATM   21  O   UNL     1     -29.262  -8.489 -16.949  1.00  0.00    -0.390 OA
HETATM   22  H   UNL     1     -29.029  -9.108 -17.664  1.00  0.00     0.210 HD
ENDBRANCH  17  21
ENDBRANCH   3  17
TORSDOF 11
BEGIN_RES ARG D 557
REMARK  4 active torsions:
REMARK  status: ('A' for Active; 'I' for Inactive)
REMARK    1  A    between atoms: CA   and  CB  
REMARK    2  A    between atoms: CB   and  CG  
REMARK    3  A    between atoms: CG   and  CD  
REMARK    4  A    between atoms: CD   and  NE  
REMARK       I    between atoms: NE   and  CZ  
REMARK       I    between atoms: CZ   and  NH1 
REMARK       I    between atoms: CZ   and  NH2 
ROOT
ATOM      1  CA  ARG D 557     -26.217   2.705 -17.014  1.00 35.49     0.159 C 
ENDROOT
BRANCH   1   2
ATOM      2  CB  ARG D 557     -26.789   1.319 -17.183  1.00 35.49     0.034 C 
BRANCH   2   3
ATOM      3  CG  ARG D 557     -25.861   0.195 -17.008  1.00 35.49     0.027 C 
BRANCH   3   4
ATOM      4  CD  ARG D 557     -26.263  -0.702 -15.901  1.00 35.49     0.116 C 
BRANCH   4   5
ATOM      5  NE  ARG D 557     -25.210  -0.879 -14.937  1.00 35.49    -0.212 N 
ATOM      6  CZ  ARG D 557     -24.857  -2.019 -14.386  1.00 35.49     0.666 C 
ATOM      7  NH1 ARG D 557     -25.465  -3.158 -14.661  1.00 35.49    -0.235 N 
ATOM      8  NH2 ARG D 557     -23.863  -1.997 -13.545  1.00 35.49    -0.235 N 
ATOM      9  HH  ARG D 557     -26.119  -3.196 -15.212  1.00 35.49     0.174 HD
ATOM     10  HH  ARG D 557     -25.189  -3.871 -14.273  1.00 35.49     0.174 HD
ATOM     11  HH  ARG D 557     -23.485  -1.248 -13.393  1.00 35.49     0.174 HD
ATOM     12  HH  ARG D 557     -23.604  -2.713 -13.173  1.00 35.49     0.174 HD
ATOM     13  HE  ARG D 557     -24.812  -0.185 -14.647  1.00 35.49     0.178 HD
ENDBRANCH   4   5
ENDBRANCH   3   4
ENDBRANCH   2   3
ENDBRANCH   1   2
END_RES ARG D 557
BEGIN_RES GLU D 570
REMARK  3 active torsions:
REMARK  status: ('A' for Active; 'I' for Inactive)
REMARK    5  A    between atoms: CA   and  CB  
REMARK    6  A    between atoms: CB   and  CG  
REMARK    7  A    between atoms: CG   and  CD  
ROOT
ATOM     14  CA  GLU D 570     -18.033  -6.348 -13.375  1.00 32.92     0.160 C 
ENDROOT
BRANCH  14  15
ATOM     15  CB  GLU D 570     -19.500  -6.345 -13.794  1.00 32.92     0.043 C 
BRANCH  15  16
ATOM     16  CG  GLU D 570     -20.446  -5.551 -12.969  1.00 32.92     0.100 C 
BRANCH  16  17
ATOM     17  CD  GLU D 570     -21.680  -5.127 -13.730  1.00 32.92     0.185 C 
ATOM     18  OE1 GLU D 570     -22.714  -4.842 -13.096  1.00 32.92    -0.647 OA
ATOM     19  OE2 GLU D 570     -21.618  -5.097 -14.975  1.00 32.92    -0.647 OA
ENDBRANCH  16  17
ENDBRANCH  15  16
ENDBRANCH  14  15
END_RES GLU D 570
ENDMDL
MODEL 6
REMARK VINA RESULT:      -6.3      1.843      2.957
REMARK  11 active torsions:
REMARK  status: ('A' for Active; 'I' for Inactive)
REMARK    1  A    between atoms: C_1  and  C_2 
REMARK    2  A    between atoms: C_1  and  O_17 
REMARK    3  A    between atoms: C_2  and  C_3 
REMARK    4  A    between atoms: C_2  and  O_16 
REMARK    5  A    between atoms: C_3  and  O_4 
REMARK    6  A    between atoms: O_4  and  C_5 
REMARK    7  A    between atoms: C_6  and  O_15 
REMARK    8  A    between atoms: C_7  and  C_11 
REMARK    9  A    between atoms: C_11  and  C_12 
REMARK   10  A    between atoms: C_11  and  O_14 
REMARK   11  A    between atoms: C_12  and  O_13 
ROOT
HETATM    1  C   UNL     1     -22.336  -3.857  -9.946  1.00  0.00     0.176 A 
HETATM    2  C   UNL     1     -22.697  -3.906  -8.661  1.00  0.00     0.115 A 
HETATM    3  C   UNL     1     -21.544  -4.134  -7.757  1.00  0.00     0.222 A 
HETATM    4  O   UNL     1     -20.430  -4.170  -8.657  1.00  0.00    -0.301 OA
HETATM    5  C   UNL     1     -20.866  -4.049  -9.946  1.00  0.00     0.320 A 
HETATM    6  O   UNL     1     -20.136  -4.083 -10.919  1.00  0.00    -0.257 OA
ENDROOT
BRANCH   1   7
HETATM    7  O   UNL     1     -23.183  -3.626 -11.004  1.00  0.00    -0.341 OA
BRANCH   7   8
HETATM    8  C   UNL     1     -23.700  -4.825 -11.609  1.00  0.00     0.209 C 
BRANCH   8   9
HETATM    9  C   UNL     1     -22.945  -5.156 -12.903  1.00  0.00     0.166 C 
BRANCH   9  10
HETATM   10  C   UNL     1     -22.540  -3.893 -13.676  1.00  0.00     0.198 C 
BRANCH  10  11
HETATM   11  O   UNL     1     -22.875  -3.992 -15.059  1.00  0.00    -0.398 OA
HETATM   12  H   UNL     1     -23.845  -3.958 -15.140  1.00  0.00     0.209 HD
ENDBRANCH  10  11
ENDBRANCH   9  10
BRANCH   9  13
HETATM   13  O   UNL     1     -23.743  -6.015 -13.724  1.00  0.00    -0.391 OA
HETATM   14  H   UNL     1     -23.238  -6.194 -14.535  1.00  0.00     0.210 HD
ENDBRANCH   9  13
ENDBRANCH   8   9
ENDBRANCH   7   8
ENDBRANCH   1   7
BRANCH   2  15
HETATM   15  O   UNL     1     -23.956  -3.732  -8.153  1.00  0.00    -0.359 OA
HETATM   16  H   UNL     1     -24.106  -2.774  -8.042  1.00  0.00     0.217 HD
ENDBRANCH   2  15
BRANCH   3  17
HETATM   17  C   UNL     1     -21.616  -5.449  -6.955  1.00  0.00     0.177 C 
BRANCH  17  18
HETATM   18  C   UNL     1     -20.274  -5.758  -6.278  1.00  0.00     0.198 C 
BRANCH  18  19
HETATM   19  O   UNL     1     -19.507  -6.626  -7.112  1.00  0.00    -0.398 OA
HETATM   20  H   UNL     1     -19.558  -7.508  -6.692  1.00  0.00     0.209 HD
ENDBRANCH  18  19
ENDBRANCH  17  18
BRANCH  17  21
HETATM   21  O   UNL     1     -22.607  -5.424  -5.912  1.00  0.00    -0.390 OA
HETATM   22  H   UNL     1     -23.301  -4.784  -6.156  1.00  0.00     0.210 HD
ENDBRANCH  17  21
ENDBRANCH   3  17
TORSDOF 11
BEGIN_RES ARG D 557
REMARK  4 active torsions:
REMARK  status: ('A' for Active; 'I' for Inactive)
REMARK    1  A    between atoms: CA   and  CB  
REMARK    2  A    between atoms: CB   and  CG  
REMARK    3  A    between atoms: CG   and  CD  
REMARK    4  A    between atoms: CD   and  NE  
REMARK       I    between atoms: NE   and  CZ  
REMARK       I    between atoms: CZ   and  NH1 
REMARK       I    between atoms: CZ   and  NH2 
ROOT
ATOM      1  CA  ARG D 557     -26.217   2.705 -17.014  1.00 35.49     0.159 C 
ENDROOT
BRANCH   1   2
ATOM      2  CB  ARG D 557     -26.789   1.319 -17.183  1.00 35.49     0.034 C 
BRANCH   2   3
ATOM      3  CG  ARG D 557     -26.091   0.227 -16.493  1.00 35.49     0.027 C 
BRANCH   3   4
ATOM      4  CD  ARG D 557     -26.992  -0.902 -16.167  1.00 35.49     0.116 C 
BRANCH   4   5
ATOM      5  NE  ARG D 557     -26.327  -1.922 -15.400  1.00 35.49    -0.212 N 
ATOM      6  CZ  ARG D 557     -26.599  -3.207 -15.432  1.00 35.49     0.666 C 
ATOM      7  NH1 ARG D 557     -27.557  -3.710 -16.189  1.00 35.49    -0.235 N 
ATOM      8  NH2 ARG D 557     -25.879  -3.992 -14.685  1.00 35.49    -0.235 N 
ATOM      9  HH  ARG D 557     -28.042  -3.212 -16.690  1.00 35.49     0.174 HD
ATOM     10  HH  ARG D 557     -27.688  -4.557 -16.171  1.00 35.49     0.174 HD
ATOM     11  HH  ARG D 557     -25.263  -3.640 -14.212  1.00 35.49     0.174 HD
ATOM     12  HH  ARG D 557     -26.023  -4.828 -14.681  1.00 35.49     0.174 HD
ATOM     13  HE  ARG D 557     -25.744  -1.678 -14.831  1.00 35.49     0.178 HD
ENDBRANCH   4   5
ENDBRANCH   3   4
ENDBRANCH   2   3
ENDBRANCH   1   2
END_RES ARG D 557
BEGIN_RES GLU D 570
REMARK  3 active torsions:
REMARK  status: ('A' for Active; 'I' for Inactive)
REMARK    5  A    between atoms: CA   and  CB  
REMARK    6  A    between atoms: CB   and  CG  
REMARK    7  A    between atoms: CG   and  CD  
ROOT
ATOM     14  CA  GLU D 570     -18.033  -6.348 -13.375  1.00 32.92     0.160 C 
ENDROOT
BRANCH  14  15
ATOM     15  CB  GLU D 570     -19.500  -6.345 -13.794  1.00 32.92     0.043 C 
BRANCH  15  16
ATOM     16  CG  GLU D 570     -20.112  -7.650 -14.155  1.00 32.92     0.100 C 
BRANCH  16  17
ATOM     17  CD  GLU D 570     -20.908  -7.593 -15.438  1.00 32.92     0.185 C 
ATOM     18  OE1 GLU D 570     -20.986  -8.615 -16.147  1.00 32.92    -0.647 OA
ATOM     19  OE2 GLU D 570     -21.445  -6.511 -15.745  1.00 32.92    -0.647 OA
ENDBRANCH  16  17
ENDBRANCH  15  16
ENDBRANCH  14  15
END_RES GLU D 570
ENDMDL
MODEL 7
REMARK VINA RESULT:      -6.0      1.685      5.359
REMARK  11 active torsions:
REMARK  status: ('A' for Active; 'I' for Inactive)
REMARK    1  A    between atoms: C_1  and  C_2 
REMARK    2  A    between atoms: C_1  and  O_17 
REMARK    3  A    between atoms: C_2  and  C_3 
REMARK    4  A    between atoms: C_2  and  O_16 
REMARK    5  A    between atoms: C_3  and  O_4 
REMARK    6  A    between atoms: O_4  and  C_5 
REMARK    7  A    between atoms: C_6  and  O_15 
REMARK    8  A    between atoms: C_7  and  C_11 
REMARK    9  A    between atoms: C_11  and  C_12 
REMARK   10  A    between atoms: C_11  and  O_14 
REMARK   11  A    between atoms: C_12  and  O_13 
ROOT
HETATM    1  C   UNL     1     -21.450  -5.044  -8.355  1.00  0.00     0.176 A 
HETATM    2  C   UNL     1     -21.034  -4.546  -9.522  1.00  0.00     0.115 A 
HETATM    3  C   UNL     1     -21.962  -3.527 -10.067  1.00  0.00     0.222 A 
HETATM    4  O   UNL     1     -22.973  -3.437  -9.056  1.00  0.00    -0.301 OA
HETATM    5  C   UNL     1     -22.721  -4.338  -8.061  1.00  0.00     0.320 A 
HETATM    6  O   UNL     1     -23.438  -4.503  -7.092  1.00  0.00    -0.257 OA
ENDROOT
BRANCH   1   7
HETATM    7  O   UNL     1     -20.780  -5.978  -7.601  1.00  0.00    -0.341 OA
BRANCH   7   8
HETATM    8  C   UNL     1     -20.218  -5.452  -6.386  1.00  0.00     0.209 C 
BRANCH   8   9
HETATM    9  C   UNL     1     -20.760  -6.202  -5.161  1.00  0.00     0.166 C 
BRANCH   9  10
HETATM   10  C   UNL     1     -20.588  -7.722  -5.291  1.00  0.00     0.198 C 
BRANCH  10  11
HETATM   11  O   UNL     1     -19.411  -8.057  -6.023  1.00  0.00    -0.398 OA
HETATM   12  H   UNL     1     -19.526  -8.951  -6.394  1.00  0.00     0.209 HD
ENDBRANCH  10  11
ENDBRANCH   9  10
BRANCH   9  13
HETATM   13  O   UNL     1     -22.136  -5.866  -4.957  1.00  0.00    -0.391 OA
HETATM   14  H   UNL     1     -22.174  -4.919  -4.737  1.00  0.00     0.210 HD
ENDBRANCH   9  13
ENDBRANCH   8   9
ENDBRANCH   7   8
ENDBRANCH   1   7
BRANCH   2  15
HETATM   15  O   UNL     1     -19.876  -4.857 -10.181  1.00  0.00    -0.359 OA
HETATM   16  H   UNL     1     -19.683  -5.801 -10.024  1.00  0.00     0.217 HD
ENDBRANCH   2  15
BRANCH   3  17
HETATM   17  C   UNL     1     -22.601  -3.907 -11.418  1.00  0.00     0.177 C 
BRANCH  17  18
HETATM   18  C   UNL     1     -23.706  -2.916 -11.805  1.00  0.00     0.198 C 
BRANCH  18  19
HETATM   19  O   UNL     1     -24.895  -3.217 -11.075  1.00  0.00    -0.398 OA
HETATM   20  H   UNL     1     -24.622  -3.842 -10.373  1.00  0.00     0.209 HD
ENDBRANCH  18  19
ENDBRANCH  17  18
BRANCH  17  21
HETATM   21  O   UNL     1     -21.661  -3.922 -12.507  1.00  0.00    -0.390 OA
HETATM   22  H   UNL     1     -21.556  -3.013 -12.841  1.00  0.00     0.210 HD
ENDBRANCH  17  21
ENDBRANCH   3  17
TORSDOF 11
BEGIN_RES ARG D 557
REMARK  4 active torsions:
REMARK  status: ('A' for Active; 'I' for Inactive)
REMARK    1  A    between atoms: CA   and  CB  
REMARK    2  A    between atoms: CB   and  CG  
REMARK    3  A    between atoms: CG   and  CD  
REMARK    4  A    between atoms: CD   and  NE  
REMARK       I    between atoms: NE   and  CZ  
REMARK       I    between atoms: CZ   and  NH1 
REMARK       I    between atoms: CZ   and  NH2 
ROOT
ATOM      1  CA  ARG D 557     -26.217   2.705 -17.014  1.00 35.49     0.159 C 
ENDROOT
BRANCH   1   2
ATOM      2  CB  ARG D 557     -26.789   1.319 -17.183  1.00 35.49     0.034 C 
BRANCH   2   3
ATOM      3  CG  ARG D 557     -28.227   1.163 -16.933  1.00 35.49     0.027 C 
BRANCH   3   4
ATOM      4  CD  ARG D 557     -28.608  -0.248 -16.695  1.00 35.49     0.116 C 
BRANCH   4   5
ATOM      5  NE  ARG D 557     -27.588  -0.973 -15.985  1.00 35.49    -0.212 N 
ATOM      6  CZ  ARG D 557     -27.380  -2.269 -16.050  1.00 35.49     0.666 C 
ATOM      7  NH1 ARG D 557     -28.124  -3.070 -16.790  1.00 35.49    -0.235 N 
ATOM      8  NH2 ARG D 557     -26.394  -2.755 -15.353  1.00 35.49    -0.235 N 
ATOM      9  HH  ARG D 557     -28.777  -2.772 -17.258  1.00 35.49     0.174 HD
ATOM     10  HH  ARG D 557     -27.940  -3.907 -16.795  1.00 35.49     0.174 HD
ATOM     11  HH  ARG D 557     -25.926  -2.213 -14.890  1.00 35.49     0.174 HD
ATOM     12  HH  ARG D 557     -26.227  -3.586 -15.373  1.00 35.49     0.174 HD
ATOM     13  HE  ARG D 557     -27.108  -0.546 -15.428  1.00 35.49     0.178 HD
ENDBRANCH   4   5
ENDBRANCH   3   4
ENDBRANCH   2   3
ENDBRANCH   1   2
END_RES ARG D 557
BEGIN_RES GLU D 570
REMARK  3 active torsions:
REMARK  status: ('A' for Active; 'I' for Inactive)
REMARK    5  A    between atoms: CA   and  CB  
REMARK    6  A    between atoms: CB   and  CG  
REMARK    7  A    between atoms: CG   and  CD  
ROOT
ATOM     14  CA  GLU D 570     -18.033  -6.348 -13.375  1.00 32.92     0.160 C 
ENDROOT
BRANCH  14  15
ATOM     15  CB  GLU D 570     -19.500  -6.345 -13.794  1.00 32.92     0.043 C 
BRANCH  15  16
ATOM     16  CG  GLU D 570     -19.805  -6.041 -15.216  1.00 32.92     0.100 C 
BRANCH  16  17
ATOM     17  CD  GLU D 570     -21.273  -5.782 -15.461  1.00 32.92     0.185 C 
ATOM     18  OE1 GLU D 570     -22.113  -6.583 -15.008  1.00 32.92    -0.647 OA
ATOM     19  OE2 GLU D 570     -21.586  -4.776 -16.128  1.00 32.92    -0.647 OA
ENDBRANCH  16  17
ENDBRANCH  15  16
ENDBRANCH  14  15
END_RES GLU D 570
ENDMDL
MODEL 8
REMARK VINA RESULT:      -5.9     12.066     14.433
REMARK  11 active torsions:
REMARK  status: ('A' for Active; 'I' for Inactive)
REMARK    1  A    between atoms: C_1  and  C_2 
REMARK    2  A    between atoms: C_1  and  O_17 
REMARK    3  A    between atoms: C_2  and  C_3 
REMARK    4  A    between atoms: C_2  and  O_16 
REMARK    5  A    between atoms: C_3  and  O_4 
REMARK    6  A    between atoms: O_4  and  C_5 
REMARK    7  A    between atoms: C_6  and  O_15 
REMARK    8  A    between atoms: C_7  and  C_11 
REMARK    9  A    between atoms: C_11  and  C_12 
REMARK   10  A    between atoms: C_11  and  O_14 
REMARK   11  A    between atoms: C_12  and  O_13 
ROOT
HETATM    1  C   UNL     1     -12.340   6.480 -20.519  1.00  0.00     0.176 A 
HETATM    2  C   UNL     1     -13.311   5.736 -21.058  1.00  0.00     0.115 A 
HETATM    3  C   UNL     1     -13.299   4.341 -20.558  1.00  0.00     0.222 A 
HETATM    4  O   UNL     1     -12.225   4.345 -19.611  1.00  0.00    -0.301 OA
HETATM    5  C   UNL     1     -11.622   5.570 -19.593  1.00  0.00     0.320 A 
HETATM    6  O   UNL     1     -10.657   5.846 -18.905  1.00  0.00    -0.257 OA
ENDROOT
BRANCH   1   7
HETATM    7  O   UNL     1     -12.126   7.814 -20.767  1.00  0.00    -0.341 OA
BRANCH   7   8
HETATM    8  C   UNL     1     -12.202   8.645 -19.595  1.00  0.00     0.209 C 
BRANCH   8   9
HETATM    9  C   UNL     1     -10.836   9.266 -19.274  1.00  0.00     0.166 C 
BRANCH   9  10
HETATM   10  C   UNL     1      -9.871   9.189 -20.465  1.00  0.00     0.198 C 
BRANCH  10  11
HETATM   11  O   UNL     1      -9.164   7.950 -20.490  1.00  0.00    -0.398 OA
HETATM   12  H   UNL     1      -9.728   7.269 -20.084  1.00  0.00     0.209 HD
ENDBRANCH  10  11
ENDBRANCH   9  10
BRANCH   9  13
HETATM   13  O   UNL     1     -10.271   8.625 -18.125  1.00  0.00    -0.391 OA
HETATM   14  H   UNL     1      -9.305   8.725 -18.183  1.00  0.00     0.210 HD
ENDBRANCH   9  13
ENDBRANCH   8   9
ENDBRANCH   7   8
ENDBRANCH   1   7
BRANCH   2  15
HETATM   15  O   UNL     1     -14.269   6.152 -21.942  1.00  0.00    -0.359 OA
HETATM   16  H   UNL     1     -14.241   7.127 -21.980  1.00  0.00     0.217 HD
ENDBRANCH   2  15
BRANCH   3  17
HETATM   17  C   UNL     1     -13.038   3.279 -21.645  1.00  0.00     0.177 C 
BRANCH  17  18
HETATM   18  C   UNL     1     -11.536   3.012 -21.809  1.00  0.00     0.198 C 
BRANCH  18  19
HETATM   19  O   UNL     1     -11.090   2.140 -20.771  1.00  0.00    -0.398 OA
HETATM   20  H   UNL     1     -10.905   2.717 -20.003  1.00  0.00     0.209 HD
ENDBRANCH  18  19
ENDBRANCH  17  18
BRANCH  17  21
HETATM   21  O   UNL     1     -13.653   2.010 -21.359  1.00  0.00    -0.390 OA
HETATM   22  H   UNL     1     -14.620   2.125 -21.355  1.00  0.00     0.210 HD
ENDBRANCH  17  21
ENDBRANCH   3  17
TORSDOF 11
BEGIN_RES ARG D 557
REMARK  4 active torsions:
REMARK  status: ('A' for Active; 'I' for Inactive)
REMARK    1  A    between atoms: CA   and  CB  
REMARK    2  A    between atoms: CB   and  CG  
REMARK    3  A    between atoms: CG   and  CD  
REMARK    4  A    between atoms: CD   and  NE  
REMARK       I    between atoms: NE   and  CZ  
REMARK       I    between atoms: CZ   and  NH1 
REMARK       I    between atoms: CZ   and  NH2 
ROOT
ATOM      1  CA  ARG D 557     -26.217   2.705 -17.014  1.00 35.49     0.159 C 
ENDROOT
BRANCH   1   2
ATOM      2  CB  ARG D 557     -26.789   1.319 -17.183  1.00 35.49     0.034 C 
BRANCH   2   3
ATOM      3  CG  ARG D 557     -25.835   0.204 -17.163  1.00 35.49     0.027 C 
BRANCH   3   4
ATOM      4  CD  ARG D 557     -24.761   0.397 -16.162  1.00 35.49     0.116 C 
BRANCH   4   5
ATOM      5  NE  ARG D 557     -24.928  -0.456 -15.015  1.00 35.49    -0.212 N 
ATOM      6  CZ  ARG D 557     -24.120  -1.429 -14.657  1.00 35.49     0.666 C 
ATOM      7  NH1 ARG D 557     -23.040  -1.743 -15.348  1.00 35.49    -0.235 N 
ATOM      8  NH2 ARG D 557     -24.416  -2.087 -13.574  1.00 35.49    -0.235 N 
ATOM      9  HH  ARG D 557     -22.825  -1.322 -16.062  1.00 35.49     0.174 HD
ATOM     10  HH  ARG D 557     -22.549  -2.386 -15.064  1.00 35.49     0.174 HD
ATOM     11  HH  ARG D 557     -25.116  -1.857 -13.145  1.00 35.49     0.174 HD
ATOM     12  HH  ARG D 557     -23.917  -2.719 -13.310  1.00 35.49     0.174 HD
ATOM     13  HE  ARG D 557     -25.638  -0.371 -14.554  1.00 35.49     0.178 HD
ENDBRANCH   4   5
ENDBRANCH   3   4
ENDBRANCH   2   3
ENDBRANCH   1   2
END_RES ARG D 557
BEGIN_RES GLU D 570
REMARK  3 active torsions:
REMARK  status: ('A' for Active; 'I' for Inactive)
REMARK    5  A    between atoms: CA   and  CB  
REMARK    6  A    between atoms: CB   and  CG  
REMARK    7  A    between atoms: CG   and  CD  
ROOT
ATOM     14  CA  GLU D 570     -18.033  -6.348 -13.375  1.00 32.92     0.160 C 
ENDROOT
BRANCH  14  15
ATOM     15  CB  GLU D 570     -19.500  -6.345 -13.794  1.00 32.92     0.043 C 
BRANCH  15  16
ATOM     16  CG  GLU D 570     -20.442  -5.529 -12.984  1.00 32.92     0.100 C 
BRANCH  16  17
ATOM     17  CD  GLU D 570     -21.640  -5.057 -13.773  1.00 32.92     0.185 C 
ATOM     18  OE1 GLU D 570     -22.369  -4.168 -13.292  1.00 32.92    -0.647 OA
ATOM     19  OE2 GLU D 570     -21.863  -5.593 -14.876  1.00 32.92    -0.647 OA
ENDBRANCH  16  17
ENDBRANCH  15  16
ENDBRANCH  14  15
END_RES GLU D 570
ENDMDL
MODEL 9
REMARK VINA RESULT:      -5.9      2.290      5.875
REMARK  11 active torsions:
REMARK  status: ('A' for Active; 'I' for Inactive)
REMARK    1  A    between atoms: C_1  and  C_2 
REMARK    2  A    between atoms: C_1  and  O_17 
REMARK    3  A    between atoms: C_2  and  C_3 
REMARK    4  A    between atoms: C_2  and  O_16 
REMARK    5  A    between atoms: C_3  and  O_4 
REMARK    6  A    between atoms: O_4  and  C_5 
REMARK    7  A    between atoms: C_6  and  O_15 
REMARK    8  A    between atoms: C_7  and  C_11 
REMARK    9  A    between atoms: C_11  and  C_12 
REMARK   10  A    between atoms: C_11  and  O_14 
REMARK   11  A    between atoms: C_12  and  O_13 
ROOT
HETATM    1  C   UNL     1     -21.517  -5.473  -7.423  1.00  0.00     0.176 A 
HETATM    2  C   UNL     1     -21.148  -4.793  -8.512  1.00  0.00     0.115 A 
HETATM    3  C   UNL     1     -22.137  -3.757  -8.895  1.00  0.00     0.222 A 
HETATM    4  O   UNL     1     -23.132  -3.865  -7.870  1.00  0.00    -0.301 OA
HETATM    5  C   UNL     1     -22.816  -4.883  -7.017  1.00  0.00     0.320 A 
HETATM    6  O   UNL     1     -23.506  -5.222  -6.073  1.00  0.00    -0.257 OA
ENDROOT
BRANCH   1   7
HETATM    7  O   UNL     1     -20.787  -6.467  -6.817  1.00  0.00    -0.341 OA
BRANCH   7   8
HETATM    8  C   UNL     1     -20.261  -6.103  -5.529  1.00  0.00     0.209 C 
BRANCH   8   9
HETATM    9  C   UNL     1     -20.943  -6.905  -4.411  1.00  0.00     0.166 C 
BRANCH   9  10
HETATM   10  C   UNL     1     -21.544  -8.220  -4.927  1.00  0.00     0.198 C 
BRANCH  10  11
HETATM   11  O   UNL     1     -20.562  -9.031  -5.571  1.00  0.00    -0.398 OA
HETATM   12  H   UNL     1     -19.769  -9.055  -5.007  1.00  0.00     0.209 HD
ENDBRANCH  10  11
ENDBRANCH   9  10
BRANCH   9  13
HETATM   13  O   UNL     1     -21.949  -6.103  -3.784  1.00  0.00    -0.391 OA
HETATM   14  H   UNL     1     -22.775  -6.616  -3.791  1.00  0.00     0.210 HD
ENDBRANCH   9  13
ENDBRANCH   8   9
ENDBRANCH   7   8
ENDBRANCH   1   7
BRANCH   2  15
HETATM   15  O   UNL     1     -19.989  -4.945  -9.222  1.00  0.00    -0.359 OA
HETATM   16  H   UNL     1     -19.266  -5.114  -8.587  1.00  0.00     0.217 HD
ENDBRANCH   2  15
BRANCH   3  17
HETATM   17  C   UNL     1     -22.781  -3.975 -10.279  1.00  0.00     0.177 C 
BRANCH  17  18
HETATM   18  C   UNL     1     -24.296  -4.180 -10.158  1.00  0.00     0.198 C 
BRANCH  18  19
HETATM   19  O   UNL     1     -24.929  -2.927  -9.903  1.00  0.00    -0.398 OA
HETATM   20  H   UNL     1     -24.659  -2.674  -8.996  1.00  0.00     0.209 HD
ENDBRANCH  18  19
ENDBRANCH  17  18
BRANCH  17  21
HETATM   21  O   UNL     1     -22.585  -2.868 -11.177  1.00  0.00    -0.390 OA
HETATM   22  H   UNL     1     -21.849  -2.323 -10.845  1.00  0.00     0.210 HD
ENDBRANCH  17  21
ENDBRANCH   3  17
TORSDOF 11
BEGIN_RES ARG D 557
REMARK  4 active torsions:
REMARK  status: ('A' for Active; 'I' for Inactive)
REMARK    1  A    between atoms: CA   and  CB  
REMARK    2  A    between atoms: CB   and  CG  
REMARK    3  A    between atoms: CG   and  CD  
REMARK    4  A    between atoms: CD   and  NE  
REMARK       I    between atoms: NE   and  CZ  
REMARK       I    between atoms: CZ   and  NH1 
REMARK       I    between atoms: CZ   and  NH2 
ROOT
ATOM      1  CA  ARG D 557     -26.217   2.705 -17.014  1.00 35.49     0.159 C 
ENDROOT
BRANCH   1   2
ATOM      2  CB  ARG D 557     -26.789   1.319 -17.183  1.00 35.49     0.034 C 
BRANCH   2   3
ATOM      3  CG  ARG D 557     -25.857   0.196 -17.023  1.00 35.49     0.027 C 
BRANCH   3   4
ATOM      4  CD  ARG D 557     -26.236  -0.696 -15.903  1.00 35.49     0.116 C 
BRANCH   4   5
ATOM      5  NE  ARG D 557     -25.174  -0.839 -14.941  1.00 35.49    -0.212 N 
ATOM      6  CZ  ARG D 557     -24.799  -1.963 -14.373  1.00 35.49     0.666 C 
ATOM      7  NH1 ARG D 557     -25.390  -3.116 -14.625  1.00 35.49    -0.235 N 
ATOM      8  NH2 ARG D 557     -23.802  -1.910 -13.539  1.00 35.49    -0.235 N 
ATOM      9  HH  ARG D 557     -26.047  -3.175 -15.172  1.00 35.49     0.174 HD
ATOM     10  HH  ARG D 557     -25.101  -3.818 -14.226  1.00 35.49     0.174 HD
ATOM     11  HH  ARG D 557     -23.435  -1.153 -13.401  1.00 35.49     0.174 HD
ATOM     12  HH  ARG D 557     -23.529  -2.615 -13.155  1.00 35.49     0.174 HD
ATOM     13  HE  ARG D 557     -24.787  -0.134 -14.666  1.00 35.49     0.178 HD
ENDBRANCH   4   5
ENDBRANCH   3   4
ENDBRANCH   2   3
ENDBRANCH   1   2
END_RES ARG D 557
BEGIN_RES GLU D 570
REMARK  3 active torsions:
REMARK  status: ('A' for Active; 'I' for Inactive)
REMARK    5  A    between atoms: CA   and  CB  
REMARK    6  A    between atoms: CB   and  CG  
REMARK    7  A    between atoms: CG   and  CD  
ROOT
ATOM     14  CA  GLU D 570     -18.033  -6.348 -13.375  1.00 32.92     0.160 C 
ENDROOT
BRANCH  14  15
ATOM     15  CB  GLU D 570     -19.500  -6.345 -13.794  1.00 32.92     0.043 C 
BRANCH  15  16
ATOM     16  CG  GLU D 570     -20.411  -5.405 -13.091  1.00 32.92     0.100 C 
BRANCH  16  17
ATOM     17  CD  GLU D 570     -21.586  -4.978 -13.939  1.00 32.92     0.185 C 
ATOM     18  OE1 GLU D 570     -21.447  -4.909 -15.175  1.00 32.92    -0.647 OA
ATOM     19  OE2 GLU D 570     -22.653  -4.695 -13.359  1.00 32.92    -0.647 OA
ENDBRANCH  16  17
ENDBRANCH  15  16
ENDBRANCH  14  15
END_RES GLU D 570
ENDMDL
