MODEL 1
REMARK VINA RESULT:      -7.6      0.000      0.000
REMARK WARNING: 32 MAX_TORS EXCEEDED!!!
REMARK  36 active torsions:
REMARK  status: ('A' for Active; 'I' for Inactive)
REMARK    1  A    between atoms: C_2  and  C_5 
REMARK    2  A    between atoms: C_7  and  C_16 
REMARK    3  A    between atoms: C_9  and  C_12 
REMARK    4  A    between atoms: C_10  and  O_11 
REMARK    5  A    between atoms: C_16  and  C_17 
REMARK    6  A    between atoms: C_17  and  C_18 
REMARK    7  A    between atoms: C_18  and  O_20 
REMARK    8  A    between atoms: O_20  and  C_21 
REMARK    9  A    between atoms: C_21  and  C_22 
REMARK   10  A    between atoms: C_22  and  C_23 
REMARK   11  A    between atoms: C_22  and  C_44 
REMARK   12  A    between atoms: C_22  and  C_65 
REMARK   13  A    between atoms: C_23  and  O_24 
REMARK   14  A    between atoms: O_24  and  C_25 
REMARK   15  A    between atoms: C_25  and  C_27 
REMARK   16  A    between atoms: C_27  and  C_28 
REMARK   17  A    between atoms: C_28  and  C_29 
REMARK   18  A    between atoms: C_31  and  C_40 
REMARK   19  A    between atoms: C_32  and  O_39 
REMARK   20  A    between atoms: C_33  and  C_35 
REMARK   21  A    between atoms: C_44  and  O_45 
REMARK   22  A    between atoms: O_45  and  C_46 
REMARK   23  A    between atoms: C_46  and  C_48 
REMARK   24  A    between atoms: C_48  and  C_49 
REMARK   25  A    between atoms: C_49  and  C_50 
REMARK   26  A    between atoms: C_52  and  C_61 
REMARK   27  A    between atoms: C_53  and  O_60 
REMARK   28  A    between atoms: C_54  and  C_56 
REMARK   29  A    between atoms: C_65  and  O_66 
REMARK   30  A    between atoms: O_66  and  C_67 
REMARK   31  A    between atoms: C_67  and  C_69 
REMARK   32  A    between atoms: C_69  and  C_70 
REMARK   33  A    between atoms: C_70  and  C_71 
REMARK   34  A    between atoms: C_73  and  C_82 
REMARK   35  A    between atoms: C_74  and  O_81 
REMARK   36  A    between atoms: C_75  and  C_77 
ROOT
HETATM    1  C   UNL     1     -19.918  -9.797  -2.918  1.00  0.00     0.048 C 
ENDROOT
BRANCH   1   2
HETATM    2  C   UNL     1     -20.068 -11.345  -3.176  1.00  0.00     0.195 C 
BRANCH   2   3
HETATM    3  O   UNL     1     -20.860 -12.119  -2.252  1.00  0.00    -0.320 OA
BRANCH   3   4
HETATM    4  C   UNL     1     -20.221 -12.887  -1.314  1.00  0.00     0.259 C 
HETATM    5  O   UNL     1     -19.654 -12.456  -0.315  1.00  0.00    -0.265 OA
BRANCH   4   6
HETATM    6  C   UNL     1     -20.202 -14.364  -1.653  1.00  0.00     0.116 C 
BRANCH   6   7
HETATM    7  C   UNL     1     -18.808 -14.898  -1.850  1.00  0.00     0.048 C 
BRANCH   7   8
HETATM    8  C   UNL     1     -18.298 -14.681  -3.257  1.00  0.00    -0.056 C 
HETATM    9  C   UNL     1     -19.387 -14.499  -4.714  1.00  0.00     0.018 C 
HETATM   10  C   UNL     1     -18.644 -13.829  -6.299  1.00  0.00    -0.016 C 
HETATM   11  C   UNL     1     -16.891 -13.363  -6.284  1.00  0.00     0.079 C 
HETATM   12  C   UNL     1     -15.906 -13.462  -4.766  1.00  0.00    -0.016 C 
HETATM   13  C   UNL     1     -16.596 -14.208  -3.312  1.00  0.00     0.018 C 
BRANCH  10  14
HETATM   14  C   UNL     1     -19.338 -14.055  -7.606  1.00  0.00    -0.021 C 
HETATM   15  C   UNL     1     -18.845 -15.380  -8.215  1.00  0.00     0.019 C 
HETATM   16  C   UNL     1     -19.172 -12.820  -8.531  1.00  0.00     0.019 C 
HETATM   17  C   UNL     1     -20.809 -14.188  -7.243  1.00  0.00     0.019 C 
ENDBRANCH  10  14
BRANCH  11  18
HETATM   18  O   UNL     1     -16.234 -13.193  -7.467  1.00  0.00    -0.360 OA
HETATM   19  H   UNL     1     -16.742 -12.494  -7.923  1.00  0.00     0.217 HD
ENDBRANCH  11  18
BRANCH  12  20
HETATM   20  C   UNL     1     -14.440 -13.040  -4.680  1.00  0.00    -0.021 C 
HETATM   21  C   UNL     1     -13.676 -14.106  -5.483  1.00  0.00     0.019 C 
HETATM   22  C   UNL     1     -14.391 -11.575  -5.130  1.00  0.00     0.019 C 
HETATM   23  C   UNL     1     -13.772 -13.054  -3.280  1.00  0.00     0.019 C 
ENDBRANCH  12  20
ENDBRANCH   7   8
ENDBRANCH   6   7
ENDBRANCH   4   6
ENDBRANCH   3   4
ENDBRANCH   2   3
ENDBRANCH   1   2
BRANCH   1  24
HETATM   24  C   UNL     1     -20.737  -9.263  -1.768  1.00  0.00     0.195 C 
BRANCH  24  25
HETATM   25  O   UNL     1     -21.969  -9.842  -1.673  1.00  0.00    -0.320 OA
BRANCH  25  26
HETATM   26  C   UNL     1     -22.646  -9.517  -0.532  1.00  0.00     0.259 C 
HETATM   27  O   UNL     1     -23.088  -8.442  -0.165  1.00  0.00    -0.265 OA
BRANCH  26  28
HETATM   28  C   UNL     1     -22.953 -10.820   0.064  1.00  0.00     0.116 C 
BRANCH  28  29
HETATM   29  C   UNL     1     -23.989 -11.424  -0.876  1.00  0.00     0.048 C 
BRANCH  29  30
HETATM   30  C   UNL     1     -23.879 -12.879  -0.818  1.00  0.00    -0.056 A 
HETATM   31  C   UNL     1     -23.797 -13.521   0.408  1.00  0.00     0.018 A 
HETATM   32  C   UNL     1     -23.703 -14.905   0.482  1.00  0.00    -0.016 A 
HETATM   33  C   UNL     1     -23.649 -15.584  -0.770  1.00  0.00     0.079 A 
HETATM   34  C   UNL     1     -23.650 -14.920  -2.029  1.00  0.00    -0.016 A 
HETATM   35  C   UNL     1     -23.806 -13.550  -2.012  1.00  0.00     0.018 A 
BRANCH  32  36
HETATM   36  C   UNL     1     -23.710 -15.561   1.882  1.00  0.00    -0.021 C 
HETATM   37  C   UNL     1     -23.750 -14.534   3.058  1.00  0.00     0.019 C 
HETATM   38  C   UNL     1     -24.968 -16.437   2.045  1.00  0.00     0.019 C 
HETATM   39  C   UNL     1     -22.431 -16.388   2.125  1.00  0.00     0.019 C 
ENDBRANCH  32  36
BRANCH  33  40
HETATM   40  O   UNL     1     -23.647 -16.945  -0.828  1.00  0.00    -0.360 OA
HETATM   41  H   UNL     1     -24.548 -17.271  -0.910  1.00  0.00     0.217 HD
ENDBRANCH  33  40
BRANCH  34  42
HETATM   42  C   UNL     1     -23.572 -15.579  -3.415  1.00  0.00    -0.021 C 
HETATM   43  C   UNL     1     -24.942 -16.220  -3.696  1.00  0.00     0.019 C 
HETATM   44  C   UNL     1     -23.268 -14.542  -4.539  1.00  0.00     0.019 C 
HETATM   45  C   UNL     1     -22.465 -16.637  -3.540  1.00  0.00     0.019 C 
ENDBRANCH  34  42
ENDBRANCH  29  30
ENDBRANCH  28  29
ENDBRANCH  26  28
ENDBRANCH  25  26
ENDBRANCH  24  25
ENDBRANCH   1  24
BRANCH   1  46
HETATM   46  C   UNL     1     -18.460  -9.311  -2.835  1.00  0.00     0.195 C 
BRANCH  46  47
HETATM   47  O   UNL     1     -17.570 -10.384  -3.187  1.00  0.00    -0.320 OA
BRANCH  47  48
HETATM   48  C   UNL     1     -16.514 -10.556  -2.347  1.00  0.00     0.259 C 
HETATM   49  O   UNL     1     -15.582  -9.766  -2.257  1.00  0.00    -0.265 OA
BRANCH  48  50
HETATM   50  C   UNL     1     -16.784 -11.650  -1.341  1.00  0.00     0.116 C 
BRANCH  50  51
HETATM   51  C   UNL     1     -15.818 -11.622  -0.168  1.00  0.00     0.048 C 
BRANCH  51  52
HETATM   52  C   UNL     1     -15.582 -12.987   0.429  1.00  0.00    -0.056 A 
HETATM   53  C   UNL     1     -16.640 -13.808   0.843  1.00  0.00     0.018 A 
HETATM   54  C   UNL     1     -16.437 -15.103   1.372  1.00  0.00    -0.016 A 
HETATM   55  C   UNL     1     -15.085 -15.538   1.447  1.00  0.00     0.079 A 
HETATM   56  C   UNL     1     -13.994 -14.762   0.966  1.00  0.00    -0.016 A 
HETATM   57  C   UNL     1     -14.280 -13.470   0.506  1.00  0.00     0.018 A 
BRANCH  54  58
HETATM   58  C   UNL     1     -17.668 -15.981   1.741  1.00  0.00    -0.021 C 
HETATM   59  C   UNL     1     -17.563 -16.616   3.158  1.00  0.00     0.019 C 
HETATM   60  C   UNL     1     -18.945 -15.108   1.761  1.00  0.00     0.019 C 
HETATM   61  C   UNL     1     -17.874 -17.183   0.787  1.00  0.00     0.019 C 
ENDBRANCH  54  58
BRANCH  55  62
HETATM   62  O   UNL     1     -14.740 -16.746   1.992  1.00  0.00    -0.360 OA
HETATM   63  H   UNL     1     -15.516 -17.214   2.311  1.00  0.00     0.217 HD
ENDBRANCH  55  62
BRANCH  56  64
HETATM   64  C   UNL     1     -12.544 -15.301   0.882  1.00  0.00    -0.021 C 
HETATM   65  C   UNL     1     -11.598 -14.255   0.242  1.00  0.00     0.019 C 
HETATM   66  C   UNL     1     -11.918 -15.609   2.271  1.00  0.00     0.019 C 
HETATM   67  C   UNL     1     -12.504 -16.621   0.085  1.00  0.00     0.019 C 
ENDBRANCH  56  64
ENDBRANCH  51  52
ENDBRANCH  50  51
ENDBRANCH  48  50
ENDBRANCH  47  48
ENDBRANCH  46  47
ENDBRANCH   1  46
BRANCH   1  68
HETATM   68  C   UNL     1     -20.512  -9.088  -4.074  1.00  0.00     0.195 C 
BRANCH  68  69
HETATM   69  O   UNL     1     -21.044  -7.809  -3.602  1.00  0.00    -0.320 OA
BRANCH  69  70
HETATM   70  C   UNL     1     -21.895  -6.615  -3.514  1.00  0.00     0.259 C 
HETATM   71  O   UNL     1     -21.309  -5.786  -2.801  1.00  0.00    -0.265 OA
BRANCH  70  72
HETATM   72  C   UNL     1     -23.569  -6.446  -4.887  1.00  0.00     0.116 C 
BRANCH  72  73
HETATM   73  C   UNL     1     -23.998  -5.166  -5.975  1.00  0.00     0.048 C 
BRANCH  73  74
HETATM   74  C   UNL     1     -23.024  -4.917  -7.017  1.00  0.00    -0.056 A 
HETATM   75  C   UNL     1     -21.695  -5.012  -6.749  1.00  0.00     0.018 A 
HETATM   76  C   UNL     1     -20.759  -4.637  -7.666  1.00  0.00    -0.016 A 
HETATM   77  C   UNL     1     -21.263  -4.253  -8.939  1.00  0.00     0.079 A 
HETATM   78  C   UNL     1     -22.654  -4.154  -9.230  1.00  0.00    -0.016 A 
HETATM   79  C   UNL     1     -23.516  -4.508  -8.225  1.00  0.00     0.018 A 
BRANCH  76  80
HETATM   80  C   UNL     1     -19.316  -4.806  -7.180  1.00  0.00    -0.021 C 
HETATM   81  C   UNL     1     -18.281  -3.800  -7.798  1.00  0.00     0.019 C 
HETATM   82  C   UNL     1     -19.338  -4.495  -5.683  1.00  0.00     0.019 C 
HETATM   83  C   UNL     1     -18.761  -6.182  -7.560  1.00  0.00     0.019 C 
ENDBRANCH  76  80
BRANCH  77  84
HETATM   84  O   UNL     1     -20.399  -4.040  -9.972  1.00  0.00    -0.360 OA
HETATM   85  H   UNL     1     -19.558  -3.732  -9.613  1.00  0.00     0.217 HD
ENDBRANCH  77  84
BRANCH  78  86
HETATM   86  C   UNL     1     -23.352  -3.840 -10.555  1.00  0.00    -0.021 C 
HETATM   87  C   UNL     1     -24.725  -3.246 -10.174  1.00  0.00     0.019 C 
HETATM   88  C   UNL     1     -22.583  -2.782 -11.419  1.00  0.00     0.019 C 
HETATM   89  C   UNL     1     -23.503  -5.070 -11.443  1.00  0.00     0.019 C 
ENDBRANCH  78  86
ENDBRANCH  73  74
ENDBRANCH  72  73
ENDBRANCH  70  72
ENDBRANCH  69  70
ENDBRANCH  68  69
ENDBRANCH   1  68
TORSDOF 36
BEGIN_RES ARG D 557
REMARK  4 active torsions:
REMARK  status: ('A' for Active; 'I' for Inactive)
REMARK    1  A    between atoms: CA   and  CB  
REMARK    2  A    between atoms: CB   and  CG  
REMARK    3  A    between atoms: CG   and  CD  
REMARK    4  A    between atoms: CD   and  NE  
REMARK       I    between atoms: NE   and  CZ  
REMARK       I    between atoms: CZ   and  NH1 
REMARK       I    between atoms: CZ   and  NH2 
ROOT
ATOM      1  CA  ARG D 557     -26.217   2.705 -17.014  1.00 35.49     0.159 C 
ENDROOT
BRANCH   1   2
ATOM      2  CB  ARG D 557     -26.789   1.319 -17.183  1.00 35.49     0.034 C 
BRANCH   2   3
ATOM      3  CG  ARG D 557     -28.251   1.196 -17.125  1.00 35.49     0.027 C 
BRANCH   3   4
ATOM      4  CD  ARG D 557     -28.688   0.046 -16.302  1.00 35.49     0.116 C 
BRANCH   4   5
ATOM      5  NE  ARG D 557     -29.326  -0.975 -17.090  1.00 35.49    -0.212 N 
ATOM      6  CZ  ARG D 557     -28.971  -2.239 -17.143  1.00 35.49     0.666 C 
ATOM      7  NH1 ARG D 557     -27.945  -2.716 -16.464  1.00 35.49    -0.235 N 
ATOM      8  NH2 ARG D 557     -29.678  -3.030 -17.897  1.00 35.49    -0.235 N 
ATOM      9  HH  ARG D 557     -27.467  -2.214 -15.960  1.00 35.49     0.174 HD
ATOM     10  HH  ARG D 557     -27.761  -3.550 -16.535  1.00 35.49     0.174 HD
ATOM     11  HH  ARG D 557     -30.339  -2.696 -18.319  1.00 35.49     0.174 HD
ATOM     12  HH  ARG D 557     -29.481  -3.853 -17.954  1.00 35.49     0.174 HD
ATOM     13  HE  ARG D 557     -29.952  -0.740 -17.616  1.00 35.49     0.178 HD
ENDBRANCH   4   5
ENDBRANCH   3   4
ENDBRANCH   2   3
ENDBRANCH   1   2
END_RES ARG D 557
BEGIN_RES GLU D 570
REMARK  3 active torsions:
REMARK  status: ('A' for Active; 'I' for Inactive)
REMARK    5  A    between atoms: CA   and  CB  
REMARK    6  A    between atoms: CB   and  CG  
REMARK    7  A    between atoms: CG   and  CD  
ROOT
ATOM     14  CA  GLU D 570     -18.033  -6.348 -13.375  1.00 32.92     0.160 C 
ENDROOT
BRANCH  14  15
ATOM     15  CB  GLU D 570     -19.500  -6.345 -13.794  1.00 32.92     0.043 C 
BRANCH  15  16
ATOM     16  CG  GLU D 570     -20.077  -7.627 -14.276  1.00 32.92     0.100 C 
BRANCH  16  17
ATOM     17  CD  GLU D 570     -21.169  -7.432 -15.302  1.00 32.92     0.185 C 
ATOM     18  OE1 GLU D 570     -21.198  -8.174 -16.303  1.00 32.92    -0.647 OA
ATOM     19  OE2 GLU D 570     -21.995  -6.518 -15.111  1.00 32.92    -0.647 OA
ENDBRANCH  16  17
ENDBRANCH  15  16
ENDBRANCH  14  15
END_RES GLU D 570
ENDMDL
MODEL 2
REMARK VINA RESULT:      -7.5      0.588      2.848
REMARK WARNING: 32 MAX_TORS EXCEEDED!!!
REMARK  36 active torsions:
REMARK  status: ('A' for Active; 'I' for Inactive)
REMARK    1  A    between atoms: C_2  and  C_5 
REMARK    2  A    between atoms: C_7  and  C_16 
REMARK    3  A    between atoms: C_9  and  C_12 
REMARK    4  A    between atoms: C_10  and  O_11 
REMARK    5  A    between atoms: C_16  and  C_17 
REMARK    6  A    between atoms: C_17  and  C_18 
REMARK    7  A    between atoms: C_18  and  O_20 
REMARK    8  A    between atoms: O_20  and  C_21 
REMARK    9  A    between atoms: C_21  and  C_22 
REMARK   10  A    between atoms: C_22  and  C_23 
REMARK   11  A    between atoms: C_22  and  C_44 
REMARK   12  A    between atoms: C_22  and  C_65 
REMARK   13  A    between atoms: C_23  and  O_24 
REMARK   14  A    between atoms: O_24  and  C_25 
REMARK   15  A    between atoms: C_25  and  C_27 
REMARK   16  A    between atoms: C_27  and  C_28 
REMARK   17  A    between atoms: C_28  and  C_29 
REMARK   18  A    between atoms: C_31  and  C_40 
REMARK   19  A    between atoms: C_32  and  O_39 
REMARK   20  A    between atoms: C_33  and  C_35 
REMARK   21  A    between atoms: C_44  and  O_45 
REMARK   22  A    between atoms: O_45  and  C_46 
REMARK   23  A    between atoms: C_46  and  C_48 
REMARK   24  A    between atoms: C_48  and  C_49 
REMARK   25  A    between atoms: C_49  and  C_50 
REMARK   26  A    between atoms: C_52  and  C_61 
REMARK   27  A    between atoms: C_53  and  O_60 
REMARK   28  A    between atoms: C_54  and  C_56 
REMARK   29  A    between atoms: C_65  and  O_66 
REMARK   30  A    between atoms: O_66  and  C_67 
REMARK   31  A    between atoms: C_67  and  C_69 
REMARK   32  A    between atoms: C_69  and  C_70 
REMARK   33  A    between atoms: C_70  and  C_71 
REMARK   34  A    between atoms: C_73  and  C_82 
REMARK   35  A    between atoms: C_74  and  O_81 
REMARK   36  A    between atoms: C_75  and  C_77 
ROOT
HETATM    1  C   UNL     1     -19.968  -9.744  -2.860  1.00  0.00     0.048 C 
ENDROOT
BRANCH   1   2
HETATM    2  C   UNL     1     -20.178 -11.283  -3.130  1.00  0.00     0.195 C 
BRANCH   2   3
HETATM    3  O   UNL     1     -20.907 -12.056  -2.155  1.00  0.00    -0.320 OA
BRANCH   3   4
HETATM    4  C   UNL     1     -20.210 -12.855  -1.287  1.00  0.00     0.259 C 
HETATM    5  O   UNL     1     -19.600 -12.459  -0.300  1.00  0.00    -0.265 OA
BRANCH   4   6
HETATM    6  C   UNL     1     -20.188 -14.315  -1.693  1.00  0.00     0.116 C 
BRANCH   6   7
HETATM    7  C   UNL     1     -18.792 -14.847  -1.875  1.00  0.00     0.048 C 
BRANCH   7   8
HETATM    8  C   UNL     1     -18.263 -14.622  -3.274  1.00  0.00    -0.056 C 
HETATM    9  C   UNL     1     -19.329 -14.277  -4.718  1.00  0.00     0.018 C 
HETATM   10  C   UNL     1     -18.525 -13.617  -6.277  1.00  0.00    -0.016 C 
HETATM   11  C   UNL     1     -16.735 -13.322  -6.250  1.00  0.00     0.079 C 
HETATM   12  C   UNL     1     -15.765 -13.577  -4.741  1.00  0.00    -0.016 C 
HETATM   13  C   UNL     1     -16.523 -14.313  -3.315  1.00  0.00     0.018 C 
BRANCH  10  14
HETATM   14  C   UNL     1     -19.237 -13.721  -7.590  1.00  0.00    -0.021 C 
HETATM   15  C   UNL     1     -19.058 -15.144  -8.147  1.00  0.00     0.019 C 
HETATM   16  C   UNL     1     -18.778 -12.591  -8.549  1.00  0.00     0.019 C 
HETATM   17  C   UNL     1     -20.703 -13.496  -7.252  1.00  0.00     0.019 C 
ENDBRANCH  10  14
BRANCH  11  18
HETATM   18  O   UNL     1     -16.064 -13.166  -7.426  1.00  0.00    -0.360 OA
HETATM   19  H   UNL     1     -16.735 -13.362  -8.110  1.00  0.00     0.217 HD
ENDBRANCH  11  18
BRANCH  12  20
HETATM   20  C   UNL     1     -14.265 -13.300  -4.642  1.00  0.00    -0.021 C 
HETATM   21  C   UNL     1     -13.994 -13.134  -3.137  1.00  0.00     0.019 C 
HETATM   22  C   UNL     1     -13.571 -14.429  -5.414  1.00  0.00     0.019 C 
HETATM   23  C   UNL     1     -13.735 -11.990  -5.280  1.00  0.00     0.019 C 
ENDBRANCH  12  20
ENDBRANCH   7   8
ENDBRANCH   6   7
ENDBRANCH   4   6
ENDBRANCH   3   4
ENDBRANCH   2   3
ENDBRANCH   1   2
BRANCH   1  24
HETATM   24  C   UNL     1     -20.814  -9.174  -1.747  1.00  0.00     0.195 C 
BRANCH  24  25
HETATM   25  O   UNL     1     -22.028  -9.784  -1.631  1.00  0.00    -0.320 OA
BRANCH  25  26
HETATM   26  C   UNL     1     -22.695  -9.474  -0.480  1.00  0.00     0.259 C 
HETATM   27  O   UNL     1     -23.132  -8.403  -0.094  1.00  0.00    -0.265 OA
BRANCH  26  28
HETATM   28  C   UNL     1     -22.998 -10.784   0.102  1.00  0.00     0.116 C 
BRANCH  28  29
HETATM   29  C   UNL     1     -24.030 -11.382  -0.848  1.00  0.00     0.048 C 
BRANCH  29  30
HETATM   30  C   UNL     1     -23.901 -12.836  -0.820  1.00  0.00    -0.056 A 
HETATM   31  C   UNL     1     -23.836 -13.505   0.393  1.00  0.00     0.018 A 
HETATM   32  C   UNL     1     -23.725 -14.889   0.438  1.00  0.00    -0.016 A 
HETATM   33  C   UNL     1     -23.634 -15.538  -0.828  1.00  0.00     0.079 A 
HETATM   34  C   UNL     1     -23.616 -14.846  -2.072  1.00  0.00    -0.016 A 
HETATM   35  C   UNL     1     -23.792 -13.479  -2.027  1.00  0.00     0.018 A 
BRANCH  32  36
HETATM   36  C   UNL     1     -23.753 -15.577   1.821  1.00  0.00    -0.021 C 
HETATM   37  C   UNL     1     -24.988 -16.511   2.034  1.00  0.00     0.019 C 
HETATM   38  C   UNL     1     -22.512 -16.476   1.987  1.00  0.00     0.019 C 
HETATM   39  C   UNL     1     -23.839 -14.545   2.965  1.00  0.00     0.019 C 
ENDBRANCH  32  36
BRANCH  33  40
HETATM   40  O   UNL     1     -23.612 -16.898  -0.917  1.00  0.00    -0.360 OA
HETATM   41  H   UNL     1     -24.396 -17.266  -0.501  1.00  0.00     0.217 HD
ENDBRANCH  33  40
BRANCH  34  42
HETATM   42  C   UNL     1     -23.499 -15.472  -3.470  1.00  0.00    -0.021 C 
HETATM   43  C   UNL     1     -24.864 -16.095  -3.810  1.00  0.00     0.019 C 
HETATM   44  C   UNL     1     -23.151 -14.411  -4.558  1.00  0.00     0.019 C 
HETATM   45  C   UNL     1     -22.396 -16.535  -3.586  1.00  0.00     0.019 C 
ENDBRANCH  34  42
ENDBRANCH  29  30
ENDBRANCH  28  29
ENDBRANCH  26  28
ENDBRANCH  25  26
ENDBRANCH  24  25
ENDBRANCH   1  24
BRANCH   1  46
HETATM   46  C   UNL     1     -18.495  -9.326  -2.710  1.00  0.00     0.195 C 
BRANCH  46  47
HETATM   47  O   UNL     1     -17.640 -10.422  -3.075  1.00  0.00    -0.320 OA
BRANCH  47  48
HETATM   48  C   UNL     1     -16.566 -10.611  -2.260  1.00  0.00     0.259 C 
HETATM   49  O   UNL     1     -15.587  -9.876  -2.244  1.00  0.00    -0.265 OA
BRANCH  48  50
HETATM   50  C   UNL     1     -16.865 -11.631  -1.186  1.00  0.00     0.116 C 
BRANCH  50  51
HETATM   51  C   UNL     1     -15.787 -11.690  -0.116  1.00  0.00     0.048 C 
BRANCH  51  52
HETATM   52  C   UNL     1     -15.519 -13.094   0.368  1.00  0.00    -0.056 A 
HETATM   53  C   UNL     1     -14.217 -13.571   0.571  1.00  0.00     0.018 A 
HETATM   54  C   UNL     1     -13.950 -14.872   1.057  1.00  0.00    -0.016 A 
HETATM   55  C   UNL     1     -15.089 -15.672   1.348  1.00  0.00     0.079 A 
HETATM   56  C   UNL     1     -16.423 -15.193   1.228  1.00  0.00    -0.016 A 
HETATM   57  C   UNL     1     -16.598 -13.912   0.688  1.00  0.00     0.018 A 
BRANCH  54  58
HETATM   58  C   UNL     1     -12.478 -15.302   1.324  1.00  0.00    -0.021 C 
HETATM   59  C   UNL     1     -12.240 -15.797   2.780  1.00  0.00     0.019 C 
HETATM   60  C   UNL     1     -12.104 -16.489   0.405  1.00  0.00     0.019 C 
HETATM   61  C   UNL     1     -11.458 -14.152   1.130  1.00  0.00     0.019 C 
ENDBRANCH  54  58
BRANCH  55  62
HETATM   62  O   UNL     1     -14.976 -16.970   1.770  1.00  0.00    -0.360 OA
HETATM   63  H   UNL     1     -15.423 -17.568   1.166  1.00  0.00     0.217 HD
ENDBRANCH  55  62
BRANCH  56  64
HETATM   64  C   UNL     1     -17.657 -15.995   1.710  1.00  0.00    -0.021 C 
HETATM   65  C   UNL     1     -17.461 -16.499   3.160  1.00  0.00     0.019 C 
HETATM   66  C   UNL     1     -18.963 -15.152   1.753  1.00  0.00     0.019 C 
HETATM   67  C   UNL     1     -17.936 -17.179   0.762  1.00  0.00     0.019 C 
ENDBRANCH  56  64
ENDBRANCH  51  52
ENDBRANCH  50  51
ENDBRANCH  48  50
ENDBRANCH  47  48
ENDBRANCH  46  47
ENDBRANCH   1  46
BRANCH   1  68
HETATM   68  C   UNL     1     -20.476  -9.007  -4.040  1.00  0.00     0.195 C 
BRANCH  68  69
HETATM   69  O   UNL     1     -21.100  -7.769  -3.572  1.00  0.00    -0.320 OA
BRANCH  69  70
HETATM   70  C   UNL     1     -21.968  -6.585  -3.544  1.00  0.00     0.259 C 
HETATM   71  O   UNL     1     -21.418  -5.730  -2.833  1.00  0.00    -0.265 OA
BRANCH  70  72
HETATM   72  C   UNL     1     -23.595  -6.472  -4.979  1.00  0.00     0.116 C 
BRANCH  72  73
HETATM   73  C   UNL     1     -24.096  -5.164  -6.002  1.00  0.00     0.048 C 
BRANCH  73  74
HETATM   74  C   UNL     1     -23.142  -4.816  -7.034  1.00  0.00    -0.056 A 
HETATM   75  C   UNL     1     -23.573  -4.434  -8.264  1.00  0.00     0.018 A 
HETATM   76  C   UNL     1     -22.699  -4.248  -9.295  1.00  0.00    -0.016 A 
HETATM   77  C   UNL     1     -21.322  -4.373  -8.964  1.00  0.00     0.079 A 
HETATM   78  C   UNL     1     -20.861  -4.769  -7.676  1.00  0.00    -0.016 A 
HETATM   79  C   UNL     1     -21.821  -4.978  -6.720  1.00  0.00     0.018 A 
BRANCH  76  80
HETATM   80  C   UNL     1     -23.372  -3.829 -10.606  1.00  0.00    -0.021 C 
HETATM   81  C   UNL     1     -22.614  -2.719 -11.419  1.00  0.00     0.019 C 
HETATM   82  C   UNL     1     -23.355  -5.068 -11.502  1.00  0.00     0.019 C 
HETATM   83  C   UNL     1     -24.752  -3.218 -10.349  1.00  0.00     0.019 C 
ENDBRANCH  76  80
BRANCH  77  84
HETATM   84  O   UNL     1     -20.373  -4.027  -9.880  1.00  0.00    -0.360 OA
HETATM   85  H   UNL     1     -20.218  -3.077  -9.821  1.00  0.00     0.217 HD
ENDBRANCH  77  84
BRANCH  78  86
HETATM   86  C   UNL     1     -19.431  -4.870  -7.141  1.00  0.00    -0.021 C 
HETATM   87  C   UNL     1     -19.524  -4.550  -5.634  1.00  0.00     0.019 C 
HETATM   88  C   UNL     1     -18.814  -6.301  -7.301  1.00  0.00     0.019 C 
HETATM   89  C   UNL     1     -18.472  -3.922  -7.855  1.00  0.00     0.019 C 
ENDBRANCH  78  86
ENDBRANCH  73  74
ENDBRANCH  72  73
ENDBRANCH  70  72
ENDBRANCH  69  70
ENDBRANCH  68  69
ENDBRANCH   1  68
TORSDOF 36
BEGIN_RES ARG D 557
REMARK  4 active torsions:
REMARK  status: ('A' for Active; 'I' for Inactive)
REMARK    1  A    between atoms: CA   and  CB  
REMARK    2  A    between atoms: CB   and  CG  
REMARK    3  A    between atoms: CG   and  CD  
REMARK    4  A    between atoms: CD   and  NE  
REMARK       I    between atoms: NE   and  CZ  
REMARK       I    between atoms: CZ   and  NH1 
REMARK       I    between atoms: CZ   and  NH2 
ROOT
ATOM      1  CA  ARG D 557     -26.217   2.705 -17.014  1.00 35.49     0.159 C 
ENDROOT
BRANCH   1   2
ATOM      2  CB  ARG D 557     -26.789   1.319 -17.183  1.00 35.49     0.034 C 
BRANCH   2   3
ATOM      3  CG  ARG D 557     -28.207   1.144 -16.847  1.00 35.49     0.027 C 
BRANCH   3   4
ATOM      4  CD  ARG D 557     -28.545  -0.264 -16.539  1.00 35.49     0.116 C 
BRANCH   4   5
ATOM      5  NE  ARG D 557     -27.471  -0.944 -15.863  1.00 35.49    -0.212 N 
ATOM      6  CZ  ARG D 557     -27.215  -2.231 -15.927  1.00 35.49     0.666 C 
ATOM      7  NH1 ARG D 557     -27.953  -3.066 -16.635  1.00 35.49    -0.235 N 
ATOM      8  NH2 ARG D 557     -26.186  -2.673 -15.265  1.00 35.49    -0.235 N 
ATOM      9  HH  ARG D 557     -28.634  -2.797 -17.081  1.00 35.49     0.174 HD
ATOM     10  HH  ARG D 557     -27.737  -3.895 -16.642  1.00 35.49     0.174 HD
ATOM     11  HH  ARG D 557     -25.723  -2.109 -14.822  1.00 35.49     0.174 HD
ATOM     12  HH  ARG D 557     -25.987  -3.497 -15.285  1.00 35.49     0.174 HD
ATOM     13  HE  ARG D 557     -26.989  -0.493 -15.326  1.00 35.49     0.178 HD
ENDBRANCH   4   5
ENDBRANCH   3   4
ENDBRANCH   2   3
ENDBRANCH   1   2
END_RES ARG D 557
BEGIN_RES GLU D 570
REMARK  3 active torsions:
REMARK  status: ('A' for Active; 'I' for Inactive)
REMARK    5  A    between atoms: CA   and  CB  
REMARK    6  A    between atoms: CB   and  CG  
REMARK    7  A    between atoms: CG   and  CD  
ROOT
ATOM     14  CA  GLU D 570     -18.033  -6.348 -13.375  1.00 32.92     0.160 C 
ENDROOT
BRANCH  14  15
ATOM     15  CB  GLU D 570     -19.500  -6.345 -13.794  1.00 32.92     0.043 C 
BRANCH  15  16
ATOM     16  CG  GLU D 570     -19.801  -6.111 -15.230  1.00 32.92     0.100 C 
BRANCH  16  17
ATOM     17  CD  GLU D 570     -21.272  -5.889 -15.495  1.00 32.92     0.185 C 
ATOM     18  OE1 GLU D 570     -21.636  -5.544 -16.635  1.00 32.92    -0.647 OA
ATOM     19  OE2 GLU D 570     -22.067  -6.046 -14.547  1.00 32.92    -0.647 OA
ENDBRANCH  16  17
ENDBRANCH  15  16
ENDBRANCH  14  15
END_RES GLU D 570
ENDMDL
MODEL 3
REMARK VINA RESULT:      -7.4      0.352      3.335
REMARK WARNING: 32 MAX_TORS EXCEEDED!!!
REMARK  36 active torsions:
REMARK  status: ('A' for Active; 'I' for Inactive)
REMARK    1  A    between atoms: C_2  and  C_5 
REMARK    2  A    between atoms: C_7  and  C_16 
REMARK    3  A    between atoms: C_9  and  C_12 
REMARK    4  A    between atoms: C_10  and  O_11 
REMARK    5  A    between atoms: C_16  and  C_17 
REMARK    6  A    between atoms: C_17  and  C_18 
REMARK    7  A    between atoms: C_18  and  O_20 
REMARK    8  A    between atoms: O_20  and  C_21 
REMARK    9  A    between atoms: C_21  and  C_22 
REMARK   10  A    between atoms: C_22  and  C_23 
REMARK   11  A    between atoms: C_22  and  C_44 
REMARK   12  A    between atoms: C_22  and  C_65 
REMARK   13  A    between atoms: C_23  and  O_24 
REMARK   14  A    between atoms: O_24  and  C_25 
REMARK   15  A    between atoms: C_25  and  C_27 
REMARK   16  A    between atoms: C_27  and  C_28 
REMARK   17  A    between atoms: C_28  and  C_29 
REMARK   18  A    between atoms: C_31  and  C_40 
REMARK   19  A    between atoms: C_32  and  O_39 
REMARK   20  A    between atoms: C_33  and  C_35 
REMARK   21  A    between atoms: C_44  and  O_45 
REMARK   22  A    between atoms: O_45  and  C_46 
REMARK   23  A    between atoms: C_46  and  C_48 
REMARK   24  A    between atoms: C_48  and  C_49 
REMARK   25  A    between atoms: C_49  and  C_50 
REMARK   26  A    between atoms: C_52  and  C_61 
REMARK   27  A    between atoms: C_53  and  O_60 
REMARK   28  A    between atoms: C_54  and  C_56 
REMARK   29  A    between atoms: C_65  and  O_66 
REMARK   30  A    between atoms: O_66  and  C_67 
REMARK   31  A    between atoms: C_67  and  C_69 
REMARK   32  A    between atoms: C_69  and  C_70 
REMARK   33  A    between atoms: C_70  and  C_71 
REMARK   34  A    between atoms: C_73  and  C_82 
REMARK   35  A    between atoms: C_74  and  O_81 
REMARK   36  A    between atoms: C_75  and  C_77 
ROOT
HETATM    1  C   UNL     1     -19.975  -9.634  -2.954  1.00  0.00     0.048 C 
ENDROOT
BRANCH   1   2
HETATM    2  C   UNL     1     -20.221 -11.147  -3.323  1.00  0.00     0.195 C 
BRANCH   2   3
HETATM    3  O   UNL     1     -20.944 -11.971  -2.385  1.00  0.00    -0.320 OA
BRANCH   3   4
HETATM    4  C   UNL     1     -20.238 -12.746  -1.503  1.00  0.00     0.259 C 
HETATM    5  O   UNL     1     -19.572 -12.320  -0.565  1.00  0.00    -0.265 OA
BRANCH   4   6
HETATM    6  C   UNL     1     -20.284 -14.226  -1.828  1.00  0.00     0.116 C 
BRANCH   6   7
HETATM    7  C   UNL     1     -18.915 -14.820  -2.029  1.00  0.00     0.048 C 
BRANCH   7   8
HETATM    8  C   UNL     1     -18.377 -14.576  -3.422  1.00  0.00    -0.056 C 
HETATM    9  C   UNL     1     -19.437 -14.363  -4.895  1.00  0.00     0.018 C 
HETATM   10  C   UNL     1     -18.660 -13.663  -6.452  1.00  0.00    -0.016 C 
HETATM   11  C   UNL     1     -16.907 -13.202  -6.393  1.00  0.00     0.079 C 
HETATM   12  C   UNL     1     -15.953 -13.334  -4.859  1.00  0.00    -0.016 C 
HETATM   13  C   UNL     1     -16.673 -14.107  -3.433  1.00  0.00     0.018 C 
BRANCH  10  14
HETATM   14  C   UNL     1     -19.329 -13.861  -7.777  1.00  0.00    -0.021 C 
HETATM   15  C   UNL     1     -18.948 -15.245  -8.330  1.00  0.00     0.019 C 
HETATM   16  C   UNL     1     -19.012 -12.677  -8.729  1.00  0.00     0.019 C 
HETATM   17  C   UNL     1     -20.817 -13.838  -7.464  1.00  0.00     0.019 C 
ENDBRANCH  10  14
BRANCH  11  18
HETATM   18  O   UNL     1     -16.226 -13.009  -7.559  1.00  0.00    -0.360 OA
HETATM   19  H   UNL     1     -15.455 -13.604  -7.485  1.00  0.00     0.217 HD
ENDBRANCH  11  18
BRANCH  12  20
HETATM   20  C   UNL     1     -14.487 -12.916  -4.735  1.00  0.00    -0.021 C 
HETATM   21  C   UNL     1     -13.708 -13.981  -5.524  1.00  0.00     0.019 C 
HETATM   22  C   UNL     1     -14.423 -11.449  -5.177  1.00  0.00     0.019 C 
HETATM   23  C   UNL     1     -13.854 -12.939  -3.320  1.00  0.00     0.019 C 
ENDBRANCH  12  20
ENDBRANCH   7   8
ENDBRANCH   6   7
ENDBRANCH   4   6
ENDBRANCH   3   4
ENDBRANCH   2   3
ENDBRANCH   1   2
BRANCH   1  24
HETATM   24  C   UNL     1     -20.891  -9.083  -1.889  1.00  0.00     0.195 C 
BRANCH  24  25
HETATM   25  O   UNL     1     -21.930  -9.917  -1.592  1.00  0.00    -0.320 OA
BRANCH  25  26
HETATM   26  C   UNL     1     -22.650  -9.533  -0.497  1.00  0.00     0.259 C 
HETATM   27  O   UNL     1     -22.980  -8.418  -0.129  1.00  0.00    -0.265 OA
BRANCH  26  28
HETATM   28  C   UNL     1     -23.168 -10.799   0.030  1.00  0.00     0.116 C 
BRANCH  28  29
HETATM   29  C   UNL     1     -23.968 -11.383  -1.128  1.00  0.00     0.048 C 
BRANCH  29  30
HETATM   30  C   UNL     1     -23.850 -12.839  -1.087  1.00  0.00    -0.056 A 
HETATM   31  C   UNL     1     -23.872 -13.572  -2.264  1.00  0.00     0.018 A 
HETATM   32  C   UNL     1     -23.751 -14.955  -2.244  1.00  0.00    -0.016 A 
HETATM   33  C   UNL     1     -23.655 -15.543  -0.949  1.00  0.00     0.079 A 
HETATM   34  C   UNL     1     -23.716 -14.799   0.264  1.00  0.00    -0.016 A 
HETATM   35  C   UNL     1     -23.776 -13.427   0.151  1.00  0.00     0.018 A 
BRANCH  32  36
HETATM   36  C   UNL     1     -23.688 -15.700  -3.596  1.00  0.00    -0.021 C 
HETATM   37  C   UNL     1     -23.535 -14.753  -4.830  1.00  0.00     0.019 C 
HETATM   38  C   UNL     1     -22.461 -16.633  -3.627  1.00  0.00     0.019 C 
HETATM   39  C   UNL     1     -24.984 -16.491  -3.867  1.00  0.00     0.019 C 
ENDBRANCH  32  36
BRANCH  33  40
HETATM   40  O   UNL     1     -23.441 -16.881  -0.803  1.00  0.00    -0.360 OA
HETATM   41  H   UNL     1     -22.849 -17.040  -0.062  1.00  0.00     0.217 HD
ENDBRANCH  33  40
BRANCH  34  42
HETATM   42  C   UNL     1     -23.642 -15.363   1.691  1.00  0.00    -0.021 C 
HETATM   43  C   UNL     1     -23.706 -14.168   2.660  1.00  0.00     0.019 C 
HETATM   44  C   UNL     1     -24.832 -16.321   2.003  1.00  0.00     0.019 C 
HETATM   45  C   UNL     1     -22.380 -16.194   1.969  1.00  0.00     0.019 C 
ENDBRANCH  34  42
ENDBRANCH  29  30
ENDBRANCH  28  29
ENDBRANCH  26  28
ENDBRANCH  25  26
ENDBRANCH  24  25
ENDBRANCH   1  24
BRANCH   1  46
HETATM   46  C   UNL     1     -18.505  -9.289  -2.657  1.00  0.00     0.195 C 
BRANCH  46  47
HETATM   47  O   UNL     1     -17.662 -10.391  -3.036  1.00  0.00    -0.320 OA
BRANCH  47  48
HETATM   48  C   UNL     1     -16.557 -10.563  -2.261  1.00  0.00     0.259 C 
HETATM   49  O   UNL     1     -15.599  -9.800  -2.265  1.00  0.00    -0.265 OA
BRANCH  48  50
HETATM   50  C   UNL     1     -16.789 -11.609  -1.196  1.00  0.00     0.116 C 
BRANCH  50  51
HETATM   51  C   UNL     1     -15.634 -11.715  -0.215  1.00  0.00     0.048 C 
BRANCH  51  52
HETATM   52  C   UNL     1     -15.431 -13.118   0.302  1.00  0.00    -0.056 A 
HETATM   53  C   UNL     1     -14.156 -13.631   0.572  1.00  0.00     0.018 A 
HETATM   54  C   UNL     1     -13.951 -14.931   1.090  1.00  0.00    -0.016 A 
HETATM   55  C   UNL     1     -15.126 -15.692   1.340  1.00  0.00     0.079 A 
HETATM   56  C   UNL     1     -16.437 -15.175   1.150  1.00  0.00    -0.016 A 
HETATM   57  C   UNL     1     -16.548 -13.898   0.584  1.00  0.00     0.018 A 
BRANCH  54  58
HETATM   58  C   UNL     1     -12.506 -15.399   1.431  1.00  0.00    -0.021 C 
HETATM   59  C   UNL     1     -12.068 -16.660   0.630  1.00  0.00     0.019 C 
HETATM   60  C   UNL     1     -11.495 -14.288   1.062  1.00  0.00     0.019 C 
HETATM   61  C   UNL     1     -12.324 -15.797   2.917  1.00  0.00     0.019 C 
ENDBRANCH  54  58
BRANCH  55  62
HETATM   62  O   UNL     1     -15.072 -16.985   1.785  1.00  0.00    -0.360 OA
HETATM   63  H   UNL     1     -14.178 -17.222   2.048  1.00  0.00     0.217 HD
ENDBRANCH  55  62
BRANCH  56  64
HETATM   64  C   UNL     1     -17.717 -15.932   1.587  1.00  0.00    -0.021 C 
HETATM   65  C   UNL     1     -18.965 -15.022   1.481  1.00  0.00     0.019 C 
HETATM   66  C   UNL     1     -18.042 -17.162   0.693  1.00  0.00     0.019 C 
HETATM   67  C   UNL     1     -17.562 -16.468   3.024  1.00  0.00     0.019 C 
ENDBRANCH  56  64
ENDBRANCH  51  52
ENDBRANCH  50  51
ENDBRANCH  48  50
ENDBRANCH  47  48
ENDBRANCH  46  47
ENDBRANCH   1  46
BRANCH   1  68
HETATM   68  C   UNL     1     -20.348  -8.818  -4.132  1.00  0.00     0.195 C 
BRANCH  68  69
HETATM   69  O   UNL     1     -21.005  -7.601  -3.656  1.00  0.00    -0.320 OA
BRANCH  69  70
HETATM   70  C   UNL     1     -21.969  -6.497  -3.565  1.00  0.00     0.259 C 
HETATM   71  O   UNL     1     -21.492  -5.640  -2.806  1.00  0.00    -0.265 OA
BRANCH  70  72
HETATM   72  C   UNL     1     -23.602  -6.442  -4.997  1.00  0.00     0.116 C 
BRANCH  72  73
HETATM   73  C   UNL     1     -24.113  -5.172  -6.063  1.00  0.00     0.048 C 
BRANCH  73  74
HETATM   74  C   UNL     1     -23.140  -4.818  -7.076  1.00  0.00    -0.056 A 
HETATM   75  C   UNL     1     -23.549  -4.420  -8.308  1.00  0.00     0.018 A 
HETATM   76  C   UNL     1     -22.657  -4.228  -9.323  1.00  0.00    -0.016 A 
HETATM   77  C   UNL     1     -21.286  -4.363  -8.971  1.00  0.00     0.079 A 
HETATM   78  C   UNL     1     -20.849  -4.776  -7.680  1.00  0.00    -0.016 A 
HETATM   79  C   UNL     1     -21.826  -4.991  -6.743  1.00  0.00     0.018 A 
BRANCH  76  80
HETATM   80  C   UNL     1     -23.306  -3.790 -10.639  1.00  0.00    -0.021 C 
HETATM   81  C   UNL     1     -22.567  -2.628 -11.393  1.00  0.00     0.019 C 
HETATM   82  C   UNL     1     -23.217  -4.998 -11.574  1.00  0.00     0.019 C 
HETATM   83  C   UNL     1     -24.716  -3.238 -10.406  1.00  0.00     0.019 C 
ENDBRANCH  76  80
BRANCH  77  84
HETATM   84  O   UNL     1     -20.321  -4.012  -9.868  1.00  0.00    -0.360 OA
HETATM   85  H   UNL     1     -20.575  -4.337 -10.739  1.00  0.00     0.217 HD
ENDBRANCH  77  84
BRANCH  78  86
HETATM   86  C   UNL     1     -19.428  -4.890  -7.123  1.00  0.00    -0.021 C 
HETATM   87  C   UNL     1     -19.530  -4.500  -5.633  1.00  0.00     0.019 C 
HETATM   88  C   UNL     1     -18.848  -6.343  -7.211  1.00  0.00     0.019 C 
HETATM   89  C   UNL     1     -18.436  -4.002  -7.866  1.00  0.00     0.019 C 
ENDBRANCH  78  86
ENDBRANCH  73  74
ENDBRANCH  72  73
ENDBRANCH  70  72
ENDBRANCH  69  70
ENDBRANCH  68  69
ENDBRANCH   1  68
TORSDOF 36
BEGIN_RES ARG D 557
REMARK  4 active torsions:
REMARK  status: ('A' for Active; 'I' for Inactive)
REMARK    1  A    between atoms: CA   and  CB  
REMARK    2  A    between atoms: CB   and  CG  
REMARK    3  A    between atoms: CG   and  CD  
REMARK    4  A    between atoms: CD   and  NE  
REMARK       I    between atoms: NE   and  CZ  
REMARK       I    between atoms: CZ   and  NH1 
REMARK       I    between atoms: CZ   and  NH2 
ROOT
ATOM      1  CA  ARG D 557     -26.217   2.705 -17.014  1.00 35.49     0.159 C 
ENDROOT
BRANCH   1   2
ATOM      2  CB  ARG D 557     -26.789   1.319 -17.183  1.00 35.49     0.034 C 
BRANCH   2   3
ATOM      3  CG  ARG D 557     -28.111   1.073 -16.593  1.00 35.49     0.027 C 
BRANCH   3   4
ATOM      4  CD  ARG D 557     -28.828  -0.038 -17.259  1.00 35.49     0.116 C 
BRANCH   4   5
ATOM      5  NE  ARG D 557     -28.270  -1.322 -16.923  1.00 35.49    -0.212 N 
ATOM      6  CZ  ARG D 557     -28.860  -2.484 -17.093  1.00 35.49     0.666 C 
ATOM      7  NH1 ARG D 557     -30.076  -2.595 -17.594  1.00 35.49    -0.235 N 
ATOM      8  NH2 ARG D 557     -28.196  -3.550 -16.751  1.00 35.49    -0.235 N 
ATOM      9  HH  ARG D 557     -30.530  -1.907 -17.828  1.00 35.49     0.174 HD
ATOM     10  HH  ARG D 557     -30.409  -3.380 -17.684  1.00 35.49     0.174 HD
ATOM     11  HH  ARG D 557     -27.409  -3.448 -16.437  1.00 35.49     0.174 HD
ATOM     12  HH  ARG D 557     -28.542  -4.317 -16.849  1.00 35.49     0.174 HD
ATOM     13  HE  ARG D 557     -27.518  -1.339 -16.527  1.00 35.49     0.178 HD
ENDBRANCH   4   5
ENDBRANCH   3   4
ENDBRANCH   2   3
ENDBRANCH   1   2
END_RES ARG D 557
BEGIN_RES GLU D 570
REMARK  3 active torsions:
REMARK  status: ('A' for Active; 'I' for Inactive)
REMARK    5  A    between atoms: CA   and  CB  
REMARK    6  A    between atoms: CB   and  CG  
REMARK    7  A    between atoms: CG   and  CD  
ROOT
ATOM     14  CA  GLU D 570     -18.033  -6.348 -13.375  1.00 32.92     0.160 C 
ENDROOT
BRANCH  14  15
ATOM     15  CB  GLU D 570     -19.500  -6.345 -13.794  1.00 32.92     0.043 C 
BRANCH  15  16
ATOM     16  CG  GLU D 570     -20.099  -7.643 -14.200  1.00 32.92     0.100 C 
BRANCH  16  17
ATOM     17  CD  GLU D 570     -20.820  -7.571 -15.525  1.00 32.92     0.185 C 
ATOM     18  OE1 GLU D 570     -20.829  -8.573 -16.265  1.00 32.92    -0.647 OA
ATOM     19  OE2 GLU D 570     -21.367  -6.494 -15.835  1.00 32.92    -0.647 OA
ENDBRANCH  16  17
ENDBRANCH  15  16
ENDBRANCH  14  15
END_RES GLU D 570
ENDMDL
MODEL 4
REMARK VINA RESULT:      -7.4      0.687      3.005
REMARK WARNING: 32 MAX_TORS EXCEEDED!!!
REMARK  36 active torsions:
REMARK  status: ('A' for Active; 'I' for Inactive)
REMARK    1  A    between atoms: C_2  and  C_5 
REMARK    2  A    between atoms: C_7  and  C_16 
REMARK    3  A    between atoms: C_9  and  C_12 
REMARK    4  A    between atoms: C_10  and  O_11 
REMARK    5  A    between atoms: C_16  and  C_17 
REMARK    6  A    between atoms: C_17  and  C_18 
REMARK    7  A    between atoms: C_18  and  O_20 
REMARK    8  A    between atoms: O_20  and  C_21 
REMARK    9  A    between atoms: C_21  and  C_22 
REMARK   10  A    between atoms: C_22  and  C_23 
REMARK   11  A    between atoms: C_22  and  C_44 
REMARK   12  A    between atoms: C_22  and  C_65 
REMARK   13  A    between atoms: C_23  and  O_24 
REMARK   14  A    between atoms: O_24  and  C_25 
REMARK   15  A    between atoms: C_25  and  C_27 
REMARK   16  A    between atoms: C_27  and  C_28 
REMARK   17  A    between atoms: C_28  and  C_29 
REMARK   18  A    between atoms: C_31  and  C_40 
REMARK   19  A    between atoms: C_32  and  O_39 
REMARK   20  A    between atoms: C_33  and  C_35 
REMARK   21  A    between atoms: C_44  and  O_45 
REMARK   22  A    between atoms: O_45  and  C_46 
REMARK   23  A    between atoms: C_46  and  C_48 
REMARK   24  A    between atoms: C_48  and  C_49 
REMARK   25  A    between atoms: C_49  and  C_50 
REMARK   26  A    between atoms: C_52  and  C_61 
REMARK   27  A    between atoms: C_53  and  O_60 
REMARK   28  A    between atoms: C_54  and  C_56 
REMARK   29  A    between atoms: C_65  and  O_66 
REMARK   30  A    between atoms: O_66  and  C_67 
REMARK   31  A    between atoms: C_67  and  C_69 
REMARK   32  A    between atoms: C_69  and  C_70 
REMARK   33  A    between atoms: C_70  and  C_71 
REMARK   34  A    between atoms: C_73  and  C_82 
REMARK   35  A    between atoms: C_74  and  O_81 
REMARK   36  A    between atoms: C_75  and  C_77 
ROOT
HETATM    1  C   UNL     1     -20.260 -10.000  -3.251  1.00  0.00     0.048 C 
ENDROOT
BRANCH   1   2
HETATM    2  C   UNL     1     -20.233 -11.558  -3.488  1.00  0.00     0.195 C 
BRANCH   2   3
HETATM    3  O   UNL     1     -21.016 -12.397  -2.614  1.00  0.00    -0.320 OA
BRANCH   3   4
HETATM    4  C   UNL     1     -20.373 -13.153  -1.670  1.00  0.00     0.259 C 
HETATM    5  O   UNL     1     -19.850 -12.715  -0.650  1.00  0.00    -0.265 OA
BRANCH   4   6
HETATM    6  C   UNL     1     -20.287 -14.623  -2.028  1.00  0.00     0.116 C 
BRANCH   6   7
HETATM    7  C   UNL     1     -18.876 -15.075  -2.298  1.00  0.00     0.048 C 
BRANCH   7   8
HETATM    8  C   UNL     1     -18.271 -14.394  -3.506  1.00  0.00    -0.056 C 
HETATM    9  C   UNL     1     -16.578 -13.708  -3.540  1.00  0.00     0.018 C 
HETATM   10  C   UNL     1     -15.829 -13.277  -5.204  1.00  0.00    -0.016 C 
HETATM   11  C   UNL     1     -16.817 -13.602  -6.690  1.00  0.00     0.079 C 
HETATM   12  C   UNL     1     -18.443 -14.395  -6.581  1.00  0.00    -0.016 C 
HETATM   13  C   UNL     1     -19.180 -14.685  -4.993  1.00  0.00     0.018 C 
BRANCH  10  14
HETATM   14  C   UNL     1     -14.664 -12.339  -5.282  1.00  0.00    -0.021 C 
HETATM   15  C   UNL     1     -15.173 -10.933  -5.645  1.00  0.00     0.019 C 
HETATM   16  C   UNL     1     -13.578 -12.899  -6.239  1.00  0.00     0.019 C 
HETATM   17  C   UNL     1     -14.094 -12.317  -3.872  1.00  0.00     0.019 C 
ENDBRANCH  10  14
BRANCH  11  18
HETATM   18  O   UNL     1     -16.467 -13.013  -7.869  1.00  0.00    -0.360 OA
HETATM   19  H   UNL     1     -16.220 -12.103  -7.616  1.00  0.00     0.217 HD
ENDBRANCH  11  18
BRANCH  12  20
HETATM   20  C   UNL     1     -19.301 -14.738  -7.798  1.00  0.00    -0.021 C 
HETATM   21  C   UNL     1     -20.230 -15.866  -7.319  1.00  0.00     0.019 C 
HETATM   22  C   UNL     1     -19.907 -13.414  -8.280  1.00  0.00     0.019 C 
HETATM   23  C   UNL     1     -18.581 -15.327  -9.039  1.00  0.00     0.019 C 
ENDBRANCH  12  20
ENDBRANCH   7   8
ENDBRANCH   6   7
ENDBRANCH   4   6
ENDBRANCH   3   4
ENDBRANCH   2   3
ENDBRANCH   1   2
BRANCH   1  24
HETATM   24  C   UNL     1     -20.904  -9.566  -1.956  1.00  0.00     0.195 C 
BRANCH  24  25
HETATM   25  O   UNL     1     -22.182 -10.021  -1.814  1.00  0.00    -0.320 OA
BRANCH  25  26
HETATM   26  C   UNL     1     -22.744  -9.722  -0.605  1.00  0.00     0.259 C 
HETATM   27  O   UNL     1     -23.121  -8.650  -0.162  1.00  0.00    -0.265 OA
BRANCH  26  28
HETATM   28  C   UNL     1     -23.033 -11.039  -0.029  1.00  0.00     0.116 C 
BRANCH  28  29
HETATM   29  C   UNL     1     -24.018 -11.664  -1.010  1.00  0.00     0.048 C 
BRANCH  29  30
HETATM   30  C   UNL     1     -23.953 -13.117  -0.871  1.00  0.00    -0.056 A 
HETATM   31  C   UNL     1     -23.841 -13.691   0.385  1.00  0.00     0.018 A 
HETATM   32  C   UNL     1     -23.789 -15.071   0.535  1.00  0.00    -0.016 A 
HETATM   33  C   UNL     1     -23.808 -15.821  -0.676  1.00  0.00     0.079 A 
HETATM   34  C   UNL     1     -23.839 -15.229  -1.971  1.00  0.00    -0.016 A 
HETATM   35  C   UNL     1     -23.950 -13.857  -2.027  1.00  0.00     0.018 A 
BRANCH  32  36
HETATM   36  C   UNL     1     -23.761 -15.646   1.969  1.00  0.00    -0.021 C 
HETATM   37  C   UNL     1     -24.961 -16.594   2.292  1.00  0.00     0.019 C 
HETATM   38  C   UNL     1     -22.489 -16.495   2.170  1.00  0.00     0.019 C 
HETATM   39  C   UNL     1     -23.845 -14.529   3.029  1.00  0.00     0.019 C 
ENDBRANCH  32  36
BRANCH  33  40
HETATM   40  O   UNL     1     -23.853 -17.183  -0.656  1.00  0.00    -0.360 OA
HETATM   41  H   UNL     1     -24.411 -17.503  -1.370  1.00  0.00     0.217 HD
ENDBRANCH  33  40
BRANCH  34  42
HETATM   42  C   UNL     1     -23.839 -15.968  -3.319  1.00  0.00    -0.021 C 
HETATM   43  C   UNL     1     -23.473 -14.942  -4.405  1.00  0.00     0.019 C 
HETATM   44  C   UNL     1     -22.792 -17.123  -3.352  1.00  0.00     0.019 C 
HETATM   45  C   UNL     1     -25.178 -16.637  -3.662  1.00  0.00     0.019 C 
ENDBRANCH  34  42
ENDBRANCH  29  30
ENDBRANCH  28  29
ENDBRANCH  26  28
ENDBRANCH  25  26
ENDBRANCH  24  25
ENDBRANCH   1  24
BRANCH   1  46
HETATM   46  C   UNL     1     -18.903  -9.307  -3.457  1.00  0.00     0.195 C 
BRANCH  46  47
HETATM   47  O   UNL     1     -17.864 -10.295  -3.560  1.00  0.00    -0.320 OA
BRANCH  47  48
HETATM   48  C   UNL     1     -16.928 -10.252  -2.573  1.00  0.00     0.259 C 
HETATM   49  O   UNL     1     -16.119  -9.342  -2.443  1.00  0.00    -0.265 OA
BRANCH  48  50
HETATM   50  C   UNL     1     -17.210 -11.281  -1.503  1.00  0.00     0.116 C 
BRANCH  50  51
HETATM   51  C   UNL     1     -16.047 -11.464  -0.543  1.00  0.00     0.048 C 
BRANCH  51  52
HETATM   52  C   UNL     1     -15.826 -12.905  -0.157  1.00  0.00    -0.056 A 
HETATM   53  C   UNL     1     -16.824 -13.667   0.466  1.00  0.00     0.018 A 
HETATM   54  C   UNL     1     -16.645 -15.029   0.802  1.00  0.00    -0.016 A 
HETATM   55  C   UNL     1     -15.387 -15.594   0.454  1.00  0.00     0.079 A 
HETATM   56  C   UNL     1     -14.382 -14.872  -0.247  1.00  0.00    -0.016 A 
HETATM   57  C   UNL     1     -14.621 -13.514  -0.493  1.00  0.00     0.018 A 
BRANCH  54  58
HETATM   58  C   UNL     1     -17.828 -15.824   1.426  1.00  0.00    -0.021 C 
HETATM   59  C   UNL     1     -18.171 -17.124   0.642  1.00  0.00     0.019 C 
HETATM   60  C   UNL     1     -17.456 -16.278   2.858  1.00  0.00     0.019 C 
HETATM   61  C   UNL     1     -19.154 -15.026   1.461  1.00  0.00     0.019 C 
ENDBRANCH  54  58
BRANCH  55  62
HETATM   62  O   UNL     1     -15.058 -16.884   0.773  1.00  0.00    -0.360 OA
HETATM   63  H   UNL     1     -15.798 -17.336   1.187  1.00  0.00     0.217 HD
ENDBRANCH  55  62
BRANCH  56  64
HETATM   64  C   UNL     1     -13.086 -15.531  -0.784  1.00  0.00    -0.021 C 
HETATM   65  C   UNL     1     -13.408 -16.792  -1.621  1.00  0.00     0.019 C 
HETATM   66  C   UNL     1     -12.277 -14.611  -1.741  1.00  0.00     0.019 C 
HETATM   67  C   UNL     1     -12.139 -15.886   0.381  1.00  0.00     0.019 C 
ENDBRANCH  56  64
ENDBRANCH  51  52
ENDBRANCH  50  51
ENDBRANCH  48  50
ENDBRANCH  47  48
ENDBRANCH  46  47
ENDBRANCH   1  46
BRANCH   1  68
HETATM   68  C   UNL     1     -21.170  -9.407  -4.259  1.00  0.00     0.195 C 
BRANCH  68  69
HETATM   69  O   UNL     1     -21.417  -8.013  -3.889  1.00  0.00    -0.320 OA
BRANCH  69  70
HETATM   70  C   UNL     1     -22.029  -6.679  -3.865  1.00  0.00     0.259 C 
HETATM   71  O   UNL     1     -21.268  -5.926  -3.238  1.00  0.00    -0.265 OA
BRANCH  70  72
HETATM   72  C   UNL     1     -23.706  -6.296  -5.190  1.00  0.00     0.116 C 
BRANCH  72  73
HETATM   73  C   UNL     1     -24.056  -4.918  -6.183  1.00  0.00     0.048 C 
BRANCH  73  74
HETATM   74  C   UNL     1     -23.061  -4.649  -7.200  1.00  0.00    -0.056 A 
HETATM   75  C   UNL     1     -23.441  -4.300  -8.456  1.00  0.00     0.018 A 
HETATM   76  C   UNL     1     -22.532  -4.190  -9.467  1.00  0.00    -0.016 A 
HETATM   77  C   UNL     1     -21.171  -4.354  -9.091  1.00  0.00     0.079 A 
HETATM   78  C   UNL     1     -20.762  -4.715  -7.775  1.00  0.00    -0.016 A 
HETATM   79  C   UNL     1     -21.757  -4.849  -6.841  1.00  0.00     0.018 A 
BRANCH  76  80
HETATM   80  C   UNL     1     -23.150  -3.799 -10.813  1.00  0.00    -0.021 C 
HETATM   81  C   UNL     1     -23.253  -4.962 -11.863  1.00  0.00     0.019 C 
HETATM   82  C   UNL     1     -24.595  -3.399 -10.511  1.00  0.00     0.019 C 
HETATM   83  C   UNL     1     -22.305  -2.737 -11.523  1.00  0.00     0.019 C 
ENDBRANCH  76  80
BRANCH  77  84
HETATM   84  O   UNL     1     -20.183  -4.081  -9.991  1.00  0.00    -0.360 OA
HETATM   85  H   UNL     1     -20.474  -3.359 -10.560  1.00  0.00     0.217 HD
ENDBRANCH  77  84
BRANCH  78  86
HETATM   86  C   UNL     1     -19.353  -4.849  -7.195  1.00  0.00    -0.021 C 
HETATM   87  C   UNL     1     -18.916  -6.300  -7.485  1.00  0.00     0.019 C 
HETATM   88  C   UNL     1     -18.318  -3.882  -7.865  1.00  0.00     0.019 C 
HETATM   89  C   UNL     1     -19.304  -4.540  -5.702  1.00  0.00     0.019 C 
ENDBRANCH  78  86
ENDBRANCH  73  74
ENDBRANCH  72  73
ENDBRANCH  70  72
ENDBRANCH  69  70
ENDBRANCH  68  69
ENDBRANCH   1  68
TORSDOF 36
BEGIN_RES ARG D 557
REMARK  4 active torsions:
REMARK  status: ('A' for Active; 'I' for Inactive)
REMARK    1  A    between atoms: CA   and  CB  
REMARK    2  A    between atoms: CB   and  CG  
REMARK    3  A    between atoms: CG   and  CD  
REMARK    4  A    between atoms: CD   and  NE  
REMARK       I    between atoms: NE   and  CZ  
REMARK       I    between atoms: CZ   and  NH1 
REMARK       I    between atoms: CZ   and  NH2 
ROOT
ATOM      1  CA  ARG D 557     -26.217   2.705 -17.014  1.00 35.49     0.159 C 
ENDROOT
BRANCH   1   2
ATOM      2  CB  ARG D 557     -26.789   1.319 -17.183  1.00 35.49     0.034 C 
BRANCH   2   3
ATOM      3  CG  ARG D 557     -28.237   1.224 -17.405  1.00 35.49     0.027 C 
BRANCH   3   4
ATOM      4  CD  ARG D 557     -28.890   0.278 -16.472  1.00 35.49     0.116 C 
BRANCH   4   5
ATOM      5  NE  ARG D 557     -29.267  -0.950 -17.120  1.00 35.49    -0.212 N 
ATOM      6  CZ  ARG D 557     -28.633  -2.097 -17.022  1.00 35.49     0.666 C 
ATOM      7  NH1 ARG D 557     -27.536  -2.241 -16.302  1.00 35.49    -0.235 N 
ATOM      8  NH2 ARG D 557     -29.130  -3.114 -17.663  1.00 35.49    -0.235 N 
ATOM      9  HH  ARG D 557     -27.193  -1.585 -15.870  1.00 35.49     0.174 HD
ATOM     10  HH  ARG D 557     -27.167  -3.014 -16.273  1.00 35.49     0.174 HD
ATOM     11  HH  ARG D 557     -29.844  -2.994 -18.114  1.00 35.49     0.174 HD
ATOM     12  HH  ARG D 557     -28.751  -3.872 -17.620  1.00 35.49     0.174 HD
ATOM     13  HE  ARG D 557     -29.922  -0.930 -17.662  1.00 35.49     0.178 HD
ENDBRANCH   4   5
ENDBRANCH   3   4
ENDBRANCH   2   3
ENDBRANCH   1   2
END_RES ARG D 557
BEGIN_RES GLU D 570
REMARK  3 active torsions:
REMARK  status: ('A' for Active; 'I' for Inactive)
REMARK    5  A    between atoms: CA   and  CB  
REMARK    6  A    between atoms: CB   and  CG  
REMARK    7  A    between atoms: CG   and  CD  
ROOT
ATOM     14  CA  GLU D 570     -18.033  -6.348 -13.375  1.00 32.92     0.160 C 
ENDROOT
BRANCH  14  15
ATOM     15  CB  GLU D 570     -19.500  -6.345 -13.794  1.00 32.92     0.043 C 
BRANCH  15  16
ATOM     16  CG  GLU D 570     -19.803  -6.074 -15.223  1.00 32.92     0.100 C 
BRANCH  16  17
ATOM     17  CD  GLU D 570     -21.150  -6.608 -15.651  1.00 32.92     0.185 C 
ATOM     18  OE1 GLU D 570     -21.196  -7.595 -16.411  1.00 32.92    -0.647 OA
ATOM     19  OE2 GLU D 570     -22.170  -6.023 -15.236  1.00 32.92    -0.647 OA
ENDBRANCH  16  17
ENDBRANCH  15  16
ENDBRANCH  14  15
END_RES GLU D 570
ENDMDL
MODEL 5
REMARK VINA RESULT:      -7.4      0.418      2.169
REMARK WARNING: 32 MAX_TORS EXCEEDED!!!
REMARK  36 active torsions:
REMARK  status: ('A' for Active; 'I' for Inactive)
REMARK    1  A    between atoms: C_2  and  C_5 
REMARK    2  A    between atoms: C_7  and  C_16 
REMARK    3  A    between atoms: C_9  and  C_12 
REMARK    4  A    between atoms: C_10  and  O_11 
REMARK    5  A    between atoms: C_16  and  C_17 
REMARK    6  A    between atoms: C_17  and  C_18 
REMARK    7  A    between atoms: C_18  and  O_20 
REMARK    8  A    between atoms: O_20  and  C_21 
REMARK    9  A    between atoms: C_21  and  C_22 
REMARK   10  A    between atoms: C_22  and  C_23 
REMARK   11  A    between atoms: C_22  and  C_44 
REMARK   12  A    between atoms: C_22  and  C_65 
REMARK   13  A    between atoms: C_23  and  O_24 
REMARK   14  A    between atoms: O_24  and  C_25 
REMARK   15  A    between atoms: C_25  and  C_27 
REMARK   16  A    between atoms: C_27  and  C_28 
REMARK   17  A    between atoms: C_28  and  C_29 
REMARK   18  A    between atoms: C_31  and  C_40 
REMARK   19  A    between atoms: C_32  and  O_39 
REMARK   20  A    between atoms: C_33  and  C_35 
REMARK   21  A    between atoms: C_44  and  O_45 
REMARK   22  A    between atoms: O_45  and  C_46 
REMARK   23  A    between atoms: C_46  and  C_48 
REMARK   24  A    between atoms: C_48  and  C_49 
REMARK   25  A    between atoms: C_49  and  C_50 
REMARK   26  A    between atoms: C_52  and  C_61 
REMARK   27  A    between atoms: C_53  and  O_60 
REMARK   28  A    between atoms: C_54  and  C_56 
REMARK   29  A    between atoms: C_65  and  O_66 
REMARK   30  A    between atoms: O_66  and  C_67 
REMARK   31  A    between atoms: C_67  and  C_69 
REMARK   32  A    between atoms: C_69  and  C_70 
REMARK   33  A    between atoms: C_70  and  C_71 
REMARK   34  A    between atoms: C_73  and  C_82 
REMARK   35  A    between atoms: C_74  and  O_81 
REMARK   36  A    between atoms: C_75  and  C_77 
ROOT
HETATM    1  C   UNL     1     -20.145  -9.969  -2.991  1.00  0.00     0.048 C 
ENDROOT
BRANCH   1   2
HETATM    2  C   UNL     1     -20.201 -11.537  -3.145  1.00  0.00     0.195 C 
BRANCH   2   3
HETATM    3  O   UNL     1     -20.986 -12.290  -2.197  1.00  0.00    -0.320 OA
BRANCH   3   4
HETATM    4  C   UNL     1     -20.341 -13.039  -1.249  1.00  0.00     0.259 C 
HETATM    5  O   UNL     1     -19.862 -12.600  -0.208  1.00  0.00    -0.265 OA
BRANCH   4   6
HETATM    6  C   UNL     1     -20.191 -14.498  -1.630  1.00  0.00     0.116 C 
BRANCH   6   7
HETATM    7  C   UNL     1     -18.757 -14.898  -1.851  1.00  0.00     0.048 C 
BRANCH   7   8
HETATM    8  C   UNL     1     -18.308 -14.679  -3.279  1.00  0.00    -0.056 C 
HETATM    9  C   UNL     1     -19.444 -14.676  -4.710  1.00  0.00     0.018 C 
HETATM   10  C   UNL     1     -18.818 -13.987  -6.338  1.00  0.00    -0.016 C 
HETATM   11  C   UNL     1     -17.130 -13.328  -6.388  1.00  0.00     0.079 C 
HETATM   12  C   UNL     1     -16.104 -13.258  -4.895  1.00  0.00    -0.016 C 
HETATM   13  C   UNL     1     -16.671 -14.021  -3.397  1.00  0.00     0.018 C 
BRANCH  10  14
HETATM   14  C   UNL     1     -19.513 -14.339  -7.617  1.00  0.00    -0.021 C 
HETATM   15  C   UNL     1     -18.871 -15.608  -8.205  1.00  0.00     0.019 C 
HETATM   16  C   UNL     1     -19.533 -13.121  -8.578  1.00  0.00     0.019 C 
HETATM   17  C   UNL     1     -20.945 -14.647  -7.205  1.00  0.00     0.019 C 
ENDBRANCH  10  14
BRANCH  11  18
HETATM   18  O   UNL     1     -16.524 -13.130  -7.593  1.00  0.00    -0.360 OA
HETATM   19  H   UNL     1     -16.565 -14.005  -8.027  1.00  0.00     0.217 HD
ENDBRANCH  11  18
BRANCH  12  20
HETATM   20  C   UNL     1     -14.693 -12.671  -4.864  1.00  0.00    -0.021 C 
HETATM   21  C   UNL     1     -14.864 -11.214  -5.328  1.00  0.00     0.019 C 
HETATM   22  C   UNL     1     -14.143 -12.958  -3.462  1.00  0.00     0.019 C 
HETATM   23  C   UNL     1     -13.647 -13.270  -5.839  1.00  0.00     0.019 C 
ENDBRANCH  12  20
ENDBRANCH   7   8
ENDBRANCH   6   7
ENDBRANCH   4   6
ENDBRANCH   3   4
ENDBRANCH   2   3
ENDBRANCH   1   2
BRANCH   1  24
HETATM   24  C   UNL     1     -20.880  -9.422  -1.792  1.00  0.00     0.195 C 
BRANCH  24  25
HETATM   25  O   UNL     1     -22.131  -9.947  -1.645  1.00  0.00    -0.320 OA
BRANCH  25  26
HETATM   26  C   UNL     1     -22.740  -9.603  -0.471  1.00  0.00     0.259 C 
HETATM   27  O   UNL     1     -23.097  -8.509  -0.067  1.00  0.00    -0.265 OA
BRANCH  26  28
HETATM   28  C   UNL     1     -23.108 -10.896   0.113  1.00  0.00     0.116 C 
BRANCH  28  29
HETATM   29  C   UNL     1     -24.053 -11.511  -0.911  1.00  0.00     0.048 C 
BRANCH  29  30
HETATM   30  C   UNL     1     -23.943 -12.965  -0.832  1.00  0.00    -0.056 A 
HETATM   31  C   UNL     1     -23.866 -13.590   0.403  1.00  0.00     0.018 A 
HETATM   32  C   UNL     1     -23.772 -14.973   0.497  1.00  0.00    -0.016 A 
HETATM   33  C   UNL     1     -23.712 -15.669  -0.746  1.00  0.00     0.079 A 
HETATM   34  C   UNL     1     -23.707 -15.023  -2.014  1.00  0.00    -0.016 A 
HETATM   35  C   UNL     1     -23.864 -13.653  -2.017  1.00  0.00     0.018 A 
BRANCH  32  36
HETATM   36  C   UNL     1     -23.786 -15.609   1.905  1.00  0.00    -0.021 C 
HETATM   37  C   UNL     1     -23.932 -14.571   3.064  1.00  0.00     0.019 C 
HETATM   38  C   UNL     1     -24.990 -16.562   2.040  1.00  0.00     0.019 C 
HETATM   39  C   UNL     1     -22.466 -16.350   2.204  1.00  0.00     0.019 C 
ENDBRANCH  32  36
BRANCH  33  40
HETATM   40  O   UNL     1     -23.709 -17.031  -0.785  1.00  0.00    -0.360 OA
HETATM   41  H   UNL     1     -24.565 -17.352  -1.082  1.00  0.00     0.217 HD
ENDBRANCH  33  40
BRANCH  34  42
HETATM   42  C   UNL     1     -23.622 -15.701  -3.390  1.00  0.00    -0.021 C 
HETATM   43  C   UNL     1     -23.304 -14.606  -4.423  1.00  0.00     0.019 C 
HETATM   44  C   UNL     1     -22.493 -16.776  -3.443  1.00  0.00     0.019 C 
HETATM   45  C   UNL     1     -24.901 -16.448  -3.797  1.00  0.00     0.019 C 
ENDBRANCH  34  42
ENDBRANCH  29  30
ENDBRANCH  28  29
ENDBRANCH  26  28
ENDBRANCH  25  26
ENDBRANCH  24  25
ENDBRANCH   1  24
BRANCH   1  46
HETATM   46  C   UNL     1     -18.729  -9.377  -3.093  1.00  0.00     0.195 C 
BRANCH  46  47
HETATM   47  O   UNL     1     -17.774 -10.433  -3.289  1.00  0.00    -0.320 OA
BRANCH  47  48
HETATM   48  C   UNL     1     -16.777 -10.487  -2.365  1.00  0.00     0.259 C 
HETATM   49  O   UNL     1     -15.941  -9.605  -2.214  1.00  0.00    -0.265 OA
BRANCH  48  50
HETATM   50  C   UNL     1     -17.014 -11.595  -1.365  1.00  0.00     0.116 C 
BRANCH  50  51
HETATM   51  C   UNL     1     -15.992 -11.601  -0.241  1.00  0.00     0.048 C 
BRANCH  51  52
HETATM   52  C   UNL     1     -15.709 -12.986   0.286  1.00  0.00    -0.056 A 
HETATM   53  C   UNL     1     -16.725 -13.809   0.788  1.00  0.00     0.018 A 
HETATM   54  C   UNL     1     -16.482 -15.123   1.254  1.00  0.00    -0.016 A 
HETATM   55  C   UNL     1     -15.136 -15.572   1.168  1.00  0.00     0.079 A 
HETATM   56  C   UNL     1     -14.095 -14.792   0.593  1.00  0.00    -0.016 A 
HETATM   57  C   UNL     1     -14.412 -13.483   0.206  1.00  0.00     0.018 A 
BRANCH  54  58
HETATM   58  C   UNL     1     -17.677 -15.999   1.729  1.00  0.00    -0.021 C 
HETATM   59  C   UNL     1     -19.028 -15.226   1.759  1.00  0.00     0.019 C 
HETATM   60  C   UNL     1     -17.884 -17.179   0.749  1.00  0.00     0.019 C 
HETATM   61  C   UNL     1     -17.505 -16.543   3.169  1.00  0.00     0.019 C 
ENDBRANCH  54  58
BRANCH  55  62
HETATM   62  O   UNL     1     -14.749 -16.799   1.636  1.00  0.00    -0.360 OA
HETATM   63  H   UNL     1     -13.927 -17.081   1.225  1.00  0.00     0.217 HD
ENDBRANCH  55  62
BRANCH  56  64
HETATM   64  C   UNL     1     -12.669 -15.342   0.334  1.00  0.00    -0.021 C 
HETATM   65  C   UNL     1     -11.818 -15.309   1.627  1.00  0.00     0.019 C 
HETATM   66  C   UNL     1     -12.653 -16.829  -0.118  1.00  0.00     0.019 C 
HETATM   67  C   UNL     1     -11.976 -14.539  -0.786  1.00  0.00     0.019 C 
ENDBRANCH  56  64
ENDBRANCH  51  52
ENDBRANCH  50  51
ENDBRANCH  48  50
ENDBRANCH  47  48
ENDBRANCH  46  47
ENDBRANCH   1  46
BRANCH   1  68
HETATM   68  C   UNL     1     -20.908  -9.379  -4.114  1.00  0.00     0.195 C 
BRANCH  68  69
HETATM   69  O   UNL     1     -21.230  -7.994  -3.771  1.00  0.00    -0.320 OA
BRANCH  69  70
HETATM   70  C   UNL     1     -21.947  -6.713  -3.725  1.00  0.00     0.259 C 
HETATM   71  O   UNL     1     -21.277  -5.929  -3.036  1.00  0.00    -0.265 OA
BRANCH  70  72
HETATM   72  C   UNL     1     -23.591  -6.409  -5.112  1.00  0.00     0.116 C 
BRANCH  72  73
HETATM   73  C   UNL     1     -24.011  -5.020  -6.062  1.00  0.00     0.048 C 
BRANCH  73  74
HETATM   74  C   UNL     1     -23.068  -4.712  -7.116  1.00  0.00    -0.056 A 
HETATM   75  C   UNL     1     -23.511  -4.360  -8.351  1.00  0.00     0.018 A 
HETATM   76  C   UNL     1     -22.649  -4.215  -9.398  1.00  0.00    -0.016 A 
HETATM   77  C   UNL     1     -21.269  -4.345  -9.082  1.00  0.00     0.079 A 
HETATM   78  C   UNL     1     -20.795  -4.710  -7.789  1.00  0.00    -0.016 A 
HETATM   79  C   UNL     1     -21.745  -4.881  -6.816  1.00  0.00     0.018 A 
BRANCH  76  80
HETATM   80  C   UNL     1     -23.335  -3.826 -10.711  1.00  0.00    -0.021 C 
HETATM   81  C   UNL     1     -22.617  -2.693 -11.529  1.00  0.00     0.019 C 
HETATM   82  C   UNL     1     -23.272  -5.067 -11.603  1.00  0.00     0.019 C 
HETATM   83  C   UNL     1     -24.737  -3.263 -10.459  1.00  0.00     0.019 C 
ENDBRANCH  76  80
BRANCH  77  84
HETATM   84  O   UNL     1     -20.329  -4.036 -10.020  1.00  0.00    -0.360 OA
HETATM   85  H   UNL     1     -20.773  -3.869 -10.860  1.00  0.00     0.217 HD
ENDBRANCH  77  84
BRANCH  78  86
HETATM   86  C   UNL     1     -19.359  -4.811  -7.271  1.00  0.00    -0.021 C 
HETATM   87  C   UNL     1     -19.448  -4.592  -5.746  1.00  0.00     0.019 C 
HETATM   88  C   UNL     1     -18.710  -6.214  -7.527  1.00  0.00     0.019 C 
HETATM   89  C   UNL     1     -18.428  -3.797  -7.927  1.00  0.00     0.019 C 
ENDBRANCH  78  86
ENDBRANCH  73  74
ENDBRANCH  72  73
ENDBRANCH  70  72
ENDBRANCH  69  70
ENDBRANCH  68  69
ENDBRANCH   1  68
TORSDOF 36
BEGIN_RES ARG D 557
REMARK  4 active torsions:
REMARK  status: ('A' for Active; 'I' for Inactive)
REMARK    1  A    between atoms: CA   and  CB  
REMARK    2  A    between atoms: CB   and  CG  
REMARK    3  A    between atoms: CG   and  CD  
REMARK    4  A    between atoms: CD   and  NE  
REMARK       I    between atoms: NE   and  CZ  
REMARK       I    between atoms: CZ   and  NH1 
REMARK       I    between atoms: CZ   and  NH2 
ROOT
ATOM      1  CA  ARG D 557     -26.217   2.705 -17.014  1.00 35.49     0.159 C 
ENDROOT
BRANCH   1   2
ATOM      2  CB  ARG D 557     -26.789   1.319 -17.183  1.00 35.49     0.034 C 
BRANCH   2   3
ATOM      3  CG  ARG D 557     -28.235   1.225 -17.418  1.00 35.49     0.027 C 
BRANCH   3   4
ATOM      4  CD  ARG D 557     -28.884   0.218 -16.548  1.00 35.49     0.116 C 
BRANCH   4   5
ATOM      5  NE  ARG D 557     -27.990  -0.853 -16.198  1.00 35.49    -0.212 N 
ATOM      6  CZ  ARG D 557     -28.097  -2.103 -16.591  1.00 35.49     0.666 C 
ATOM      7  NH1 ARG D 557     -29.081  -2.521 -17.364  1.00 35.49    -0.235 N 
ATOM      8  NH2 ARG D 557     -27.181  -2.938 -16.193  1.00 35.49    -0.235 N 
ATOM      9  HH  ARG D 557     -29.694  -1.988 -17.640  1.00 35.49     0.174 HD
ATOM     10  HH  ARG D 557     -29.098  -3.347 -17.591  1.00 35.49     0.174 HD
ATOM     11  HH  ARG D 557     -26.553  -2.638 -15.700  1.00 35.49     0.174 HD
ATOM     12  HH  ARG D 557     -27.215  -3.752 -16.429  1.00 35.49     0.174 HD
ATOM     13  HE  ARG D 557     -27.367  -0.688 -15.643  1.00 35.49     0.178 HD
ENDBRANCH   4   5
ENDBRANCH   3   4
ENDBRANCH   2   3
ENDBRANCH   1   2
END_RES ARG D 557
BEGIN_RES GLU D 570
REMARK  3 active torsions:
REMARK  status: ('A' for Active; 'I' for Inactive)
REMARK    5  A    between atoms: CA   and  CB  
REMARK    6  A    between atoms: CB   and  CG  
REMARK    7  A    between atoms: CG   and  CD  
ROOT
ATOM     14  CA  GLU D 570     -18.033  -6.348 -13.375  1.00 32.92     0.160 C 
ENDROOT
BRANCH  14  15
ATOM     15  CB  GLU D 570     -19.500  -6.345 -13.794  1.00 32.92     0.043 C 
BRANCH  15  16
ATOM     16  CG  GLU D 570     -20.082  -7.631 -14.258  1.00 32.92     0.100 C 
BRANCH  16  17
ATOM     17  CD  GLU D 570     -20.716  -7.531 -15.626  1.00 32.92     0.185 C 
ATOM     18  OE1 GLU D 570     -21.201  -8.555 -16.144  1.00 32.92    -0.647 OA
ATOM     19  OE2 GLU D 570     -20.712  -6.421 -16.193  1.00 32.92    -0.647 OA
ENDBRANCH  16  17
ENDBRANCH  15  16
ENDBRANCH  14  15
END_RES GLU D 570
ENDMDL
MODEL 6
REMARK VINA RESULT:      -7.3      1.956     11.323
REMARK WARNING: 32 MAX_TORS EXCEEDED!!!
REMARK  36 active torsions:
REMARK  status: ('A' for Active; 'I' for Inactive)
REMARK    1  A    between atoms: C_2  and  C_5 
REMARK    2  A    between atoms: C_7  and  C_16 
REMARK    3  A    between atoms: C_9  and  C_12 
REMARK    4  A    between atoms: C_10  and  O_11 
REMARK    5  A    between atoms: C_16  and  C_17 
REMARK    6  A    between atoms: C_17  and  C_18 
REMARK    7  A    between atoms: C_18  and  O_20 
REMARK    8  A    between atoms: O_20  and  C_21 
REMARK    9  A    between atoms: C_21  and  C_22 
REMARK   10  A    between atoms: C_22  and  C_23 
REMARK   11  A    between atoms: C_22  and  C_44 
REMARK   12  A    between atoms: C_22  and  C_65 
REMARK   13  A    between atoms: C_23  and  O_24 
REMARK   14  A    between atoms: O_24  and  C_25 
REMARK   15  A    between atoms: C_25  and  C_27 
REMARK   16  A    between atoms: C_27  and  C_28 
REMARK   17  A    between atoms: C_28  and  C_29 
REMARK   18  A    between atoms: C_31  and  C_40 
REMARK   19  A    between atoms: C_32  and  O_39 
REMARK   20  A    between atoms: C_33  and  C_35 
REMARK   21  A    between atoms: C_44  and  O_45 
REMARK   22  A    between atoms: O_45  and  C_46 
REMARK   23  A    between atoms: C_46  and  C_48 
REMARK   24  A    between atoms: C_48  and  C_49 
REMARK   25  A    between atoms: C_49  and  C_50 
REMARK   26  A    between atoms: C_52  and  C_61 
REMARK   27  A    between atoms: C_53  and  O_60 
REMARK   28  A    between atoms: C_54  and  C_56 
REMARK   29  A    between atoms: C_65  and  O_66 
REMARK   30  A    between atoms: O_66  and  C_67 
REMARK   31  A    between atoms: C_67  and  C_69 
REMARK   32  A    between atoms: C_69  and  C_70 
REMARK   33  A    between atoms: C_70  and  C_71 
REMARK   34  A    between atoms: C_73  and  C_82 
REMARK   35  A    between atoms: C_74  and  O_81 
REMARK   36  A    between atoms: C_75  and  C_77 
ROOT
HETATM    1  C   UNL     1     -20.701  -7.313  -5.511  1.00  0.00     0.048 C 
ENDROOT
BRANCH   1   2
HETATM    2  C   UNL     1     -21.701  -8.531  -5.548  1.00  0.00     0.195 C 
BRANCH   2   3
HETATM    3  O   UNL     1     -21.302  -9.723  -6.256  1.00  0.00    -0.320 OA
BRANCH   3   4
HETATM    4  C   UNL     1     -21.570 -10.946  -5.699  1.00  0.00     0.259 C 
HETATM    5  O   UNL     1     -21.913 -11.945  -6.321  1.00  0.00    -0.265 OA
BRANCH   4   6
HETATM    6  C   UNL     1     -21.479 -10.953  -4.186  1.00  0.00     0.116 C 
BRANCH   6   7
HETATM    7  C   UNL     1     -22.813 -11.172  -3.524  1.00  0.00     0.048 C 
BRANCH   7   8
HETATM    8  C   UNL     1     -22.918 -12.530  -2.866  1.00  0.00    -0.056 C 
HETATM    9  C   UNL     1     -22.941 -12.781  -1.056  1.00  0.00     0.018 C 
HETATM   10  C   UNL     1     -23.488 -14.450  -0.399  1.00  0.00    -0.016 C 
HETATM   11  C   UNL     1     -23.999 -15.709  -1.600  1.00  0.00     0.079 C 
HETATM   12  C   UNL     1     -24.061 -15.344  -3.374  1.00  0.00    -0.016 C 
HETATM   13  C   UNL     1     -23.429 -13.802  -3.982  1.00  0.00     0.018 C 
BRANCH  10  14
HETATM   14  C   UNL     1     -23.128 -14.861   0.995  1.00  0.00    -0.021 C 
HETATM   15  C   UNL     1     -21.632 -15.218   1.045  1.00  0.00     0.019 C 
HETATM   16  C   UNL     1     -24.076 -15.984   1.492  1.00  0.00     0.019 C 
HETATM   17  C   UNL     1     -23.375 -13.619   1.838  1.00  0.00     0.019 C 
ENDBRANCH  10  14
BRANCH  11  18
HETATM   18  O   UNL     1     -24.082 -17.013  -1.209  1.00  0.00    -0.360 OA
HETATM   19  H   UNL     1     -24.507 -16.971  -0.330  1.00  0.00     0.217 HD
ENDBRANCH  11  18
BRANCH  12  20
HETATM   20  C   UNL     1     -24.529 -16.347  -4.429  1.00  0.00    -0.021 C 
HETATM   21  C   UNL     1     -23.280 -17.183  -4.757  1.00  0.00     0.019 C 
HETATM   22  C   UNL     1     -25.767 -17.036  -3.842  1.00  0.00     0.019 C 
HETATM   23  C   UNL     1     -24.991 -15.784  -5.797  1.00  0.00     0.019 C 
ENDBRANCH  12  20
ENDBRANCH   7   8
ENDBRANCH   6   7
ENDBRANCH   4   6
ENDBRANCH   3   4
ENDBRANCH   2   3
ENDBRANCH   1   2
BRANCH   1  24
HETATM   24  C   UNL     1     -19.245  -7.690  -5.379  1.00  0.00     0.195 C 
BRANCH  24  25
HETATM   25  O   UNL     1     -18.973  -8.945  -5.839  1.00  0.00    -0.320 OA
BRANCH  25  26
HETATM   26  C   UNL     1     -18.062  -9.626  -5.082  1.00  0.00     0.259 C 
HETATM   27  O   UNL     1     -17.554  -9.327  -4.014  1.00  0.00    -0.265 OA
BRANCH  26  28
HETATM   28  C   UNL     1     -18.006 -10.944  -5.721  1.00  0.00     0.116 C 
BRANCH  28  29
HETATM   29  C   UNL     1     -16.848 -11.646  -5.021  1.00  0.00     0.048 C 
BRANCH  29  30
HETATM   30  C   UNL     1     -16.638 -12.943  -5.659  1.00  0.00    -0.056 A 
HETATM   31  C   UNL     1     -15.501 -13.683  -5.371  1.00  0.00     0.018 A 
HETATM   32  C   UNL     1     -15.291 -14.923  -5.959  1.00  0.00    -0.016 A 
HETATM   33  C   UNL     1     -16.285 -15.336  -6.893  1.00  0.00     0.079 A 
HETATM   34  C   UNL     1     -17.410 -14.540  -7.252  1.00  0.00    -0.016 A 
HETATM   35  C   UNL     1     -17.574 -13.350  -6.576  1.00  0.00     0.018 A 
BRANCH  32  36
HETATM   36  C   UNL     1     -14.051 -15.735  -5.522  1.00  0.00    -0.021 C 
HETATM   37  C   UNL     1     -13.084 -16.091  -6.697  1.00  0.00     0.019 C 
HETATM   38  C   UNL     1     -13.212 -14.916  -4.521  1.00  0.00     0.019 C 
HETATM   39  C   UNL     1     -14.450 -17.096  -4.916  1.00  0.00     0.019 C 
ENDBRANCH  32  36
BRANCH  33  40
HETATM   40  O   UNL     1     -16.236 -16.570  -7.468  1.00  0.00    -0.360 OA
HETATM   41  H   UNL     1     -15.519 -17.082  -7.084  1.00  0.00     0.217 HD
ENDBRANCH  33  40
BRANCH  34  42
HETATM   42  C   UNL     1     -18.508 -14.905  -8.263  1.00  0.00    -0.021 C 
HETATM   43  C   UNL     1     -19.415 -13.672  -8.422  1.00  0.00     0.019 C 
HETATM   44  C   UNL     1     -17.918 -15.272  -9.660  1.00  0.00     0.019 C 
HETATM   45  C   UNL     1     -19.350 -16.124  -7.856  1.00  0.00     0.019 C 
ENDBRANCH  34  42
ENDBRANCH  29  30
ENDBRANCH  28  29
ENDBRANCH  26  28
ENDBRANCH  25  26
ENDBRANCH  24  25
ENDBRANCH   1  24
BRANCH   1  46
HETATM   46  C   UNL     1     -20.910  -6.292  -6.643  1.00  0.00     0.195 C 
BRANCH  46  47
HETATM   47  O   UNL     1     -19.701  -6.162  -7.409  1.00  0.00    -0.320 OA
BRANCH  47  48
HETATM   48  C   UNL     1     -19.667  -5.099  -8.258  1.00  0.00     0.259 C 
HETATM   49  O   UNL     1     -19.445  -3.950  -7.899  1.00  0.00    -0.265 OA
BRANCH  48  50
HETATM   50  C   UNL     1     -19.625  -5.549  -9.700  1.00  0.00     0.116 C 
BRANCH  50  51
HETATM   51  C   UNL     1     -19.713  -4.391 -10.679  1.00  0.00     0.048 C 
BRANCH  51  52
HETATM   52  C   UNL     1     -21.133  -4.046 -11.054  1.00  0.00    -0.056 A 
HETATM   53  C   UNL     1     -21.507  -3.785 -12.378  1.00  0.00     0.018 A 
HETATM   54  C   UNL     1     -22.840  -3.495 -12.751  1.00  0.00    -0.016 A 
HETATM   55  C   UNL     1     -23.794  -3.498 -11.696  1.00  0.00     0.079 A 
HETATM   56  C   UNL     1     -23.463  -3.835 -10.354  1.00  0.00    -0.016 A 
HETATM   57  C   UNL     1     -22.110  -4.056 -10.064  1.00  0.00     0.018 A 
BRANCH  54  58
HETATM   58  C   UNL     1     -23.187  -3.287 -14.254  1.00  0.00    -0.021 C 
HETATM   59  C   UNL     1     -24.441  -4.090 -14.708  1.00  0.00     0.019 C 
HETATM   60  C   UNL     1     -23.520  -1.798 -14.513  1.00  0.00     0.019 C 
HETATM   61  C   UNL     1     -22.061  -3.744 -15.213  1.00  0.00     0.019 C 
ENDBRANCH  54  58
BRANCH  55  62
HETATM   62  O   UNL     1     -25.108  -3.177 -11.904  1.00  0.00    -0.360 OA
HETATM   63  H   UNL     1     -25.433  -3.567 -12.720  1.00  0.00     0.217 HD
ENDBRANCH  55  62
BRANCH  56  64
HETATM   64  C   UNL     1     -24.524  -4.014  -9.239  1.00  0.00    -0.021 C 
HETATM   65  C   UNL     1     -25.587  -2.890  -9.297  1.00  0.00     0.019 C 
HETATM   66  C   UNL     1     -25.333  -5.336  -9.363  1.00  0.00     0.019 C 
HETATM   67  C   UNL     1     -23.850  -4.045  -7.853  1.00  0.00     0.019 C 
ENDBRANCH  56  64
ENDBRANCH  51  52
ENDBRANCH  50  51
ENDBRANCH  48  50
ENDBRANCH  47  48
ENDBRANCH  46  47
ENDBRANCH   1  46
BRANCH   1  68
HETATM   68  C   UNL     1     -20.941  -6.571  -4.252  1.00  0.00     0.195 C 
BRANCH  68  69
HETATM   69  O   UNL     1     -21.021  -7.539  -3.158  1.00  0.00    -0.320 OA
BRANCH  69  70
HETATM   70  C   UNL     1     -20.934  -8.105  -1.806  1.00  0.00     0.259 C 
HETATM   71  O   UNL     1     -21.859  -7.623  -1.135  1.00  0.00    -0.265 OA
BRANCH  70  72
HETATM   72  C   UNL     1     -19.630  -9.813  -1.493  1.00  0.00     0.116 C 
BRANCH  72  73
HETATM   73  C   UNL     1     -19.896 -11.276  -0.600  1.00  0.00     0.048 C 
BRANCH  73  74
HETATM   74  C   UNL     1     -19.027 -12.370  -0.977  1.00  0.00    -0.056 A 
HETATM   75  C   UNL     1     -17.777 -12.465  -0.453  1.00  0.00     0.018 A 
HETATM   76  C   UNL     1     -16.888 -13.395  -0.904  1.00  0.00    -0.016 A 
HETATM   77  C   UNL     1     -17.392 -14.314  -1.866  1.00  0.00     0.079 A 
HETATM   78  C   UNL     1     -18.703 -14.225  -2.418  1.00  0.00    -0.016 A 
HETATM   79  C   UNL     1     -19.504 -13.224  -1.932  1.00  0.00     0.018 A 
BRANCH  76  80
HETATM   80  C   UNL     1     -15.529 -13.341  -0.201  1.00  0.00    -0.021 C 
HETATM   81  C   UNL     1     -15.225 -14.548   0.757  1.00  0.00     0.019 C 
HETATM   82  C   UNL     1     -14.478 -13.431  -1.308  1.00  0.00     0.019 C 
HETATM   83  C   UNL     1     -15.425 -12.115   0.711  1.00  0.00     0.019 C 
ENDBRANCH  76  80
BRANCH  77  84
HETATM   84  O   UNL     1     -16.637 -15.386  -2.237  1.00  0.00    -0.360 OA
HETATM   85  H   UNL     1     -15.948 -15.523  -1.576  1.00  0.00     0.217 HD
ENDBRANCH  77  84
BRANCH  78  86
HETATM   86  C   UNL     1     -19.418 -15.169  -3.386  1.00  0.00    -0.021 C 
HETATM   87  C   UNL     1     -20.050 -14.262  -4.464  1.00  0.00     0.019 C 
HETATM   88  C   UNL     1     -18.446 -16.171  -4.098  1.00  0.00     0.019 C 
HETATM   89  C   UNL     1     -20.469 -16.030  -2.695  1.00  0.00     0.019 C 
ENDBRANCH  78  86
ENDBRANCH  73  74
ENDBRANCH  72  73
ENDBRANCH  70  72
ENDBRANCH  69  70
ENDBRANCH  68  69
ENDBRANCH   1  68
TORSDOF 36
BEGIN_RES ARG D 557
REMARK  4 active torsions:
REMARK  status: ('A' for Active; 'I' for Inactive)
REMARK    1  A    between atoms: CA   and  CB  
REMARK    2  A    between atoms: CB   and  CG  
REMARK    3  A    between atoms: CG   and  CD  
REMARK    4  A    between atoms: CD   and  NE  
REMARK       I    between atoms: NE   and  CZ  
REMARK       I    between atoms: CZ   and  NH1 
REMARK       I    between atoms: CZ   and  NH2 
ROOT
ATOM      1  CA  ARG D 557     -26.217   2.705 -17.014  1.00 35.49     0.159 C 
ENDROOT
BRANCH   1   2
ATOM      2  CB  ARG D 557     -26.789   1.319 -17.183  1.00 35.49     0.034 C 
BRANCH   2   3
ATOM      3  CG  ARG D 557     -25.960   0.201 -16.717  1.00 35.49     0.027 C 
BRANCH   3   4
ATOM      4  CD  ARG D 557     -26.757  -0.853 -16.049  1.00 35.49     0.116 C 
BRANCH   4   5
ATOM      5  NE  ARG D 557     -27.989  -1.123 -16.743  1.00 35.49    -0.212 N 
ATOM      6  CZ  ARG D 557     -28.514  -2.311 -16.942  1.00 35.49     0.666 C 
ATOM      7  NH1 ARG D 557     -27.935  -3.421 -16.523  1.00 35.49    -0.235 N 
ATOM      8  NH2 ARG D 557     -29.650  -2.367 -17.574  1.00 35.49    -0.235 N 
ATOM      9  HH  ARG D 557     -27.188  -3.408 -16.103  1.00 35.49     0.174 HD
ATOM     10  HH  ARG D 557     -28.325  -4.168 -16.680  1.00 35.49     0.174 HD
ATOM     11  HH  ARG D 557     -30.004  -1.634 -17.827  1.00 35.49     0.174 HD
ATOM     12  HH  ARG D 557     -30.021  -3.116 -17.718  1.00 35.49     0.174 HD
ATOM     13  HE  ARG D 557     -28.392  -0.470 -17.110  1.00 35.49     0.178 HD
ENDBRANCH   4   5
ENDBRANCH   3   4
ENDBRANCH   2   3
ENDBRANCH   1   2
END_RES ARG D 557
BEGIN_RES GLU D 570
REMARK  3 active torsions:
REMARK  status: ('A' for Active; 'I' for Inactive)
REMARK    5  A    between atoms: CA   and  CB  
REMARK    6  A    between atoms: CB   and  CG  
REMARK    7  A    between atoms: CG   and  CD  
ROOT
ATOM     14  CA  GLU D 570     -18.033  -6.348 -13.375  1.00 32.92     0.160 C 
ENDROOT
BRANCH  14  15
ATOM     15  CB  GLU D 570     -19.500  -6.345 -13.794  1.00 32.92     0.043 C 
BRANCH  15  16
ATOM     16  CG  GLU D 570     -19.803  -6.596 -15.227  1.00 32.92     0.100 C 
BRANCH  16  17
ATOM     17  CD  GLU D 570     -21.025  -7.462 -15.428  1.00 32.92     0.185 C 
ATOM     18  OE1 GLU D 570     -22.128  -7.057 -15.012  1.00 32.92    -0.647 OA
ATOM     19  OE2 GLU D 570     -20.875  -8.563 -15.992  1.00 32.92    -0.647 OA
ENDBRANCH  16  17
ENDBRANCH  15  16
ENDBRANCH  14  15
END_RES GLU D 570
ENDMDL
MODEL 7
REMARK VINA RESULT:      -7.2      1.174      2.584
REMARK WARNING: 32 MAX_TORS EXCEEDED!!!
REMARK  36 active torsions:
REMARK  status: ('A' for Active; 'I' for Inactive)
REMARK    1  A    between atoms: C_2  and  C_5 
REMARK    2  A    between atoms: C_7  and  C_16 
REMARK    3  A    between atoms: C_9  and  C_12 
REMARK    4  A    between atoms: C_10  and  O_11 
REMARK    5  A    between atoms: C_16  and  C_17 
REMARK    6  A    between atoms: C_17  and  C_18 
REMARK    7  A    between atoms: C_18  and  O_20 
REMARK    8  A    between atoms: O_20  and  C_21 
REMARK    9  A    between atoms: C_21  and  C_22 
REMARK   10  A    between atoms: C_22  and  C_23 
REMARK   11  A    between atoms: C_22  and  C_44 
REMARK   12  A    between atoms: C_22  and  C_65 
REMARK   13  A    between atoms: C_23  and  O_24 
REMARK   14  A    between atoms: O_24  and  C_25 
REMARK   15  A    between atoms: C_25  and  C_27 
REMARK   16  A    between atoms: C_27  and  C_28 
REMARK   17  A    between atoms: C_28  and  C_29 
REMARK   18  A    between atoms: C_31  and  C_40 
REMARK   19  A    between atoms: C_32  and  O_39 
REMARK   20  A    between atoms: C_33  and  C_35 
REMARK   21  A    between atoms: C_44  and  O_45 
REMARK   22  A    between atoms: O_45  and  C_46 
REMARK   23  A    between atoms: C_46  and  C_48 
REMARK   24  A    between atoms: C_48  and  C_49 
REMARK   25  A    between atoms: C_49  and  C_50 
REMARK   26  A    between atoms: C_52  and  C_61 
REMARK   27  A    between atoms: C_53  and  O_60 
REMARK   28  A    between atoms: C_54  and  C_56 
REMARK   29  A    between atoms: C_65  and  O_66 
REMARK   30  A    between atoms: O_66  and  C_67 
REMARK   31  A    between atoms: C_67  and  C_69 
REMARK   32  A    between atoms: C_69  and  C_70 
REMARK   33  A    between atoms: C_70  and  C_71 
REMARK   34  A    between atoms: C_73  and  C_82 
REMARK   35  A    between atoms: C_74  and  O_81 
REMARK   36  A    between atoms: C_75  and  C_77 
ROOT
HETATM    1  C   UNL     1     -20.030  -9.889  -3.069  1.00  0.00     0.048 C 
ENDROOT
BRANCH   1   2
HETATM    2  C   UNL     1     -20.131 -11.443  -3.315  1.00  0.00     0.195 C 
BRANCH   2   3
HETATM    3  O   UNL     1     -20.945 -12.227  -2.419  1.00  0.00    -0.320 OA
BRANCH   3   4
HETATM    4  C   UNL     1     -20.329 -12.998  -1.468  1.00  0.00     0.259 C 
HETATM    5  O   UNL     1     -19.831 -12.575  -0.430  1.00  0.00    -0.265 OA
BRANCH   4   6
HETATM    6  C   UNL     1     -20.239 -14.464  -1.843  1.00  0.00     0.116 C 
BRANCH   6   7
HETATM    7  C   UNL     1     -18.821 -14.924  -2.055  1.00  0.00     0.048 C 
BRANCH   7   8
HETATM    8  C   UNL     1     -18.322 -14.639  -3.454  1.00  0.00    -0.056 C 
HETATM    9  C   UNL     1     -19.418 -14.474  -4.907  1.00  0.00     0.018 C 
HETATM   10  C   UNL     1     -18.709 -13.719  -6.470  1.00  0.00    -0.016 C 
HETATM   11  C   UNL     1     -16.984 -13.161  -6.438  1.00  0.00     0.079 C 
HETATM   12  C   UNL     1     -15.997 -13.251  -4.920  1.00  0.00    -0.016 C 
HETATM   13  C   UNL     1     -16.648 -14.075  -3.490  1.00  0.00     0.018 C 
BRANCH  10  14
HETATM   14  C   UNL     1     -19.389 -13.943  -7.786  1.00  0.00    -0.021 C 
HETATM   15  C   UNL     1     -20.912 -13.953  -7.570  1.00  0.00     0.019 C 
HETATM   16  C   UNL     1     -18.828 -15.214  -8.478  1.00  0.00     0.019 C 
HETATM   17  C   UNL     1     -19.010 -12.734  -8.626  1.00  0.00     0.019 C 
ENDBRANCH  10  14
BRANCH  11  18
HETATM   18  O   UNL     1     -16.336 -12.921  -7.613  1.00  0.00    -0.360 OA
HETATM   19  H   UNL     1     -16.870 -12.224  -8.041  1.00  0.00     0.217 HD
ENDBRANCH  11  18
BRANCH  12  20
HETATM   20  C   UNL     1     -14.556 -12.753  -4.818  1.00  0.00    -0.021 C 
HETATM   21  C   UNL     1     -14.616 -11.281  -5.260  1.00  0.00     0.019 C 
HETATM   22  C   UNL     1     -14.086 -13.097  -3.399  1.00  0.00     0.019 C 
HETATM   23  C   UNL     1     -13.506 -13.399  -5.758  1.00  0.00     0.019 C 
ENDBRANCH  12  20
ENDBRANCH   7   8
ENDBRANCH   6   7
ENDBRANCH   4   6
ENDBRANCH   3   4
ENDBRANCH   2   3
ENDBRANCH   1   2
BRANCH   1  24
HETATM   24  C   UNL     1     -20.760  -9.392  -1.845  1.00  0.00     0.195 C 
BRANCH  24  25
HETATM   25  O   UNL     1     -22.023  -9.897  -1.732  1.00  0.00    -0.320 OA
BRANCH  25  26
HETATM   26  C   UNL     1     -22.650  -9.562  -0.565  1.00  0.00     0.259 C 
HETATM   27  O   UNL     1     -23.060  -8.480  -0.181  1.00  0.00    -0.265 OA
BRANCH  26  28
HETATM   28  C   UNL     1     -22.955 -10.861   0.042  1.00  0.00     0.116 C 
BRANCH  28  29
HETATM   29  C   UNL     1     -24.018 -11.457  -0.872  1.00  0.00     0.048 C 
BRANCH  29  30
HETATM   30  C   UNL     1     -23.908 -12.913  -0.825  1.00  0.00    -0.056 A 
HETATM   31  C   UNL     1     -23.814 -13.564   0.395  1.00  0.00     0.018 A 
HETATM   32  C   UNL     1     -23.720 -14.948   0.459  1.00  0.00    -0.016 A 
HETATM   33  C   UNL     1     -23.678 -15.618  -0.799  1.00  0.00     0.079 A 
HETATM   34  C   UNL     1     -23.691 -14.945  -2.054  1.00  0.00    -0.016 A 
HETATM   35  C   UNL     1     -23.847 -13.576  -2.025  1.00  0.00     0.018 A 
BRANCH  32  36
HETATM   36  C   UNL     1     -23.714 -15.614   1.853  1.00  0.00    -0.021 C 
HETATM   37  C   UNL     1     -22.495 -16.562   2.093  1.00  0.00     0.019 C 
HETATM   38  C   UNL     1     -23.631 -14.535   2.951  1.00  0.00     0.019 C 
HETATM   39  C   UNL     1     -24.954 -16.509   2.058  1.00  0.00     0.019 C 
ENDBRANCH  32  36
BRANCH  33  40
HETATM   40  O   UNL     1     -23.678 -16.979  -0.867  1.00  0.00    -0.360 OA
HETATM   41  H   UNL     1     -24.086 -17.267  -1.688  1.00  0.00     0.217 HD
ENDBRANCH  33  40
BRANCH  34  42
HETATM   42  C   UNL     1     -23.627 -15.595  -3.445  1.00  0.00    -0.021 C 
HETATM   43  C   UNL     1     -23.160 -14.513  -4.435  1.00  0.00     0.019 C 
HETATM   44  C   UNL     1     -22.615 -16.781  -3.489  1.00  0.00     0.019 C 
HETATM   45  C   UNL     1     -24.961 -16.193  -3.915  1.00  0.00     0.019 C 
ENDBRANCH  34  42
ENDBRANCH  29  30
ENDBRANCH  28  29
ENDBRANCH  26  28
ENDBRANCH  25  26
ENDBRANCH  24  25
ENDBRANCH   1  24
BRANCH   1  46
HETATM   46  C   UNL     1     -18.596  -9.335  -3.125  1.00  0.00     0.195 C 
BRANCH  46  47
HETATM   47  O   UNL     1     -17.666 -10.413  -3.322  1.00  0.00    -0.320 OA
BRANCH  47  48
HETATM   48  C   UNL     1     -16.679 -10.501  -2.390  1.00  0.00     0.259 C 
HETATM   49  O   UNL     1     -15.797  -9.663  -2.253  1.00  0.00    -0.265 OA
BRANCH  48  50
HETATM   50  C   UNL     1     -16.984 -11.570  -1.367  1.00  0.00     0.116 C 
BRANCH  50  51
HETATM   51  C   UNL     1     -15.923 -11.665  -0.283  1.00  0.00     0.048 C 
BRANCH  51  52
HETATM   52  C   UNL     1     -15.666 -13.084   0.163  1.00  0.00    -0.056 A 
HETATM   53  C   UNL     1     -14.368 -13.600   0.278  1.00  0.00     0.018 A 
HETATM   54  C   UNL     1     -14.109 -14.915   0.728  1.00  0.00    -0.016 A 
HETATM   55  C   UNL     1     -15.250 -15.688   1.077  1.00  0.00     0.079 A 
HETATM   56  C   UNL     1     -16.574 -15.171   1.045  1.00  0.00    -0.016 A 
HETATM   57  C   UNL     1     -16.746 -13.877   0.536  1.00  0.00     0.018 A 
BRANCH  54  58
HETATM   58  C   UNL     1     -12.636 -15.389   0.897  1.00  0.00    -0.021 C 
HETATM   59  C   UNL     1     -12.353 -16.759   0.214  1.00  0.00     0.019 C 
HETATM   60  C   UNL     1     -11.679 -14.375   0.227  1.00  0.00     0.019 C 
HETATM   61  C   UNL     1     -12.223 -15.596   2.375  1.00  0.00     0.019 C 
ENDBRANCH  54  58
BRANCH  55  62
HETATM   62  O   UNL     1     -15.148 -16.995   1.471  1.00  0.00    -0.360 OA
HETATM   63  H   UNL     1     -14.277 -17.180   1.831  1.00  0.00     0.217 HD
ENDBRANCH  55  62
BRANCH  56  64
HETATM   64  C   UNL     1     -17.800 -15.947   1.591  1.00  0.00    -0.021 C 
HETATM   65  C   UNL     1     -19.065 -15.056   1.595  1.00  0.00     0.019 C 
HETATM   66  C   UNL     1     -18.184 -17.182   0.728  1.00  0.00     0.019 C 
HETATM   67  C   UNL     1     -17.513 -16.480   3.009  1.00  0.00     0.019 C 
ENDBRANCH  56  64
ENDBRANCH  51  52
ENDBRANCH  50  51
ENDBRANCH  48  50
ENDBRANCH  47  48
ENDBRANCH  46  47
ENDBRANCH   1  46
BRANCH   1  68
HETATM   68  C   UNL     1     -20.765  -9.211  -4.161  1.00  0.00     0.195 C 
BRANCH  68  69
HETATM   69  O   UNL     1     -21.262  -7.932  -3.653  1.00  0.00    -0.320 OA
BRANCH  69  70
HETATM   70  C   UNL     1     -21.966  -6.644  -3.606  1.00  0.00     0.259 C 
HETATM   71  O   UNL     1     -21.248  -5.843  -2.990  1.00  0.00    -0.265 OA
BRANCH  70  72
HETATM   72  C   UNL     1     -23.695  -6.375  -4.893  1.00  0.00     0.116 C 
BRANCH  72  73
HETATM   73  C   UNL     1     -24.071  -5.103  -6.011  1.00  0.00     0.048 C 
BRANCH  73  74
HETATM   74  C   UNL     1     -23.056  -4.878  -7.019  1.00  0.00    -0.056 A 
HETATM   75  C   UNL     1     -21.740  -4.991  -6.704  1.00  0.00     0.018 A 
HETATM   76  C   UNL     1     -20.766  -4.638  -7.591  1.00  0.00    -0.016 A 
HETATM   77  C   UNL     1     -21.220  -4.258  -8.884  1.00  0.00     0.079 A 
HETATM   78  C   UNL     1     -22.598  -4.141  -9.225  1.00  0.00    -0.016 A 
HETATM   79  C   UNL     1     -23.500  -4.473  -8.247  1.00  0.00     0.018 A 
BRANCH  76  80
HETATM   80  C   UNL     1     -19.344  -4.824  -7.053  1.00  0.00    -0.021 C 
HETATM   81  C   UNL     1     -19.145  -4.430  -5.546  1.00  0.00     0.019 C 
HETATM   82  C   UNL     1     -19.063  -6.326  -7.118  1.00  0.00     0.019 C 
HETATM   83  C   UNL     1     -18.348  -3.932  -7.800  1.00  0.00     0.019 C 
ENDBRANCH  76  80
BRANCH  77  84
HETATM   84  O   UNL     1     -20.317  -4.066  -9.888  1.00  0.00    -0.360 OA
HETATM   85  H   UNL     1     -19.608  -4.713  -9.793  1.00  0.00     0.217 HD
ENDBRANCH  77  84
BRANCH  78  86
HETATM   86  C   UNL     1     -23.245  -3.828 -10.576  1.00  0.00    -0.021 C 
HETATM   87  C   UNL     1     -22.305  -2.816 -11.265  1.00  0.00     0.019 C 
HETATM   88  C   UNL     1     -23.374  -5.086 -11.502  1.00  0.00     0.019 C 
HETATM   89  C   UNL     1     -24.657  -3.271 -10.433  1.00  0.00     0.019 C 
ENDBRANCH  78  86
ENDBRANCH  73  74
ENDBRANCH  72  73
ENDBRANCH  70  72
ENDBRANCH  69  70
ENDBRANCH  68  69
ENDBRANCH   1  68
TORSDOF 36
BEGIN_RES ARG D 557
REMARK  4 active torsions:
REMARK  status: ('A' for Active; 'I' for Inactive)
REMARK    1  A    between atoms: CA   and  CB  
REMARK    2  A    between atoms: CB   and  CG  
REMARK    3  A    between atoms: CG   and  CD  
REMARK    4  A    between atoms: CD   and  NE  
REMARK       I    between atoms: NE   and  CZ  
REMARK       I    between atoms: CZ   and  NH1 
REMARK       I    between atoms: CZ   and  NH2 
ROOT
ATOM      1  CA  ARG D 557     -26.217   2.705 -17.014  1.00 35.49     0.159 C 
ENDROOT
BRANCH   1   2
ATOM      2  CB  ARG D 557     -26.789   1.319 -17.183  1.00 35.49     0.034 C 
BRANCH   2   3
ATOM      3  CG  ARG D 557     -25.835   0.204 -17.163  1.00 35.49     0.027 C 
BRANCH   3   4
ATOM      4  CD  ARG D 557     -24.778   0.383 -16.142  1.00 35.49     0.116 C 
BRANCH   4   5
ATOM      5  NE  ARG D 557     -24.953  -0.499 -15.019  1.00 35.49    -0.212 N 
ATOM      6  CZ  ARG D 557     -24.150  -1.485 -14.684  1.00 35.49     0.666 C 
ATOM      7  NH1 ARG D 557     -23.069  -1.786 -15.378  1.00 35.49    -0.235 N 
ATOM      8  NH2 ARG D 557     -24.453  -2.170 -13.620  1.00 35.49    -0.235 N 
ATOM      9  HH  ARG D 557     -22.849  -1.347 -16.081  1.00 35.49     0.174 HD
ATOM     10  HH  ARG D 557     -22.581  -2.438 -15.111  1.00 35.49     0.174 HD
ATOM     11  HH  ARG D 557     -25.154  -1.948 -13.187  1.00 35.49     0.174 HD
ATOM     12  HH  ARG D 557     -23.957  -2.811 -13.370  1.00 35.49     0.174 HD
ATOM     13  HE  ARG D 557     -25.663  -0.423 -14.558  1.00 35.49     0.178 HD
ENDBRANCH   4   5
ENDBRANCH   3   4
ENDBRANCH   2   3
ENDBRANCH   1   2
END_RES ARG D 557
BEGIN_RES GLU D 570
REMARK  3 active torsions:
REMARK  status: ('A' for Active; 'I' for Inactive)
REMARK    5  A    between atoms: CA   and  CB  
REMARK    6  A    between atoms: CB   and  CG  
REMARK    7  A    between atoms: CG   and  CD  
ROOT
ATOM     14  CA  GLU D 570     -18.033  -6.348 -13.375  1.00 32.92     0.160 C 
ENDROOT
BRANCH  14  15
ATOM     15  CB  GLU D 570     -19.500  -6.345 -13.794  1.00 32.92     0.043 C 
BRANCH  15  16
ATOM     16  CG  GLU D 570     -19.796  -6.273 -15.248  1.00 32.92     0.100 C 
BRANCH  16  17
ATOM     17  CD  GLU D 570     -21.019  -5.441 -15.560  1.00 32.92     0.185 C 
ATOM     18  OE1 GLU D 570     -21.744  -5.056 -14.623  1.00 32.92    -0.647 OA
ATOM     19  OE2 GLU D 570     -21.263  -5.186 -16.756  1.00 32.92    -0.647 OA
ENDBRANCH  16  17
ENDBRANCH  15  16
ENDBRANCH  14  15
END_RES GLU D 570
ENDMDL
MODEL 8
REMARK VINA RESULT:      -7.2      1.972     11.474
REMARK WARNING: 32 MAX_TORS EXCEEDED!!!
REMARK  36 active torsions:
REMARK  status: ('A' for Active; 'I' for Inactive)
REMARK    1  A    between atoms: C_2  and  C_5 
REMARK    2  A    between atoms: C_7  and  C_16 
REMARK    3  A    between atoms: C_9  and  C_12 
REMARK    4  A    between atoms: C_10  and  O_11 
REMARK    5  A    between atoms: C_16  and  C_17 
REMARK    6  A    between atoms: C_17  and  C_18 
REMARK    7  A    between atoms: C_18  and  O_20 
REMARK    8  A    between atoms: O_20  and  C_21 
REMARK    9  A    between atoms: C_21  and  C_22 
REMARK   10  A    between atoms: C_22  and  C_23 
REMARK   11  A    between atoms: C_22  and  C_44 
REMARK   12  A    between atoms: C_22  and  C_65 
REMARK   13  A    between atoms: C_23  and  O_24 
REMARK   14  A    between atoms: O_24  and  C_25 
REMARK   15  A    between atoms: C_25  and  C_27 
REMARK   16  A    between atoms: C_27  and  C_28 
REMARK   17  A    between atoms: C_28  and  C_29 
REMARK   18  A    between atoms: C_31  and  C_40 
REMARK   19  A    between atoms: C_32  and  O_39 
REMARK   20  A    between atoms: C_33  and  C_35 
REMARK   21  A    between atoms: C_44  and  O_45 
REMARK   22  A    between atoms: O_45  and  C_46 
REMARK   23  A    between atoms: C_46  and  C_48 
REMARK   24  A    between atoms: C_48  and  C_49 
REMARK   25  A    between atoms: C_49  and  C_50 
REMARK   26  A    between atoms: C_52  and  C_61 
REMARK   27  A    between atoms: C_53  and  O_60 
REMARK   28  A    between atoms: C_54  and  C_56 
REMARK   29  A    between atoms: C_65  and  O_66 
REMARK   30  A    between atoms: O_66  and  C_67 
REMARK   31  A    between atoms: C_67  and  C_69 
REMARK   32  A    between atoms: C_69  and  C_70 
REMARK   33  A    between atoms: C_70  and  C_71 
REMARK   34  A    between atoms: C_73  and  C_82 
REMARK   35  A    between atoms: C_74  and  O_81 
REMARK   36  A    between atoms: C_75  and  C_77 
ROOT
HETATM    1  C   UNL     1     -20.713  -7.300  -5.514  1.00  0.00     0.048 C 
ENDROOT
BRANCH   1   2
HETATM    2  C   UNL     1     -21.698  -8.531  -5.497  1.00  0.00     0.195 C 
BRANCH   2   3
HETATM    3  O   UNL     1     -21.385  -9.670  -6.325  1.00  0.00    -0.320 OA
BRANCH   3   4
HETATM    4  C   UNL     1     -21.503 -10.928  -5.794  1.00  0.00     0.259 C 
HETATM    5  O   UNL     1     -21.729 -11.947  -6.437  1.00  0.00    -0.265 OA
BRANCH   4   6
HETATM    6  C   UNL     1     -21.402 -10.958  -4.282  1.00  0.00     0.116 C 
BRANCH   6   7
HETATM    7  C   UNL     1     -22.737 -11.154  -3.613  1.00  0.00     0.048 C 
BRANCH   7   8
HETATM    8  C   UNL     1     -22.885 -12.534  -3.011  1.00  0.00    -0.056 C 
HETATM    9  C   UNL     1     -22.988 -12.849  -1.214  1.00  0.00     0.018 C 
HETATM   10  C   UNL     1     -23.582 -14.533  -0.642  1.00  0.00    -0.016 C 
HETATM   11  C   UNL     1     -24.057 -15.742  -1.908  1.00  0.00     0.079 C 
HETATM   12  C   UNL     1     -24.040 -15.312  -3.669  1.00  0.00    -0.016 C 
HETATM   13  C   UNL     1     -23.364 -13.758  -4.193  1.00  0.00     0.018 C 
BRANCH  10  14
HETATM   14  C   UNL     1     -23.287 -14.999   0.751  1.00  0.00    -0.021 C 
HETATM   15  C   UNL     1     -21.914 -15.693   0.769  1.00  0.00     0.019 C 
HETATM   16  C   UNL     1     -24.454 -15.865   1.293  1.00  0.00     0.019 C 
HETATM   17  C   UNL     1     -23.214 -13.723   1.576  1.00  0.00     0.019 C 
ENDBRANCH  10  14
BRANCH  11  18
HETATM   18  O   UNL     1     -24.172 -17.057  -1.569  1.00  0.00    -0.360 OA
HETATM   19  H   UNL     1     -25.136 -17.219  -1.565  1.00  0.00     0.217 HD
ENDBRANCH  11  18
BRANCH  12  20
HETATM   20  C   UNL     1     -24.474 -16.270  -4.778  1.00  0.00    -0.021 C 
HETATM   21  C   UNL     1     -23.257 -17.182  -5.008  1.00  0.00     0.019 C 
HETATM   22  C   UNL     1     -25.802 -16.883  -4.316  1.00  0.00     0.019 C 
HETATM   23  C   UNL     1     -24.773 -15.662  -6.172  1.00  0.00     0.019 C 
ENDBRANCH  12  20
ENDBRANCH   7   8
ENDBRANCH   6   7
ENDBRANCH   4   6
ENDBRANCH   3   4
ENDBRANCH   2   3
ENDBRANCH   1   2
BRANCH   1  24
HETATM   24  C   UNL     1     -19.255  -7.651  -5.343  1.00  0.00     0.195 C 
BRANCH  24  25
HETATM   25  O   UNL     1     -18.930  -8.865  -5.873  1.00  0.00    -0.320 OA
BRANCH  25  26
HETATM   26  C   UNL     1     -17.986  -9.546  -5.158  1.00  0.00     0.259 C 
HETATM   27  O   UNL     1     -17.563  -9.346  -4.032  1.00  0.00    -0.265 OA
BRANCH  26  28
HETATM   28  C   UNL     1     -17.757 -10.752  -5.959  1.00  0.00     0.116 C 
BRANCH  28  29
HETATM   29  C   UNL     1     -16.802 -11.584  -5.112  1.00  0.00     0.048 C 
BRANCH  29  30
HETATM   30  C   UNL     1     -16.638 -12.891  -5.743  1.00  0.00    -0.056 A 
HETATM   31  C   UNL     1     -17.600 -13.365  -6.621  1.00  0.00     0.018 A 
HETATM   32  C   UNL     1     -17.455 -14.600  -7.239  1.00  0.00    -0.016 A 
HETATM   33  C   UNL     1     -16.294 -15.339  -6.867  1.00  0.00     0.079 A 
HETATM   34  C   UNL     1     -15.347 -14.890  -5.903  1.00  0.00    -0.016 A 
HETATM   35  C   UNL     1     -15.536 -13.627  -5.384  1.00  0.00     0.018 A 
BRANCH  32  36
HETATM   36  C   UNL     1     -18.518 -15.025  -8.277  1.00  0.00    -0.021 C 
HETATM   37  C   UNL     1     -19.325 -16.298  -7.867  1.00  0.00     0.019 C 
HETATM   38  C   UNL     1     -19.562 -13.903  -8.450  1.00  0.00     0.019 C 
HETATM   39  C   UNL     1     -17.874 -15.386  -9.631  1.00  0.00     0.019 C 
ENDBRANCH  32  36
BRANCH  33  40
HETATM   40  O   UNL     1     -15.995 -16.523  -7.471  1.00  0.00    -0.360 OA
HETATM   41  H   UNL     1     -16.191 -16.471  -8.411  1.00  0.00     0.217 HD
ENDBRANCH  33  40
BRANCH  34  42
HETATM   42  C   UNL     1     -14.088 -15.636  -5.436  1.00  0.00    -0.021 C 
HETATM   43  C   UNL     1     -13.354 -14.720  -4.441  1.00  0.00     0.019 C 
HETATM   44  C   UNL     1     -14.436 -16.975  -4.716  1.00  0.00     0.019 C 
HETATM   45  C   UNL     1     -13.140 -16.034  -6.577  1.00  0.00     0.019 C 
ENDBRANCH  34  42
ENDBRANCH  29  30
ENDBRANCH  28  29
ENDBRANCH  26  28
ENDBRANCH  25  26
ENDBRANCH  24  25
ENDBRANCH   1  24
BRANCH   1  46
HETATM   46  C   UNL     1     -20.920  -6.345  -6.702  1.00  0.00     0.195 C 
BRANCH  46  47
HETATM   47  O   UNL     1     -19.663  -6.110  -7.359  1.00  0.00    -0.320 OA
BRANCH  47  48
HETATM   48  C   UNL     1     -19.664  -5.084  -8.254  1.00  0.00     0.259 C 
HETATM   49  O   UNL     1     -19.463  -3.916  -7.948  1.00  0.00    -0.265 OA
BRANCH  48  50
HETATM   50  C   UNL     1     -19.629  -5.595  -9.675  1.00  0.00     0.116 C 
BRANCH  50  51
HETATM   51  C   UNL     1     -19.708  -4.479 -10.703  1.00  0.00     0.048 C 
BRANCH  51  52
HETATM   52  C   UNL     1     -21.127  -4.118 -11.068  1.00  0.00    -0.056 A 
HETATM   53  C   UNL     1     -21.508  -3.860 -12.392  1.00  0.00     0.018 A 
HETATM   54  C   UNL     1     -22.841  -3.555 -12.755  1.00  0.00    -0.016 A 
HETATM   55  C   UNL     1     -23.785  -3.539 -11.693  1.00  0.00     0.079 A 
HETATM   56  C   UNL     1     -23.448  -3.871 -10.351  1.00  0.00    -0.016 A 
HETATM   57  C   UNL     1     -22.096  -4.109 -10.070  1.00  0.00     0.018 A 
BRANCH  54  58
HETATM   58  C   UNL     1     -23.197  -3.352 -14.257  1.00  0.00    -0.021 C 
HETATM   59  C   UNL     1     -23.432  -1.861 -14.633  1.00  0.00     0.019 C 
HETATM   60  C   UNL     1     -22.023  -3.834 -15.143  1.00  0.00     0.019 C 
HETATM   61  C   UNL     1     -24.500  -4.073 -14.681  1.00  0.00     0.019 C 
ENDBRANCH  54  58
BRANCH  55  62
HETATM   62  O   UNL     1     -25.097  -3.202 -11.893  1.00  0.00    -0.360 OA
HETATM   63  H   UNL     1     -25.321  -2.395 -11.421  1.00  0.00     0.217 HD
ENDBRANCH  55  62
BRANCH  56  64
HETATM   64  C   UNL     1     -24.502  -4.029  -9.227  1.00  0.00    -0.021 C 
HETATM   65  C   UNL     1     -25.275  -5.363  -9.373  1.00  0.00     0.019 C 
HETATM   66  C   UNL     1     -23.883  -4.080  -7.802  1.00  0.00     0.019 C 
HETATM   67  C   UNL     1     -25.481  -2.838  -9.233  1.00  0.00     0.019 C 
ENDBRANCH  56  64
ENDBRANCH  51  52
ENDBRANCH  50  51
ENDBRANCH  48  50
ENDBRANCH  47  48
ENDBRANCH  46  47
ENDBRANCH   1  46
BRANCH   1  68
HETATM   68  C   UNL     1     -20.979  -6.494  -4.301  1.00  0.00     0.195 C 
BRANCH  68  69
HETATM   69  O   UNL     1     -21.132  -7.407  -3.168  1.00  0.00    -0.320 OA
BRANCH  69  70
HETATM   70  C   UNL     1     -20.961  -7.990  -1.831  1.00  0.00     0.259 C 
HETATM   71  O   UNL     1     -21.841  -7.515  -1.097  1.00  0.00    -0.265 OA
BRANCH  70  72
HETATM   72  C   UNL     1     -19.644  -9.704  -1.621  1.00  0.00     0.116 C 
BRANCH  72  73
HETATM   73  C   UNL     1     -19.920 -11.242  -0.868  1.00  0.00     0.048 C 
BRANCH  73  74
HETATM   74  C   UNL     1     -19.029 -12.292  -1.315  1.00  0.00    -0.056 A 
HETATM   75  C   UNL     1     -19.467 -13.237  -2.187  1.00  0.00     0.018 A 
HETATM   76  C   UNL     1     -18.698 -14.318  -2.505  1.00  0.00    -0.016 A 
HETATM   77  C   UNL     1     -17.388 -14.326  -1.954  1.00  0.00     0.079 A 
HETATM   78  C   UNL     1     -16.919 -13.337  -1.041  1.00  0.00    -0.016 A 
HETATM   79  C   UNL     1     -17.785 -12.316  -0.748  1.00  0.00     0.018 A 
BRANCH  76  80
HETATM   80  C   UNL     1     -19.364 -15.278  -3.495  1.00  0.00    -0.021 C 
HETATM   81  C   UNL     1     -20.506 -16.173  -2.893  1.00  0.00     0.019 C 
HETATM   82  C   UNL     1     -20.052 -14.396  -4.539  1.00  0.00     0.019 C 
HETATM   83  C   UNL     1     -18.357 -16.292  -4.047  1.00  0.00     0.019 C 
ENDBRANCH  76  80
BRANCH  77  84
HETATM   84  O   UNL     1     -16.489 -15.267  -2.361  1.00  0.00    -0.360 OA
HETATM   85  H   UNL     1     -15.642 -14.836  -2.521  1.00  0.00     0.217 HD
ENDBRANCH  77  84
BRANCH  78  86
HETATM   86  C   UNL     1     -15.528 -13.158  -0.429  1.00  0.00    -0.021 C 
HETATM   87  C   UNL     1     -14.578 -12.901  -1.618  1.00  0.00     0.019 C 
HETATM   88  C   UNL     1     -15.438 -11.933   0.544  1.00  0.00     0.019 C 
HETATM   89  C   UNL     1     -15.088 -14.369   0.386  1.00  0.00     0.019 C 
ENDBRANCH  78  86
ENDBRANCH  73  74
ENDBRANCH  72  73
ENDBRANCH  70  72
ENDBRANCH  69  70
ENDBRANCH  68  69
ENDBRANCH   1  68
TORSDOF 36
BEGIN_RES ARG D 557
REMARK  4 active torsions:
REMARK  status: ('A' for Active; 'I' for Inactive)
REMARK    1  A    between atoms: CA   and  CB  
REMARK    2  A    between atoms: CB   and  CG  
REMARK    3  A    between atoms: CG   and  CD  
REMARK    4  A    between atoms: CD   and  NE  
REMARK       I    between atoms: NE   and  CZ  
REMARK       I    between atoms: CZ   and  NH1 
REMARK       I    between atoms: CZ   and  NH2 
ROOT
ATOM      1  CA  ARG D 557     -26.217   2.705 -17.014  1.00 35.49     0.159 C 
ENDROOT
BRANCH   1   2
ATOM      2  CB  ARG D 557     -26.789   1.319 -17.183  1.00 35.49     0.034 C 
BRANCH   2   3
ATOM      3  CG  ARG D 557     -25.950   0.199 -16.738  1.00 35.49     0.027 C 
BRANCH   3   4
ATOM      4  CD  ARG D 557     -26.734  -0.859 -16.062  1.00 35.49     0.116 C 
BRANCH   4   5
ATOM      5  NE  ARG D 557     -27.987  -1.113 -16.724  1.00 35.49    -0.212 N 
ATOM      6  CZ  ARG D 557     -28.509  -2.297 -16.953  1.00 35.49     0.666 C 
ATOM      7  NH1 ARG D 557     -27.907  -3.418 -16.599  1.00 35.49    -0.235 N 
ATOM      8  NH2 ARG D 557     -29.666  -2.338 -17.548  1.00 35.49    -0.235 N 
ATOM      9  HH  ARG D 557     -27.147  -3.414 -16.205  1.00 35.49     0.174 HD
ATOM     10  HH  ARG D 557     -28.297  -4.161 -16.772  1.00 35.49     0.174 HD
ATOM     11  HH  ARG D 557     -30.034  -1.599 -17.759  1.00 35.49     0.174 HD
ATOM     12  HH  ARG D 557     -30.036  -3.084 -17.709  1.00 35.49     0.174 HD
ATOM     13  HE  ARG D 557     -28.407  -0.450 -17.051  1.00 35.49     0.178 HD
ENDBRANCH   4   5
ENDBRANCH   3   4
ENDBRANCH   2   3
ENDBRANCH   1   2
END_RES ARG D 557
BEGIN_RES GLU D 570
REMARK  3 active torsions:
REMARK  status: ('A' for Active; 'I' for Inactive)
REMARK    5  A    between atoms: CA   and  CB  
REMARK    6  A    between atoms: CB   and  CG  
REMARK    7  A    between atoms: CG   and  CD  
ROOT
ATOM     14  CA  GLU D 570     -18.033  -6.348 -13.375  1.00 32.92     0.160 C 
ENDROOT
BRANCH  14  15
ATOM     15  CB  GLU D 570     -19.500  -6.345 -13.794  1.00 32.92     0.043 C 
BRANCH  15  16
ATOM     16  CG  GLU D 570     -19.798  -6.457 -15.245  1.00 32.92     0.100 C 
BRANCH  16  17
ATOM     17  CD  GLU D 570     -20.821  -7.524 -15.557  1.00 32.92     0.185 C 
ATOM     18  OE1 GLU D 570     -20.432  -8.636 -15.961  1.00 32.92    -0.647 OA
ATOM     19  OE2 GLU D 570     -22.026  -7.238 -15.411  1.00 32.92    -0.647 OA
ENDBRANCH  16  17
ENDBRANCH  15  16
ENDBRANCH  14  15
END_RES GLU D 570
ENDMDL
MODEL 9
REMARK VINA RESULT:      -7.2      0.906      3.585
REMARK WARNING: 32 MAX_TORS EXCEEDED!!!
REMARK  36 active torsions:
REMARK  status: ('A' for Active; 'I' for Inactive)
REMARK    1  A    between atoms: C_2  and  C_5 
REMARK    2  A    between atoms: C_7  and  C_16 
REMARK    3  A    between atoms: C_9  and  C_12 
REMARK    4  A    between atoms: C_10  and  O_11 
REMARK    5  A    between atoms: C_16  and  C_17 
REMARK    6  A    between atoms: C_17  and  C_18 
REMARK    7  A    between atoms: C_18  and  O_20 
REMARK    8  A    between atoms: O_20  and  C_21 
REMARK    9  A    between atoms: C_21  and  C_22 
REMARK   10  A    between atoms: C_22  and  C_23 
REMARK   11  A    between atoms: C_22  and  C_44 
REMARK   12  A    between atoms: C_22  and  C_65 
REMARK   13  A    between atoms: C_23  and  O_24 
REMARK   14  A    between atoms: O_24  and  C_25 
REMARK   15  A    between atoms: C_25  and  C_27 
REMARK   16  A    between atoms: C_27  and  C_28 
REMARK   17  A    between atoms: C_28  and  C_29 
REMARK   18  A    between atoms: C_31  and  C_40 
REMARK   19  A    between atoms: C_32  and  O_39 
REMARK   20  A    between atoms: C_33  and  C_35 
REMARK   21  A    between atoms: C_44  and  O_45 
REMARK   22  A    between atoms: O_45  and  C_46 
REMARK   23  A    between atoms: C_46  and  C_48 
REMARK   24  A    between atoms: C_48  and  C_49 
REMARK   25  A    between atoms: C_49  and  C_50 
REMARK   26  A    between atoms: C_52  and  C_61 
REMARK   27  A    between atoms: C_53  and  O_60 
REMARK   28  A    between atoms: C_54  and  C_56 
REMARK   29  A    between atoms: C_65  and  O_66 
REMARK   30  A    between atoms: O_66  and  C_67 
REMARK   31  A    between atoms: C_67  and  C_69 
REMARK   32  A    between atoms: C_69  and  C_70 
REMARK   33  A    between atoms: C_70  and  C_71 
REMARK   34  A    between atoms: C_73  and  C_82 
REMARK   35  A    between atoms: C_74  and  O_81 
REMARK   36  A    between atoms: C_75  and  C_77 
ROOT
HETATM    1  C   UNL     1     -19.913  -9.868  -2.927  1.00  0.00     0.048 C 
ENDROOT
BRANCH   1   2
HETATM    2  C   UNL     1     -20.004 -11.422  -3.177  1.00  0.00     0.195 C 
BRANCH   2   3
HETATM    3  O   UNL     1     -20.838 -12.209  -2.301  1.00  0.00    -0.320 OA
BRANCH   3   4
HETATM    4  C   UNL     1     -20.243 -12.996  -1.350  1.00  0.00     0.259 C 
HETATM    5  O   UNL     1     -19.690 -12.582  -0.337  1.00  0.00    -0.265 OA
BRANCH   4   6
HETATM    6  C   UNL     1     -20.254 -14.472  -1.694  1.00  0.00     0.116 C 
BRANCH   6   7
HETATM    7  C   UNL     1     -18.878 -15.014  -1.977  1.00  0.00     0.048 C 
BRANCH   7   8
HETATM    8  C   UNL     1     -18.251 -14.392  -3.205  1.00  0.00    -0.056 C 
HETATM    9  C   UNL     1     -16.499 -13.881  -3.301  1.00  0.00     0.018 C 
HETATM   10  C   UNL     1     -15.772 -13.520  -4.991  1.00  0.00    -0.016 C 
HETATM   11  C   UNL     1     -16.842 -13.735  -6.439  1.00  0.00     0.079 C 
HETATM   12  C   UNL     1     -18.535 -14.359  -6.271  1.00  0.00    -0.016 C 
HETATM   13  C   UNL     1     -19.239 -14.581  -4.658  1.00  0.00     0.018 C 
BRANCH  10  14
HETATM   14  C   UNL     1     -14.521 -12.705  -5.110  1.00  0.00    -0.021 C 
HETATM   15  C   UNL     1     -14.899 -11.248  -5.428  1.00  0.00     0.019 C 
HETATM   16  C   UNL     1     -13.544 -13.354  -6.126  1.00  0.00     0.019 C 
HETATM   17  C   UNL     1     -13.888 -12.769  -3.729  1.00  0.00     0.019 C 
ENDBRANCH  10  14
BRANCH  11  18
HETATM   18  O   UNL     1     -16.477 -13.179  -7.630  1.00  0.00    -0.360 OA
HETATM   19  H   UNL     1     -17.068 -12.406  -7.721  1.00  0.00     0.217 HD
ENDBRANCH  11  18
BRANCH  12  20
HETATM   20  C   UNL     1     -19.468 -14.606  -7.457  1.00  0.00    -0.021 C 
HETATM   21  C   UNL     1     -19.850 -13.202  -7.955  1.00  0.00     0.019 C 
HETATM   22  C   UNL     1     -18.721 -15.564  -8.394  1.00  0.00     0.019 C 
HETATM   23  C   UNL     1     -20.824 -15.300  -7.168  1.00  0.00     0.019 C 
ENDBRANCH  12  20
ENDBRANCH   7   8
ENDBRANCH   6   7
ENDBRANCH   4   6
ENDBRANCH   3   4
ENDBRANCH   2   3
ENDBRANCH   1   2
BRANCH   1  24
HETATM   24  C   UNL     1     -20.727  -9.364  -1.759  1.00  0.00     0.195 C 
BRANCH  24  25
HETATM   25  O   UNL     1     -21.976  -9.909  -1.702  1.00  0.00    -0.320 OA
BRANCH  25  26
HETATM   26  C   UNL     1     -22.673  -9.577  -0.575  1.00  0.00     0.259 C 
HETATM   27  O   UNL     1     -23.097  -8.493  -0.209  1.00  0.00    -0.265 OA
BRANCH  26  28
HETATM   28  C   UNL     1     -23.029 -10.877   0.001  1.00  0.00     0.116 C 
BRANCH  28  29
HETATM   29  C   UNL     1     -23.969 -11.493  -1.028  1.00  0.00     0.048 C 
BRANCH  29  30
HETATM   30  C   UNL     1     -23.879 -12.948  -0.928  1.00  0.00    -0.056 A 
HETATM   31  C   UNL     1     -23.785 -13.555   0.315  1.00  0.00     0.018 A 
HETATM   32  C   UNL     1     -23.710 -14.937   0.429  1.00  0.00    -0.016 A 
HETATM   33  C   UNL     1     -23.686 -15.653  -0.803  1.00  0.00     0.079 A 
HETATM   34  C   UNL     1     -23.699 -15.027  -2.082  1.00  0.00    -0.016 A 
HETATM   35  C   UNL     1     -23.836 -13.655  -2.103  1.00  0.00     0.018 A 
BRANCH  32  36
HETATM   36  C   UNL     1     -23.703 -15.551   1.847  1.00  0.00    -0.021 C 
HETATM   37  C   UNL     1     -22.482 -16.486   2.122  1.00  0.00     0.019 C 
HETATM   38  C   UNL     1     -23.622 -14.432   2.904  1.00  0.00     0.019 C 
HETATM   39  C   UNL     1     -24.941 -16.440   2.085  1.00  0.00     0.019 C 
ENDBRANCH  32  36
BRANCH  33  40
HETATM   40  O   UNL     1     -23.705 -17.016  -0.821  1.00  0.00    -0.360 OA
HETATM   41  H   UNL     1     -22.820 -17.358  -0.668  1.00  0.00     0.217 HD
ENDBRANCH  33  40
BRANCH  34  42
HETATM   42  C   UNL     1     -23.654 -15.728  -3.448  1.00  0.00    -0.021 C 
HETATM   43  C   UNL     1     -25.022 -16.397  -3.666  1.00  0.00     0.019 C 
HETATM   44  C   UNL     1     -23.401 -14.722  -4.613  1.00  0.00     0.019 C 
HETATM   45  C   UNL     1     -22.535 -16.773  -3.576  1.00  0.00     0.019 C 
ENDBRANCH  34  42
ENDBRANCH  29  30
ENDBRANCH  28  29
ENDBRANCH  26  28
ENDBRANCH  25  26
ENDBRANCH  24  25
ENDBRANCH   1  24
BRANCH   1  46
HETATM   46  C   UNL     1     -18.476  -9.320  -2.881  1.00  0.00     0.195 C 
BRANCH  46  47
HETATM   47  O   UNL     1     -17.544 -10.379  -3.161  1.00  0.00    -0.320 OA
BRANCH  47  48
HETATM   48  C   UNL     1     -16.542 -10.521  -2.251  1.00  0.00     0.259 C 
HETATM   49  O   UNL     1     -15.585  -9.761  -2.170  1.00  0.00    -0.265 OA
BRANCH  48  50
HETATM   50  C   UNL     1     -16.911 -11.519  -1.179  1.00  0.00     0.116 C 
BRANCH  50  51
HETATM   51  C   UNL     1     -15.856 -11.631  -0.091  1.00  0.00     0.048 C 
BRANCH  51  52
HETATM   52  C   UNL     1     -15.597 -13.057   0.330  1.00  0.00    -0.056 A 
HETATM   53  C   UNL     1     -14.299 -13.574   0.436  1.00  0.00     0.018 A 
HETATM   54  C   UNL     1     -14.039 -14.896   0.864  1.00  0.00    -0.016 A 
HETATM   55  C   UNL     1     -15.179 -15.676   1.199  1.00  0.00     0.079 A 
HETATM   56  C   UNL     1     -16.504 -15.159   1.176  1.00  0.00    -0.016 A 
HETATM   57  C   UNL     1     -16.677 -13.857   0.690  1.00  0.00     0.018 A 
BRANCH  54  58
HETATM   58  C   UNL     1     -12.566 -15.372   1.025  1.00  0.00    -0.021 C 
HETATM   59  C   UNL     1     -11.528 -14.330   0.515  1.00  0.00     0.019 C 
HETATM   60  C   UNL     1     -12.247 -15.591   2.523  1.00  0.00     0.019 C 
HETATM   61  C   UNL     1     -12.247 -16.662   0.230  1.00  0.00     0.019 C 
ENDBRANCH  54  58
BRANCH  55  62
HETATM   62  O   UNL     1     -15.077 -16.990   1.571  1.00  0.00    -0.360 OA
HETATM   63  H   UNL     1     -14.254 -17.374   1.256  1.00  0.00     0.217 HD
ENDBRANCH  55  62
BRANCH  56  64
HETATM   64  C   UNL     1     -17.729 -15.945   1.709  1.00  0.00    -0.021 C 
HETATM   65  C   UNL     1     -19.002 -15.065   1.700  1.00  0.00     0.019 C 
HETATM   66  C   UNL     1     -18.094 -17.183   0.841  1.00  0.00     0.019 C 
HETATM   67  C   UNL     1     -17.453 -16.478   3.130  1.00  0.00     0.019 C 
ENDBRANCH  56  64
ENDBRANCH  51  52
ENDBRANCH  50  51
ENDBRANCH  48  50
ENDBRANCH  47  48
ENDBRANCH  46  47
ENDBRANCH   1  46
BRANCH   1  68
HETATM   68  C   UNL     1     -20.564  -9.189  -4.070  1.00  0.00     0.195 C 
BRANCH  68  69
HETATM   69  O   UNL     1     -21.095  -7.909  -3.600  1.00  0.00    -0.320 OA
BRANCH  69  70
HETATM   70  C   UNL     1     -21.903  -6.684  -3.550  1.00  0.00     0.259 C 
HETATM   71  O   UNL     1     -21.291  -5.856  -2.858  1.00  0.00    -0.265 OA
BRANCH  70  72
HETATM   72  C   UNL     1     -23.565  -6.495  -4.936  1.00  0.00     0.116 C 
BRANCH  72  73
HETATM   73  C   UNL     1     -24.041  -5.161  -5.937  1.00  0.00     0.048 C 
BRANCH  73  74
HETATM   74  C   UNL     1     -23.089  -4.827  -6.975  1.00  0.00    -0.056 A 
HETATM   75  C   UNL     1     -23.522  -4.443  -8.204  1.00  0.00     0.018 A 
HETATM   76  C   UNL     1     -22.652  -4.270  -9.240  1.00  0.00    -0.016 A 
HETATM   77  C   UNL     1     -21.275  -4.411  -8.918  1.00  0.00     0.079 A 
HETATM   78  C   UNL     1     -20.811  -4.810  -7.631  1.00  0.00    -0.016 A 
HETATM   79  C   UNL     1     -21.769  -5.005  -6.669  1.00  0.00     0.018 A 
BRANCH  76  80
HETATM   80  C   UNL     1     -23.327  -3.846 -10.548  1.00  0.00    -0.021 C 
HETATM   81  C   UNL     1     -22.585  -2.714 -11.345  1.00  0.00     0.019 C 
HETATM   82  C   UNL     1     -23.288  -5.073 -11.460  1.00  0.00     0.019 C 
HETATM   83  C   UNL     1     -24.719  -3.260 -10.289  1.00  0.00     0.019 C 
ENDBRANCH  76  80
BRANCH  77  84
HETATM   84  O   UNL     1     -20.327  -4.078  -9.840  1.00  0.00    -0.360 OA
HETATM   85  H   UNL     1     -20.620  -4.381 -10.707  1.00  0.00     0.217 HD
ENDBRANCH  77  84
BRANCH  78  86
HETATM   86  C   UNL     1     -19.380  -4.927  -7.105  1.00  0.00    -0.021 C 
HETATM   87  C   UNL     1     -19.442  -4.497  -5.623  1.00  0.00     0.019 C 
HETATM   88  C   UNL     1     -18.819  -6.389  -7.167  1.00  0.00     0.019 C 
HETATM   89  C   UNL     1     -18.395  -4.070  -7.893  1.00  0.00     0.019 C 
ENDBRANCH  78  86
ENDBRANCH  73  74
ENDBRANCH  72  73
ENDBRANCH  70  72
ENDBRANCH  69  70
ENDBRANCH  68  69
ENDBRANCH   1  68
TORSDOF 36
BEGIN_RES ARG D 557
REMARK  4 active torsions:
REMARK  status: ('A' for Active; 'I' for Inactive)
REMARK    1  A    between atoms: CA   and  CB  
REMARK    2  A    between atoms: CB   and  CG  
REMARK    3  A    between atoms: CG   and  CD  
REMARK    4  A    between atoms: CD   and  NE  
REMARK       I    between atoms: NE   and  CZ  
REMARK       I    between atoms: CZ   and  NH1 
REMARK       I    between atoms: CZ   and  NH2 
ROOT
ATOM      1  CA  ARG D 557     -26.217   2.705 -17.014  1.00 35.49     0.159 C 
ENDROOT
BRANCH   1   2
ATOM      2  CB  ARG D 557     -26.789   1.319 -17.183  1.00 35.49     0.034 C 
BRANCH   2   3
ATOM      3  CG  ARG D 557     -26.103   0.230 -16.476  1.00 35.49     0.027 C 
BRANCH   3   4
ATOM      4  CD  ARG D 557     -27.014  -0.889 -16.145  1.00 35.49     0.116 C 
BRANCH   4   5
ATOM      5  NE  ARG D 557     -26.347  -1.931 -15.410  1.00 35.49    -0.212 N 
ATOM      6  CZ  ARG D 557     -25.251  -1.789 -14.698  1.00 35.49     0.666 C 
ATOM      7  NH1 ARG D 557     -24.620  -0.634 -14.592  1.00 35.49    -0.235 N 
ATOM      8  NH2 ARG D 557     -24.797  -2.839 -14.078  1.00 35.49    -0.235 N 
ATOM      9  HH  ARG D 557     -24.902   0.071 -14.989  1.00 35.49     0.174 HD
ATOM     10  HH  ARG D 557     -23.911  -0.601 -14.111  1.00 35.49     0.174 HD
ATOM     11  HH  ARG D 557     -25.230  -3.570 -14.159  1.00 35.49     0.174 HD
ATOM     12  HH  ARG D 557     -24.095  -2.785 -13.606  1.00 35.49     0.174 HD
ATOM     13  HE  ARG D 557     -26.645  -2.724 -15.481  1.00 35.49     0.178 HD
ENDBRANCH   4   5
ENDBRANCH   3   4
ENDBRANCH   2   3
ENDBRANCH   1   2
END_RES ARG D 557
BEGIN_RES GLU D 570
REMARK  3 active torsions:
REMARK  status: ('A' for Active; 'I' for Inactive)
REMARK    5  A    between atoms: CA   and  CB  
REMARK    6  A    between atoms: CB   and  CG  
REMARK    7  A    between atoms: CG   and  CD  
ROOT
ATOM     14  CA  GLU D 570     -18.033  -6.348 -13.375  1.00 32.92     0.160 C 
ENDROOT
BRANCH  14  15
ATOM     15  CB  GLU D 570     -19.500  -6.345 -13.794  1.00 32.92     0.043 C 
BRANCH  15  16
ATOM     16  CG  GLU D 570     -20.062  -7.612 -14.328  1.00 32.92     0.100 C 
BRANCH  16  17
ATOM     17  CD  GLU D 570     -20.705  -7.446 -15.685  1.00 32.92     0.185 C 
ATOM     18  OE1 GLU D 570     -21.399  -8.374 -16.144  1.00 32.92    -0.647 OA
ATOM     19  OE2 GLU D 570     -20.499  -6.383 -16.304  1.00 32.92    -0.647 OA
ENDBRANCH  16  17
ENDBRANCH  15  16
ENDBRANCH  14  15
END_RES GLU D 570
ENDMDL
