MODEL 1
REMARK VINA RESULT:      -5.5      0.000      0.000
REMARK  7 active torsions:
REMARK  status: ('A' for Active; 'I' for Inactive)
REMARK    1  A    between atoms: C_2  and  C_3 
REMARK    2  A    between atoms: C_3  and  C_4 
REMARK    3  A    between atoms: C_4  and  C_5 
REMARK    4  A    between atoms: C_5  and  C_6 
REMARK    5  A    between atoms: C_6  and  C_7 
REMARK    6  A    between atoms: C_7  and  C_8 
REMARK    7  A    between atoms: C_8  and  O_10 
ROOT
HETATM    1  C   UNL     1     -21.950  -4.433  -9.521  1.00  0.00     0.010 C 
ENDROOT
BRANCH   1   2
HETATM    2  C   UNL     1     -20.458  -4.119  -9.616  1.00  0.00     0.001 C 
BRANCH   2   3
HETATM    3  C   UNL     1     -19.827  -4.058  -8.225  1.00  0.00     0.000 C 
BRANCH   3   4
HETATM    4  C   UNL     1     -20.883  -3.867  -7.137  1.00  0.00    -0.000 C 
BRANCH   4   5
HETATM    5  C   UNL     1     -20.659  -4.834  -5.974  1.00  0.00    -0.005 C 
HETATM    6  C   UNL     1     -20.072  -6.152  -6.454  1.00  0.00     0.005 C 
ENDBRANCH   4   5
ENDBRANCH   3   4
ENDBRANCH   2   3
ENDBRANCH   1   2
BRANCH   1   7
HETATM    7  C   UNL     1     -22.789  -3.496 -10.388  1.00  0.00     0.110 C 
BRANCH   7   8
HETATM    8  C   UNL     1     -24.223  -3.438  -9.913  1.00  0.00     0.139 C 
HETATM    9  O   UNL     1     -25.194  -3.213 -10.616  1.00  0.00    -0.650 OA
BRANCH   8  10
HETATM   10  O   UNL     1     -24.334  -3.668  -8.583  1.00  0.00    -0.776 OA
HETATM   11  H   UNL     1     -25.171  -4.099  -8.328  1.00  0.00     0.167 HD
ENDBRANCH   8  10
ENDBRANCH   7   8
ENDBRANCH   1   7
TORSDOF 7
BEGIN_RES ARG D 557
REMARK  4 active torsions:
REMARK  status: ('A' for Active; 'I' for Inactive)
REMARK    1  A    between atoms: CA   and  CB  
REMARK    2  A    between atoms: CB   and  CG  
REMARK    3  A    between atoms: CG   and  CD  
REMARK    4  A    between atoms: CD   and  NE  
REMARK       I    between atoms: NE   and  CZ  
REMARK       I    between atoms: CZ   and  NH1 
REMARK       I    between atoms: CZ   and  NH2 
ROOT
ATOM      1  CA  ARG D 557     -26.217   2.705 -17.014  1.00 35.49     0.159 C 
ENDROOT
BRANCH   1   2
ATOM      2  CB  ARG D 557     -26.789   1.319 -17.183  1.00 35.49     0.034 C 
BRANCH   2   3
ATOM      3  CG  ARG D 557     -25.838   0.202 -17.135  1.00 35.49     0.027 C 
BRANCH   3   4
ATOM      4  CD  ARG D 557     -24.781   0.403 -16.119  1.00 35.49     0.116 C 
BRANCH   4   5
ATOM      5  NE  ARG D 557     -24.945  -0.468 -14.985  1.00 35.49    -0.212 N 
ATOM      6  CZ  ARG D 557     -24.130  -1.438 -14.638  1.00 35.49     0.666 C 
ATOM      7  NH1 ARG D 557     -23.043  -1.733 -15.328  1.00 35.49    -0.235 N 
ATOM      8  NH2 ARG D 557     -24.424  -2.115 -13.566  1.00 35.49    -0.235 N 
ATOM      9  HH  ARG D 557     -22.829  -1.300 -16.035  1.00 35.49     0.174 HD
ATOM     10  HH  ARG D 557     -22.548  -2.375 -15.052  1.00 35.49     0.174 HD
ATOM     11  HH  ARG D 557     -25.128  -1.897 -13.136  1.00 35.49     0.174 HD
ATOM     12  HH  ARG D 557     -23.920  -2.746 -13.308  1.00 35.49     0.174 HD
ATOM     13  HE  ARG D 557     -25.657  -0.396 -14.526  1.00 35.49     0.178 HD
ENDBRANCH   4   5
ENDBRANCH   3   4
ENDBRANCH   2   3
ENDBRANCH   1   2
END_RES ARG D 557
BEGIN_RES GLU D 570
REMARK  3 active torsions:
REMARK  status: ('A' for Active; 'I' for Inactive)
REMARK    5  A    between atoms: CA   and  CB  
REMARK    6  A    between atoms: CB   and  CG  
REMARK    7  A    between atoms: CG   and  CD  
ROOT
ATOM     14  CA  GLU D 570     -18.033  -6.348 -13.375  1.00 32.92     0.160 C 
ENDROOT
BRANCH  14  15
ATOM     15  CB  GLU D 570     -19.500  -6.345 -13.794  1.00 32.92     0.043 C 
BRANCH  15  16
ATOM     16  CG  GLU D 570     -20.440  -5.523 -12.989  1.00 32.92     0.100 C 
BRANCH  16  17
ATOM     17  CD  GLU D 570     -21.738  -5.237 -13.709  1.00 32.92     0.185 C 
ATOM     18  OE1 GLU D 570     -22.227  -4.093 -13.643  1.00 32.92    -0.647 OA
ATOM     19  OE2 GLU D 570     -22.279  -6.172 -14.331  1.00 32.92    -0.647 OA
ENDBRANCH  16  17
ENDBRANCH  15  16
ENDBRANCH  14  15
END_RES GLU D 570
ENDMDL
MODEL 2
REMARK VINA RESULT:      -5.3      1.285      1.712
REMARK  7 active torsions:
REMARK  status: ('A' for Active; 'I' for Inactive)
REMARK    1  A    between atoms: C_2  and  C_3 
REMARK    2  A    between atoms: C_3  and  C_4 
REMARK    3  A    between atoms: C_4  and  C_5 
REMARK    4  A    between atoms: C_5  and  C_6 
REMARK    5  A    between atoms: C_6  and  C_7 
REMARK    6  A    between atoms: C_7  and  C_8 
REMARK    7  A    between atoms: C_8  and  O_10 
ROOT
HETATM    1  C   UNL     1     -22.669  -4.720  -9.811  1.00  0.00     0.010 C 
ENDROOT
BRANCH   1   2
HETATM    2  C   UNL     1     -21.334  -3.979  -9.884  1.00  0.00     0.001 C 
BRANCH   2   3
HETATM    3  C   UNL     1     -20.264  -4.711  -9.073  1.00  0.00     0.000 C 
BRANCH   3   4
HETATM    4  C   UNL     1     -19.925  -3.963  -7.784  1.00  0.00    -0.000 C 
BRANCH   4   5
HETATM    5  C   UNL     1     -19.982  -4.894  -6.573  1.00  0.00    -0.005 C 
HETATM    6  C   UNL     1     -21.403  -5.358  -6.297  1.00  0.00     0.005 C 
ENDBRANCH   4   5
ENDBRANCH   3   4
ENDBRANCH   2   3
ENDBRANCH   1   2
BRANCH   1   7
HETATM    7  C   UNL     1     -23.747  -3.890  -9.117  1.00  0.00     0.110 C 
BRANCH   7   8
HETATM    8  C   UNL     1     -24.732  -3.319 -10.112  1.00  0.00     0.139 C 
HETATM    9  O   UNL     1     -24.458  -2.933 -11.237  1.00  0.00    -0.650 OA
BRANCH   8  10
HETATM   10  O   UNL     1     -25.992  -3.271  -9.620  1.00  0.00    -0.776 OA
HETATM   11  H   UNL     1     -26.338  -4.141  -9.345  1.00  0.00     0.167 HD
ENDBRANCH   8  10
ENDBRANCH   7   8
ENDBRANCH   1   7
TORSDOF 7
BEGIN_RES ARG D 557
REMARK  4 active torsions:
REMARK  status: ('A' for Active; 'I' for Inactive)
REMARK    1  A    between atoms: CA   and  CB  
REMARK    2  A    between atoms: CB   and  CG  
REMARK    3  A    between atoms: CG   and  CD  
REMARK    4  A    between atoms: CD   and  NE  
REMARK       I    between atoms: NE   and  CZ  
REMARK       I    between atoms: CZ   and  NH1 
REMARK       I    between atoms: CZ   and  NH2 
ROOT
ATOM      1  CA  ARG D 557     -26.217   2.705 -17.014  1.00 35.49     0.159 C 
ENDROOT
BRANCH   1   2
ATOM      2  CB  ARG D 557     -26.789   1.319 -17.183  1.00 35.49     0.034 C 
BRANCH   2   3
ATOM      3  CG  ARG D 557     -25.934   0.197 -16.775  1.00 35.49     0.027 C 
BRANCH   3   4
ATOM      4  CD  ARG D 557     -26.695  -0.870 -16.086  1.00 35.49     0.116 C 
BRANCH   4   5
ATOM      5  NE  ARG D 557     -25.884  -1.589 -15.139  1.00 35.49    -0.212 N 
ATOM      6  CZ  ARG D 557     -25.971  -2.873 -14.872  1.00 35.49     0.666 C 
ATOM      7  NH1 ARG D 557     -26.854  -3.661 -15.457  1.00 35.49    -0.235 N 
ATOM      8  NH2 ARG D 557     -25.139  -3.362 -13.999  1.00 35.49    -0.235 N 
ATOM      9  HH  ARG D 557     -27.409  -3.361 -16.036  1.00 35.49     0.174 HD
ATOM     10  HH  ARG D 557     -26.862  -4.491 -15.245  1.00 35.49     0.174 HD
ATOM     11  HH  ARG D 557     -24.574  -2.831 -13.643  1.00 35.49     0.174 HD
ATOM     12  HH  ARG D 557     -25.162  -4.187 -13.804  1.00 35.49     0.174 HD
ATOM     13  HE  ARG D 557     -25.337  -1.145 -14.663  1.00 35.49     0.178 HD
ENDBRANCH   4   5
ENDBRANCH   3   4
ENDBRANCH   2   3
ENDBRANCH   1   2
END_RES ARG D 557
BEGIN_RES GLU D 570
REMARK  3 active torsions:
REMARK  status: ('A' for Active; 'I' for Inactive)
REMARK    5  A    between atoms: CA   and  CB  
REMARK    6  A    between atoms: CB   and  CG  
REMARK    7  A    between atoms: CG   and  CD  
ROOT
ATOM     14  CA  GLU D 570     -18.033  -6.348 -13.375  1.00 32.92     0.160 C 
ENDROOT
BRANCH  14  15
ATOM     15  CB  GLU D 570     -19.500  -6.345 -13.794  1.00 32.92     0.043 C 
BRANCH  15  16
ATOM     16  CG  GLU D 570     -20.444  -5.539 -12.977  1.00 32.92     0.100 C 
BRANCH  16  17
ATOM     17  CD  GLU D 570     -21.744  -5.252 -13.691  1.00 32.92     0.185 C 
ATOM     18  OE1 GLU D 570     -22.215  -6.112 -14.459  1.00 32.92    -0.647 OA
ATOM     19  OE2 GLU D 570     -22.290  -4.149 -13.491  1.00 32.92    -0.647 OA
ENDBRANCH  16  17
ENDBRANCH  15  16
ENDBRANCH  14  15
END_RES GLU D 570
ENDMDL
MODEL 3
REMARK VINA RESULT:      -5.2      7.673      9.567
REMARK  7 active torsions:
REMARK  status: ('A' for Active; 'I' for Inactive)
REMARK    1  A    between atoms: C_2  and  C_3 
REMARK    2  A    between atoms: C_3  and  C_4 
REMARK    3  A    between atoms: C_4  and  C_5 
REMARK    4  A    between atoms: C_5  and  C_6 
REMARK    5  A    between atoms: C_6  and  C_7 
REMARK    6  A    between atoms: C_7  and  C_8 
REMARK    7  A    between atoms: C_8  and  O_10 
ROOT
HETATM    1  C   UNL     1     -33.456  -2.311 -10.934  1.00  0.00     0.010 C 
ENDROOT
BRANCH   1   2
HETATM    2  C   UNL     1     -33.144  -3.782 -11.204  1.00  0.00     0.001 C 
BRANCH   2   3
HETATM    3  C   UNL     1     -34.192  -4.687 -10.557  1.00  0.00     0.000 C 
BRANCH   3   4
HETATM    4  C   UNL     1     -33.923  -6.162 -10.853  1.00  0.00    -0.000 C 
BRANCH   4   5
HETATM    5  C   UNL     1     -34.765  -7.069  -9.954  1.00  0.00    -0.005 C 
HETATM    6  C   UNL     1     -34.172  -8.466  -9.867  1.00  0.00     0.005 C 
ENDBRANCH   4   5
ENDBRANCH   3   4
ENDBRANCH   2   3
ENDBRANCH   1   2
BRANCH   1   7
HETATM    7  C   UNL     1     -34.933  -1.989 -11.155  1.00  0.00     0.110 C 
BRANCH   7   8
HETATM    8  C   UNL     1     -35.182  -1.477 -12.556  1.00  0.00     0.139 C 
HETATM    9  O   UNL     1     -34.906  -2.069 -13.586  1.00  0.00    -0.650 OA
BRANCH   8  10
HETATM   10  O   UNL     1     -35.762  -0.253 -12.560  1.00  0.00    -0.776 OA
HETATM   11  H   UNL     1     -35.929   0.105 -11.669  1.00  0.00     0.167 HD
ENDBRANCH   8  10
ENDBRANCH   7   8
ENDBRANCH   1   7
TORSDOF 7
BEGIN_RES ARG D 557
REMARK  4 active torsions:
REMARK  status: ('A' for Active; 'I' for Inactive)
REMARK    1  A    between atoms: CA   and  CB  
REMARK    2  A    between atoms: CB   and  CG  
REMARK    3  A    between atoms: CG   and  CD  
REMARK    4  A    between atoms: CD   and  NE  
REMARK       I    between atoms: NE   and  CZ  
REMARK       I    between atoms: CZ   and  NH1 
REMARK       I    between atoms: CZ   and  NH2 
ROOT
ATOM      1  CA  ARG D 557     -26.217   2.705 -17.014  1.00 35.49     0.159 C 
ENDROOT
BRANCH   1   2
ATOM      2  CB  ARG D 557     -26.789   1.319 -17.183  1.00 35.49     0.034 C 
BRANCH   2   3
ATOM      3  CG  ARG D 557     -28.232   1.226 -17.435  1.00 35.49     0.027 C 
BRANCH   3   4
ATOM      4  CD  ARG D 557     -28.910   0.300 -16.499  1.00 35.49     0.116 C 
BRANCH   4   5
ATOM      5  NE  ARG D 557     -29.310  -0.924 -17.141  1.00 35.49    -0.212 N 
ATOM      6  CZ  ARG D 557     -28.692  -2.080 -17.045  1.00 35.49     0.666 C 
ATOM      7  NH1 ARG D 557     -27.591  -2.238 -16.333  1.00 35.49    -0.235 N 
ATOM      8  NH2 ARG D 557     -29.209  -3.091 -17.679  1.00 35.49    -0.235 N 
ATOM      9  HH  ARG D 557     -27.235  -1.586 -15.906  1.00 35.49     0.174 HD
ATOM     10  HH  ARG D 557     -27.233  -3.016 -16.305  1.00 35.49     0.174 HD
ATOM     11  HH  ARG D 557     -29.924  -2.961 -18.125  1.00 35.49     0.174 HD
ATOM     12  HH  ARG D 557     -28.841  -3.854 -17.638  1.00 35.49     0.174 HD
ATOM     13  HE  ARG D 557     -29.969  -0.896 -17.678  1.00 35.49     0.178 HD
ENDBRANCH   4   5
ENDBRANCH   3   4
ENDBRANCH   2   3
ENDBRANCH   1   2
END_RES ARG D 557
BEGIN_RES GLU D 570
REMARK  3 active torsions:
REMARK  status: ('A' for Active; 'I' for Inactive)
REMARK    5  A    between atoms: CA   and  CB  
REMARK    6  A    between atoms: CB   and  CG  
REMARK    7  A    between atoms: CG   and  CD  
ROOT
ATOM     14  CA  GLU D 570     -18.033  -6.348 -13.375  1.00 32.92     0.160 C 
ENDROOT
BRANCH  14  15
ATOM     15  CB  GLU D 570     -19.500  -6.345 -13.794  1.00 32.92     0.043 C 
BRANCH  15  16
ATOM     16  CG  GLU D 570     -20.445  -5.545 -12.973  1.00 32.92     0.100 C 
BRANCH  16  17
ATOM     17  CD  GLU D 570     -21.747  -5.259 -13.683  1.00 32.92     0.185 C 
ATOM     18  OE1 GLU D 570     -22.261  -6.150 -14.387  1.00 32.92    -0.647 OA
ATOM     19  OE2 GLU D 570     -22.251  -4.127 -13.548  1.00 32.92    -0.647 OA
ENDBRANCH  16  17
ENDBRANCH  15  16
ENDBRANCH  14  15
END_RES GLU D 570
ENDMDL
MODEL 4
REMARK VINA RESULT:      -5.1      7.371      9.200
REMARK  7 active torsions:
REMARK  status: ('A' for Active; 'I' for Inactive)
REMARK    1  A    between atoms: C_2  and  C_3 
REMARK    2  A    between atoms: C_3  and  C_4 
REMARK    3  A    between atoms: C_4  and  C_5 
REMARK    4  A    between atoms: C_5  and  C_6 
REMARK    5  A    between atoms: C_6  and  C_7 
REMARK    6  A    between atoms: C_7  and  C_8 
REMARK    7  A    between atoms: C_8  and  O_10 
ROOT
HETATM    1  C   UNL     1     -33.876  -3.149 -10.633  1.00  0.00     0.010 C 
ENDROOT
BRANCH   1   2
HETATM    2  C   UNL     1     -33.175  -4.246 -11.434  1.00  0.00     0.001 C 
BRANCH   2   3
HETATM    3  C   UNL     1     -34.052  -5.494 -11.526  1.00  0.00     0.000 C 
BRANCH   3   4
HETATM    4  C   UNL     1     -34.328  -6.092 -10.147  1.00  0.00    -0.000 C 
BRANCH   4   5
HETATM    5  C   UNL     1     -34.920  -7.497 -10.261  1.00  0.00    -0.005 C 
HETATM    6  C   UNL     1     -33.923  -8.556  -9.819  1.00  0.00     0.005 C 
ENDBRANCH   4   5
ENDBRANCH   3   4
ENDBRANCH   2   3
ENDBRANCH   1   2
BRANCH   1   7
HETATM    7  C   UNL     1     -35.163  -2.679 -11.309  1.00  0.00     0.110 C 
BRANCH   7   8
HETATM    8  C   UNL     1     -34.893  -1.572 -12.303  1.00  0.00     0.139 C 
HETATM    9  O   UNL     1     -34.638  -0.413 -12.020  1.00  0.00    -0.650 OA
BRANCH   8  10
HETATM   10  O   UNL     1     -34.963  -2.003 -13.585  1.00  0.00    -0.776 OA
HETATM   11  H   UNL     1     -34.136  -2.404 -13.909  1.00  0.00     0.167 HD
ENDBRANCH   8  10
ENDBRANCH   7   8
ENDBRANCH   1   7
TORSDOF 7
BEGIN_RES ARG D 557
REMARK  4 active torsions:
REMARK  status: ('A' for Active; 'I' for Inactive)
REMARK    1  A    between atoms: CA   and  CB  
REMARK    2  A    between atoms: CB   and  CG  
REMARK    3  A    between atoms: CG   and  CD  
REMARK    4  A    between atoms: CD   and  NE  
REMARK       I    between atoms: NE   and  CZ  
REMARK       I    between atoms: CZ   and  NH1 
REMARK       I    between atoms: CZ   and  NH2 
ROOT
ATOM      1  CA  ARG D 557     -26.217   2.705 -17.014  1.00 35.49     0.159 C 
ENDROOT
BRANCH   1   2
ATOM      2  CB  ARG D 557     -26.789   1.319 -17.183  1.00 35.49     0.034 C 
BRANCH   2   3
ATOM      3  CG  ARG D 557     -25.862   0.195 -17.004  1.00 35.49     0.027 C 
BRANCH   3   4
ATOM      4  CD  ARG D 557     -26.295  -0.729 -15.931  1.00 35.49     0.116 C 
BRANCH   4   5
ATOM      5  NE  ARG D 557     -25.268  -0.934 -14.944  1.00 35.49    -0.212 N 
ATOM      6  CZ  ARG D 557     -24.997  -2.071 -14.343  1.00 35.49     0.666 C 
ATOM      7  NH1 ARG D 557     -25.674  -3.179 -14.582  1.00 35.49    -0.235 N 
ATOM      8  NH2 ARG D 557     -24.015  -2.080 -13.490  1.00 35.49    -0.235 N 
ATOM      9  HH  ARG D 557     -26.323  -3.197 -15.142  1.00 35.49     0.174 HD
ATOM     10  HH  ARG D 557     -25.450  -3.892 -14.162  1.00 35.49     0.174 HD
ATOM     11  HH  ARG D 557     -23.590  -1.351 -13.361  1.00 35.49     0.174 HD
ATOM     12  HH  ARG D 557     -23.807  -2.795 -13.085  1.00 35.49     0.174 HD
ATOM     13  HE  ARG D 557     -24.830  -0.256 -14.676  1.00 35.49     0.178 HD
ENDBRANCH   4   5
ENDBRANCH   3   4
ENDBRANCH   2   3
ENDBRANCH   1   2
END_RES ARG D 557
BEGIN_RES GLU D 570
REMARK  3 active torsions:
REMARK  status: ('A' for Active; 'I' for Inactive)
REMARK    5  A    between atoms: CA   and  CB  
REMARK    6  A    between atoms: CB   and  CG  
REMARK    7  A    between atoms: CG   and  CD  
ROOT
ATOM     14  CA  GLU D 570     -18.033  -6.348 -13.375  1.00 32.92     0.160 C 
ENDROOT
BRANCH  14  15
ATOM     15  CB  GLU D 570     -19.500  -6.345 -13.794  1.00 32.92     0.043 C 
BRANCH  15  16
ATOM     16  CG  GLU D 570     -20.451  -5.573 -12.953  1.00 32.92     0.100 C 
BRANCH  16  17
ATOM     17  CD  GLU D 570     -21.698  -5.161 -13.699  1.00 32.92     0.185 C 
ATOM     18  OE1 GLU D 570     -22.667  -4.712 -13.057  1.00 32.92    -0.647 OA
ATOM     19  OE2 GLU D 570     -21.713  -5.305 -14.937  1.00 32.92    -0.647 OA
ENDBRANCH  16  17
ENDBRANCH  15  16
ENDBRANCH  14  15
END_RES GLU D 570
ENDMDL
MODEL 5
REMARK VINA RESULT:      -5.1      3.124      4.241
REMARK  7 active torsions:
REMARK  status: ('A' for Active; 'I' for Inactive)
REMARK    1  A    between atoms: C_2  and  C_3 
REMARK    2  A    between atoms: C_3  and  C_4 
REMARK    3  A    between atoms: C_4  and  C_5 
REMARK    4  A    between atoms: C_5  and  C_6 
REMARK    5  A    between atoms: C_6  and  C_7 
REMARK    6  A    between atoms: C_7  and  C_8 
REMARK    7  A    between atoms: C_8  and  O_10 
ROOT
HETATM    1  C   UNL     1     -23.734  -2.904 -12.930  1.00  0.00     0.010 C 
ENDROOT
BRANCH   1   2
HETATM    2  C   UNL     1     -22.391  -2.736 -12.221  1.00  0.00     0.001 C 
BRANCH   2   3
HETATM    3  C   UNL     1     -21.894  -4.075 -11.677  1.00  0.00     0.000 C 
BRANCH   3   4
HETATM    4  C   UNL     1     -22.720  -4.537 -10.477  1.00  0.00    -0.000 C 
BRANCH   4   5
HETATM    5  C   UNL     1     -21.979  -4.280  -9.164  1.00  0.00    -0.005 C 
HETATM    6  C   UNL     1     -20.472  -4.361  -9.353  1.00  0.00     0.005 C 
ENDBRANCH   4   5
ENDBRANCH   3   4
ENDBRANCH   2   3
ENDBRANCH   1   2
BRANCH   1   7
HETATM    7  C   UNL     1     -23.702  -2.358 -14.356  1.00  0.00     0.110 C 
BRANCH   7   8
HETATM    8  C   UNL     1     -24.969  -1.601 -14.686  1.00  0.00     0.139 C 
HETATM    9  O   UNL     1     -26.068  -2.102 -14.858  1.00  0.00    -0.650 OA
BRANCH   8  10
HETATM   10  O   UNL     1     -24.762  -0.267 -14.778  1.00  0.00    -0.776 OA
HETATM   11  H   UNL     1     -25.207   0.147 -15.541  1.00  0.00     0.167 HD
ENDBRANCH   8  10
ENDBRANCH   7   8
ENDBRANCH   1   7
TORSDOF 7
BEGIN_RES ARG D 557
REMARK  4 active torsions:
REMARK  status: ('A' for Active; 'I' for Inactive)
REMARK    1  A    between atoms: CA   and  CB  
REMARK    2  A    between atoms: CB   and  CG  
REMARK    3  A    between atoms: CG   and  CD  
REMARK    4  A    between atoms: CD   and  NE  
REMARK       I    between atoms: NE   and  CZ  
REMARK       I    between atoms: CZ   and  NH1 
REMARK       I    between atoms: CZ   and  NH2 
ROOT
ATOM      1  CA  ARG D 557     -26.217   2.705 -17.014  1.00 35.49     0.159 C 
ENDROOT
BRANCH   1   2
ATOM      2  CB  ARG D 557     -26.789   1.319 -17.183  1.00 35.49     0.034 C 
BRANCH   2   3
ATOM      3  CG  ARG D 557     -28.137   1.091 -16.649  1.00 35.49     0.027 C 
BRANCH   3   4
ATOM      4  CD  ARG D 557     -28.802  -0.076 -17.273  1.00 35.49     0.116 C 
BRANCH   4   5
ATOM      5  NE  ARG D 557     -28.204  -1.321 -16.868  1.00 35.49    -0.212 N 
ATOM      6  CZ  ARG D 557     -28.715  -2.517 -17.059  1.00 35.49     0.666 C 
ATOM      7  NH1 ARG D 557     -29.881  -2.703 -17.650  1.00 35.49    -0.235 N 
ATOM      8  NH2 ARG D 557     -28.024  -3.538 -16.645  1.00 35.49    -0.235 N 
ATOM      9  HH  ARG D 557     -30.352  -2.045 -17.932  1.00 35.49     0.174 HD
ATOM     10  HH  ARG D 557     -30.163  -3.506 -17.749  1.00 35.49     0.174 HD
ATOM     11  HH  ARG D 557     -27.271  -3.388 -16.273  1.00 35.49     0.174 HD
ATOM     12  HH  ARG D 557     -28.319  -4.326 -16.753  1.00 35.49     0.174 HD
ATOM     13  HE  ARG D 557     -27.485  -1.290 -16.415  1.00 35.49     0.178 HD
ENDBRANCH   4   5
ENDBRANCH   3   4
ENDBRANCH   2   3
ENDBRANCH   1   2
END_RES ARG D 557
BEGIN_RES GLU D 570
REMARK  3 active torsions:
REMARK  status: ('A' for Active; 'I' for Inactive)
REMARK    5  A    between atoms: CA   and  CB  
REMARK    6  A    between atoms: CB   and  CG  
REMARK    7  A    between atoms: CG   and  CD  
ROOT
ATOM     14  CA  GLU D 570     -18.033  -6.348 -13.375  1.00 32.92     0.160 C 
ENDROOT
BRANCH  14  15
ATOM     15  CB  GLU D 570     -19.500  -6.345 -13.794  1.00 32.92     0.043 C 
BRANCH  15  16
ATOM     16  CG  GLU D 570     -19.820  -5.861 -15.162  1.00 32.92     0.100 C 
BRANCH  16  17
ATOM     17  CD  GLU D 570     -21.282  -5.522 -15.340  1.00 32.92     0.185 C 
ATOM     18  OE1 GLU D 570     -21.614  -4.731 -16.243  1.00 32.92    -0.647 OA
ATOM     19  OE2 GLU D 570     -22.102  -6.041 -14.556  1.00 32.92    -0.647 OA
ENDBRANCH  16  17
ENDBRANCH  15  16
ENDBRANCH  14  15
END_RES GLU D 570
ENDMDL
MODEL 6
REMARK VINA RESULT:      -4.9      7.203      9.681
REMARK  7 active torsions:
REMARK  status: ('A' for Active; 'I' for Inactive)
REMARK    1  A    between atoms: C_2  and  C_3 
REMARK    2  A    between atoms: C_3  and  C_4 
REMARK    3  A    between atoms: C_4  and  C_5 
REMARK    4  A    between atoms: C_5  and  C_6 
REMARK    5  A    between atoms: C_6  and  C_7 
REMARK    6  A    between atoms: C_7  and  C_8 
REMARK    7  A    between atoms: C_8  and  O_10 
ROOT
HETATM    1  C   UNL     1     -33.558  -3.614 -10.850  1.00  0.00     0.010 C 
ENDROOT
BRANCH   1   2
HETATM    2  C   UNL     1     -33.827  -2.112 -10.925  1.00  0.00     0.001 C 
BRANCH   2   3
HETATM    3  C   UNL     1     -35.299  -1.811 -10.640  1.00  0.00     0.000 C 
BRANCH   3   4
HETATM    4  C   UNL     1     -35.869  -0.801 -11.635  1.00  0.00    -0.000 C 
BRANCH   4   5
HETATM    5  C   UNL     1     -34.965  -0.659 -12.860  1.00  0.00    -0.005 C 
HETATM    6  C   UNL     1     -34.859   0.791 -13.306  1.00  0.00     0.005 C 
ENDBRANCH   4   5
ENDBRANCH   3   4
ENDBRANCH   2   3
ENDBRANCH   1   2
BRANCH   1   7
HETATM    7  C   UNL     1     -33.016  -4.166 -12.167  1.00  0.00     0.110 C 
BRANCH   7   8
HETATM    8  C   UNL     1     -34.108  -4.283 -13.207  1.00  0.00     0.139 C 
HETATM    9  O   UNL     1     -34.206  -3.596 -14.211  1.00  0.00    -0.650 OA
BRANCH   8  10
HETATM   10  O   UNL     1     -35.000  -5.256 -12.909  1.00  0.00    -0.776 OA
HETATM   11  H   UNL     1     -34.642  -6.158 -13.005  1.00  0.00     0.167 HD
ENDBRANCH   8  10
ENDBRANCH   7   8
ENDBRANCH   1   7
TORSDOF 7
BEGIN_RES ARG D 557
REMARK  4 active torsions:
REMARK  status: ('A' for Active; 'I' for Inactive)
REMARK    1  A    between atoms: CA   and  CB  
REMARK    2  A    between atoms: CB   and  CG  
REMARK    3  A    between atoms: CG   and  CD  
REMARK    4  A    between atoms: CD   and  NE  
REMARK       I    between atoms: NE   and  CZ  
REMARK       I    between atoms: CZ   and  NH1 
REMARK       I    between atoms: CZ   and  NH2 
ROOT
ATOM      1  CA  ARG D 557     -26.217   2.705 -17.014  1.00 35.49     0.159 C 
ENDROOT
BRANCH   1   2
ATOM      2  CB  ARG D 557     -26.789   1.319 -17.183  1.00 35.49     0.034 C 
BRANCH   2   3
ATOM      3  CG  ARG D 557     -25.864   0.195 -16.996  1.00 35.49     0.027 C 
BRANCH   3   4
ATOM      4  CD  ARG D 557     -26.290  -0.711 -15.904  1.00 35.49     0.116 C 
BRANCH   4   5
ATOM      5  NE  ARG D 557     -25.241  -0.933 -14.944  1.00 35.49    -0.212 N 
ATOM      6  CZ  ARG D 557     -24.973  -2.074 -14.350  1.00 35.49     0.666 C 
ATOM      7  NH1 ARG D 557     -25.673  -3.171 -14.572  1.00 35.49    -0.235 N 
ATOM      8  NH2 ARG D 557     -23.969  -2.099 -13.521  1.00 35.49    -0.235 N 
ATOM      9  HH  ARG D 557     -26.336  -3.179 -15.115  1.00 35.49     0.174 HD
ATOM     10  HH  ARG D 557     -25.450  -3.887 -14.158  1.00 35.49     0.174 HD
ATOM     11  HH  ARG D 557     -23.530  -1.377 -13.403  1.00 35.49     0.174 HD
ATOM     12  HH  ARG D 557     -23.763  -2.818 -13.122  1.00 35.49     0.174 HD
ATOM     13  HE  ARG D 557     -24.786  -0.262 -14.687  1.00 35.49     0.178 HD
ENDBRANCH   4   5
ENDBRANCH   3   4
ENDBRANCH   2   3
ENDBRANCH   1   2
END_RES ARG D 557
BEGIN_RES GLU D 570
REMARK  3 active torsions:
REMARK  status: ('A' for Active; 'I' for Inactive)
REMARK    5  A    between atoms: CA   and  CB  
REMARK    6  A    between atoms: CB   and  CG  
REMARK    7  A    between atoms: CG   and  CD  
ROOT
ATOM     14  CA  GLU D 570     -18.033  -6.348 -13.375  1.00 32.92     0.160 C 
ENDROOT
BRANCH  14  15
ATOM     15  CB  GLU D 570     -19.500  -6.345 -13.794  1.00 32.92     0.043 C 
BRANCH  15  16
ATOM     16  CG  GLU D 570     -20.451  -5.573 -12.953  1.00 32.92     0.100 C 
BRANCH  16  17
ATOM     17  CD  GLU D 570     -21.685  -5.136 -13.707  1.00 32.92     0.185 C 
ATOM     18  OE1 GLU D 570     -22.733  -4.908 -13.073  1.00 32.92    -0.647 OA
ATOM     19  OE2 GLU D 570     -21.607  -5.036 -14.947  1.00 32.92    -0.647 OA
ENDBRANCH  16  17
ENDBRANCH  15  16
ENDBRANCH  14  15
END_RES GLU D 570
ENDMDL
MODEL 7
REMARK VINA RESULT:      -4.8      7.405      9.330
REMARK  7 active torsions:
REMARK  status: ('A' for Active; 'I' for Inactive)
REMARK    1  A    between atoms: C_2  and  C_3 
REMARK    2  A    between atoms: C_3  and  C_4 
REMARK    3  A    between atoms: C_4  and  C_5 
REMARK    4  A    between atoms: C_5  and  C_6 
REMARK    5  A    between atoms: C_6  and  C_7 
REMARK    6  A    between atoms: C_7  and  C_8 
REMARK    7  A    between atoms: C_8  and  O_10 
ROOT
HETATM    1  C   UNL     1     -34.444  -5.663 -11.156  1.00  0.00     0.010 C 
ENDROOT
BRANCH   1   2
HETATM    2  C   UNL     1     -32.993  -5.263 -11.421  1.00  0.00     0.001 C 
BRANCH   2   3
HETATM    3  C   UNL     1     -32.895  -3.779 -11.776  1.00  0.00     0.000 C 
BRANCH   3   4
HETATM    4  C   UNL     1     -33.590  -2.905 -10.733  1.00  0.00    -0.000 C 
BRANCH   4   5
HETATM    5  C   UNL     1     -34.472  -1.847 -11.397  1.00  0.00    -0.005 C 
HETATM    6  C   UNL     1     -35.756  -1.624 -10.613  1.00  0.00     0.005 C 
ENDBRANCH   4   5
ENDBRANCH   3   4
ENDBRANCH   2   3
ENDBRANCH   1   2
BRANCH   1   7
HETATM    7  C   UNL     1     -34.593  -6.446  -9.853  1.00  0.00     0.110 C 
BRANCH   7   8
HETATM    8  C   UNL     1     -34.479  -7.936 -10.088  1.00  0.00     0.139 C 
HETATM    9  O   UNL     1     -33.924  -8.729  -9.345  1.00  0.00    -0.650 OA
BRANCH   8  10
HETATM   10  O   UNL     1     -35.071  -8.321 -11.242  1.00  0.00    -0.776 OA
HETATM   11  H   UNL     1     -36.005  -8.580 -11.137  1.00  0.00     0.167 HD
ENDBRANCH   8  10
ENDBRANCH   7   8
ENDBRANCH   1   7
TORSDOF 7
BEGIN_RES ARG D 557
REMARK  4 active torsions:
REMARK  status: ('A' for Active; 'I' for Inactive)
REMARK    1  A    between atoms: CA   and  CB  
REMARK    2  A    between atoms: CB   and  CG  
REMARK    3  A    between atoms: CG   and  CD  
REMARK    4  A    between atoms: CD   and  NE  
REMARK       I    between atoms: NE   and  CZ  
REMARK       I    between atoms: CZ   and  NH1 
REMARK       I    between atoms: CZ   and  NH2 
ROOT
ATOM      1  CA  ARG D 557     -26.217   2.705 -17.014  1.00 35.49     0.159 C 
ENDROOT
BRANCH   1   2
ATOM      2  CB  ARG D 557     -26.789   1.319 -17.183  1.00 35.49     0.034 C 
BRANCH   2   3
ATOM      3  CG  ARG D 557     -26.014   0.210 -16.613  1.00 35.49     0.027 C 
BRANCH   3   4
ATOM      4  CD  ARG D 557     -26.877  -0.828 -16.006  1.00 35.49     0.116 C 
BRANCH   4   5
ATOM      5  NE  ARG D 557     -26.115  -1.940 -15.501  1.00 35.49    -0.212 N 
ATOM      6  CZ  ARG D 557     -25.009  -1.856 -14.796  1.00 35.49     0.666 C 
ATOM      7  NH1 ARG D 557     -24.456  -0.699 -14.479  1.00 35.49    -0.235 N 
ATOM      8  NH2 ARG D 557     -24.462  -2.969 -14.402  1.00 35.49    -0.235 N 
ATOM      9  HH  ARG D 557     -24.801   0.046 -14.725  1.00 35.49     0.174 HD
ATOM     10  HH  ARG D 557     -23.736  -0.706 -14.014  1.00 35.49     0.174 HD
ATOM     11  HH  ARG D 557     -24.845  -3.700 -14.615  1.00 35.49     0.174 HD
ATOM     12  HH  ARG D 557     -23.750  -2.955 -13.942  1.00 35.49     0.174 HD
ATOM     13  HE  ARG D 557     -26.359  -2.724 -15.720  1.00 35.49     0.178 HD
ENDBRANCH   4   5
ENDBRANCH   3   4
ENDBRANCH   2   3
ENDBRANCH   1   2
END_RES ARG D 557
BEGIN_RES GLU D 570
REMARK  3 active torsions:
REMARK  status: ('A' for Active; 'I' for Inactive)
REMARK    5  A    between atoms: CA   and  CB  
REMARK    6  A    between atoms: CB   and  CG  
REMARK    7  A    between atoms: CG   and  CD  
ROOT
ATOM     14  CA  GLU D 570     -18.033  -6.348 -13.375  1.00 32.92     0.160 C 
ENDROOT
BRANCH  14  15
ATOM     15  CB  GLU D 570     -19.500  -6.345 -13.794  1.00 32.92     0.043 C 
BRANCH  15  16
ATOM     16  CG  GLU D 570     -20.442  -5.532 -12.982  1.00 32.92     0.100 C 
BRANCH  16  17
ATOM     17  CD  GLU D 570     -21.716  -5.194 -13.721  1.00 32.92     0.185 C 
ATOM     18  OE1 GLU D 570     -21.648  -4.841 -14.914  1.00 32.92    -0.647 OA
ATOM     19  OE2 GLU D 570     -22.792  -5.266 -13.094  1.00 32.92    -0.647 OA
ENDBRANCH  16  17
ENDBRANCH  15  16
ENDBRANCH  14  15
END_RES GLU D 570
ENDMDL
MODEL 8
REMARK VINA RESULT:      -4.8      7.308      9.845
REMARK  7 active torsions:
REMARK  status: ('A' for Active; 'I' for Inactive)
REMARK    1  A    between atoms: C_2  and  C_3 
REMARK    2  A    between atoms: C_3  and  C_4 
REMARK    3  A    between atoms: C_4  and  C_5 
REMARK    4  A    between atoms: C_5  and  C_6 
REMARK    5  A    between atoms: C_6  and  C_7 
REMARK    6  A    between atoms: C_7  and  C_8 
REMARK    7  A    between atoms: C_8  and  O_10 
ROOT
HETATM    1  C   UNL     1     -33.166  -3.315 -11.637  1.00  0.00     0.010 C 
ENDROOT
BRANCH   1   2
HETATM    2  C   UNL     1     -33.790  -2.437 -10.552  1.00  0.00     0.001 C 
BRANCH   2   3
HETATM    3  C   UNL     1     -35.058  -1.756 -11.069  1.00  0.00     0.000 C 
BRANCH   3   4
HETATM    4  C   UNL     1     -34.897  -1.292 -12.516  1.00  0.00    -0.000 C 
BRANCH   4   5
HETATM    5  C   UNL     1     -35.035   0.227 -12.627  1.00  0.00    -0.005 C 
HETATM    6  C   UNL     1     -34.856   0.696 -14.063  1.00  0.00     0.005 C 
ENDBRANCH   4   5
ENDBRANCH   3   4
ENDBRANCH   2   3
ENDBRANCH   1   2
BRANCH   1   7
HETATM    7  C   UNL     1     -33.230  -4.799 -11.280  1.00  0.00     0.110 C 
BRANCH   7   8
HETATM    8  C   UNL     1     -34.448  -5.461 -11.884  1.00  0.00     0.139 C 
HETATM    9  O   UNL     1     -35.169  -4.972 -12.738  1.00  0.00    -0.650 OA
BRANCH   8  10
HETATM   10  O   UNL     1     -34.672  -6.692 -11.369  1.00  0.00    -0.776 OA
HETATM   11  H   UNL     1     -33.859  -7.158 -11.099  1.00  0.00     0.167 HD
ENDBRANCH   8  10
ENDBRANCH   7   8
ENDBRANCH   1   7
TORSDOF 7
BEGIN_RES ARG D 557
REMARK  4 active torsions:
REMARK  status: ('A' for Active; 'I' for Inactive)
REMARK    1  A    between atoms: CA   and  CB  
REMARK    2  A    between atoms: CB   and  CG  
REMARK    3  A    between atoms: CG   and  CD  
REMARK    4  A    between atoms: CD   and  NE  
REMARK       I    between atoms: NE   and  CZ  
REMARK       I    between atoms: CZ   and  NH1 
REMARK       I    between atoms: CZ   and  NH2 
ROOT
ATOM      1  CA  ARG D 557     -26.217   2.705 -17.014  1.00 35.49     0.159 C 
ENDROOT
BRANCH   1   2
ATOM      2  CB  ARG D 557     -26.789   1.319 -17.183  1.00 35.49     0.034 C 
BRANCH   2   3
ATOM      3  CG  ARG D 557     -28.232   1.168 -16.961  1.00 35.49     0.027 C 
BRANCH   3   4
ATOM      4  CD  ARG D 557     -28.627  -0.244 -16.756  1.00 35.49     0.116 C 
BRANCH   4   5
ATOM      5  NE  ARG D 557     -27.621  -0.991 -16.047  1.00 35.49    -0.212 N 
ATOM      6  CZ  ARG D 557     -27.444  -2.291 -16.109  1.00 35.49     0.666 C 
ATOM      7  NH1 ARG D 557     -28.209  -3.077 -16.845  1.00 35.49    -0.235 N 
ATOM      8  NH2 ARG D 557     -26.467  -2.798 -15.415  1.00 35.49    -0.235 N 
ATOM      9  HH  ARG D 557     -28.857  -2.765 -17.311  1.00 35.49     0.174 HD
ATOM     10  HH  ARG D 557     -28.045  -3.918 -16.848  1.00 35.49     0.174 HD
ATOM     11  HH  ARG D 557     -25.985  -2.266 -14.955  1.00 35.49     0.174 HD
ATOM     12  HH  ARG D 557     -26.320  -3.633 -15.432  1.00 35.49     0.174 HD
ATOM     13  HE  ARG D 557     -27.130  -0.573 -15.493  1.00 35.49     0.178 HD
ENDBRANCH   4   5
ENDBRANCH   3   4
ENDBRANCH   2   3
ENDBRANCH   1   2
END_RES ARG D 557
BEGIN_RES GLU D 570
REMARK  3 active torsions:
REMARK  status: ('A' for Active; 'I' for Inactive)
REMARK    5  A    between atoms: CA   and  CB  
REMARK    6  A    between atoms: CB   and  CG  
REMARK    7  A    between atoms: CG   and  CD  
ROOT
ATOM     14  CA  GLU D 570     -18.033  -6.348 -13.375  1.00 32.92     0.160 C 
ENDROOT
BRANCH  14  15
ATOM     15  CB  GLU D 570     -19.500  -6.345 -13.794  1.00 32.92     0.043 C 
BRANCH  15  16
ATOM     16  CG  GLU D 570     -20.442  -5.530 -12.984  1.00 32.92     0.100 C 
BRANCH  16  17
ATOM     17  CD  GLU D 570     -21.749  -5.262 -13.692  1.00 32.92     0.185 C 
ATOM     18  OE1 GLU D 570     -22.218  -6.135 -14.447  1.00 32.92    -0.647 OA
ATOM     19  OE2 GLU D 570     -22.302  -4.161 -13.503  1.00 32.92    -0.647 OA
ENDBRANCH  16  17
ENDBRANCH  15  16
ENDBRANCH  14  15
END_RES GLU D 570
ENDMDL
MODEL 9
REMARK VINA RESULT:      -4.7      7.653      9.632
REMARK  7 active torsions:
REMARK  status: ('A' for Active; 'I' for Inactive)
REMARK    1  A    between atoms: C_2  and  C_3 
REMARK    2  A    between atoms: C_3  and  C_4 
REMARK    3  A    between atoms: C_4  and  C_5 
REMARK    4  A    between atoms: C_5  and  C_6 
REMARK    5  A    between atoms: C_6  and  C_7 
REMARK    6  A    between atoms: C_7  and  C_8 
REMARK    7  A    between atoms: C_8  and  O_10 
ROOT
HETATM    1  C   UNL     1     -34.311  -5.608 -11.265  1.00  0.00     0.010 C 
ENDROOT
BRANCH   1   2
HETATM    2  C   UNL     1     -32.880  -5.086 -11.377  1.00  0.00     0.001 C 
BRANCH   2   3
HETATM    3  C   UNL     1     -32.871  -3.586 -11.671  1.00  0.00     0.000 C 
BRANCH   3   4
HETATM    4  C   UNL     1     -33.734  -2.813 -10.675  1.00  0.00    -0.000 C 
BRANCH   4   5
HETATM    5  C   UNL     1     -34.763  -1.940 -11.395  1.00  0.00    -0.005 C 
HETATM    6  C   UNL     1     -35.984  -1.691 -10.526  1.00  0.00     0.005 C 
ENDBRANCH   4   5
ENDBRANCH   3   4
ENDBRANCH   2   3
ENDBRANCH   1   2
BRANCH   1   7
HETATM    7  C   UNL     1     -34.546  -6.359  -9.955  1.00  0.00     0.110 C 
BRANCH   7   8
HETATM    8  C   UNL     1     -34.518  -7.856 -10.164  1.00  0.00     0.139 C 
HETATM    9  O   UNL     1     -34.017  -8.668  -9.403  1.00  0.00    -0.650 OA
BRANCH   8  10
HETATM   10  O   UNL     1     -35.122  -8.227 -11.317  1.00  0.00    -0.776 OA
HETATM   11  H   UNL     1     -36.071  -8.428 -11.216  1.00  0.00     0.167 HD
ENDBRANCH   8  10
ENDBRANCH   7   8
ENDBRANCH   1   7
TORSDOF 7
BEGIN_RES ARG D 557
REMARK  4 active torsions:
REMARK  status: ('A' for Active; 'I' for Inactive)
REMARK    1  A    between atoms: CA   and  CB  
REMARK    2  A    between atoms: CB   and  CG  
REMARK    3  A    between atoms: CG   and  CD  
REMARK    4  A    between atoms: CD   and  NE  
REMARK       I    between atoms: NE   and  CZ  
REMARK       I    between atoms: CZ   and  NH1 
REMARK       I    between atoms: CZ   and  NH2 
ROOT
ATOM      1  CA  ARG D 557     -26.217   2.705 -17.014  1.00 35.49     0.159 C 
ENDROOT
BRANCH   1   2
ATOM      2  CB  ARG D 557     -26.789   1.319 -17.183  1.00 35.49     0.034 C 
BRANCH   2   3
ATOM      3  CG  ARG D 557     -25.978   0.204 -16.679  1.00 35.49     0.027 C 
BRANCH   3   4
ATOM      4  CD  ARG D 557     -26.798  -0.831 -16.008  1.00 35.49     0.116 C 
BRANCH   4   5
ATOM      5  NE  ARG D 557     -28.046  -1.059 -16.687  1.00 35.49    -0.212 N 
ATOM      6  CZ  ARG D 557     -28.561  -2.233 -16.976  1.00 35.49     0.666 C 
ATOM      7  NH1 ARG D 557     -27.955  -3.367 -16.674  1.00 35.49    -0.235 N 
ATOM      8  NH2 ARG D 557     -29.715  -2.251 -17.577  1.00 35.49    -0.235 N 
ATOM      9  HH  ARG D 557     -27.196  -3.378 -16.277  1.00 35.49     0.174 HD
ATOM     10  HH  ARG D 557     -28.340  -4.102 -16.885  1.00 35.49     0.174 HD
ATOM     11  HH  ARG D 557     -30.086  -1.504 -17.753  1.00 35.49     0.174 HD
ATOM     12  HH  ARG D 557     -30.080  -2.990 -17.776  1.00 35.49     0.174 HD
ATOM     13  HE  ARG D 557     -28.469  -0.383 -16.983  1.00 35.49     0.178 HD
ENDBRANCH   4   5
ENDBRANCH   3   4
ENDBRANCH   2   3
ENDBRANCH   1   2
END_RES ARG D 557
BEGIN_RES GLU D 570
REMARK  3 active torsions:
REMARK  status: ('A' for Active; 'I' for Inactive)
REMARK    5  A    between atoms: CA   and  CB  
REMARK    6  A    between atoms: CB   and  CG  
REMARK    7  A    between atoms: CG   and  CD  
ROOT
ATOM     14  CA  GLU D 570     -18.033  -6.348 -13.375  1.00 32.92     0.160 C 
ENDROOT
BRANCH  14  15
ATOM     15  CB  GLU D 570     -19.500  -6.345 -13.794  1.00 32.92     0.043 C 
BRANCH  15  16
ATOM     16  CG  GLU D 570     -20.433  -5.493 -13.012  1.00 32.92     0.100 C 
BRANCH  16  17
ATOM     17  CD  GLU D 570     -21.752  -5.267 -13.714  1.00 32.92     0.185 C 
ATOM     18  OE1 GLU D 570     -22.232  -6.181 -14.411  1.00 32.92    -0.647 OA
ATOM     19  OE2 GLU D 570     -22.303  -4.157 -13.578  1.00 32.92    -0.647 OA
ENDBRANCH  16  17
ENDBRANCH  15  16
ENDBRANCH  14  15
END_RES GLU D 570
ENDMDL
