MODEL 1
REMARK VINA RESULT:      -6.9      0.000      0.000
REMARK  5 active torsions:
REMARK  status: ('A' for Active; 'I' for Inactive)
REMARK    1  A    between atoms: C_4  and  N_11 
REMARK    2  A    between atoms: C_5  and  N_7 
REMARK    3  A    between atoms: N_7  and  C_8 
REMARK    4  A    between atoms: C_8  and  C_9 
REMARK    5  A    between atoms: C_9  and  O_10 
ROOT
HETATM    1  C   UNL     1     -20.416  -3.706 -10.810  1.00  0.00     0.002 A 
HETATM    2  C   UNL     1     -20.847  -4.273  -9.620  1.00  0.00     0.003 A 
HETATM    3  C   UNL     1     -22.204  -4.274  -9.317  1.00  0.00     0.038 A 
HETATM    4  C   UNL     1     -23.140  -3.710 -10.214  1.00  0.00     0.123 A 
HETATM    5  C   UNL     1     -22.727  -3.137 -11.446  1.00  0.00     0.041 A 
HETATM    6  C   UNL     1     -21.339  -3.137 -11.696  1.00  0.00     0.026 A 
ENDROOT
BRANCH   5   7
HETATM    7  N   UNL     1     -23.601  -2.457 -12.326  1.00  0.00    -0.289 NA
HETATM    8  H   UNL     1     -24.516  -2.295 -11.881  1.00  0.00     0.127 HD
BRANCH   7   9
HETATM    9  C   UNL     1     -23.724  -2.952 -13.709  1.00  0.00     0.118 C 
BRANCH   9  10
HETATM   10  C   UNL     1     -23.650  -1.795 -14.711  1.00  0.00     0.178 C 
BRANCH  10  11
HETATM   11  O   UNL     1     -22.622  -2.031 -15.671  1.00  0.00    -0.400 OA
HETATM   12  H   UNL     1     -23.074  -2.133 -16.528  1.00  0.00     0.209 HD
ENDBRANCH  10  11
ENDBRANCH   9  10
ENDBRANCH   7   9
ENDBRANCH   5   7
BRANCH   4  13
HETATM   13  N   UNL     1     -24.562  -3.795  -9.832  1.00  0.00    -0.114 N 
HETATM   14  O   UNL     1     -25.161  -2.736  -9.591  1.00  0.00    -0.532 OA
HETATM   15  O   UNL     1     -25.082  -4.920  -9.737  1.00  0.00    -0.532 OA
ENDBRANCH   4  13
TORSDOF 5
BEGIN_RES ARG D 557
REMARK  4 active torsions:
REMARK  status: ('A' for Active; 'I' for Inactive)
REMARK    1  A    between atoms: CA   and  CB  
REMARK    2  A    between atoms: CB   and  CG  
REMARK    3  A    between atoms: CG   and  CD  
REMARK    4  A    between atoms: CD   and  NE  
REMARK       I    between atoms: NE   and  CZ  
REMARK       I    between atoms: CZ   and  NH1 
REMARK       I    between atoms: CZ   and  NH2 
ROOT
ATOM      1  CA  ARG D 557     -26.217   2.705 -17.014  1.00 35.49     0.159 C 
ENDROOT
BRANCH   1   2
ATOM      2  CB  ARG D 557     -26.789   1.319 -17.183  1.00 35.49     0.034 C 
BRANCH   2   3
ATOM      3  CG  ARG D 557     -28.155   1.104 -16.692  1.00 35.49     0.027 C 
BRANCH   3   4
ATOM      4  CD  ARG D 557     -28.793  -0.087 -17.299  1.00 35.49     0.116 C 
BRANCH   4   5
ATOM      5  NE  ARG D 557     -28.184  -1.313 -16.856  1.00 35.49    -0.212 N 
ATOM      6  CZ  ARG D 557     -28.672  -2.521 -17.033  1.00 35.49     0.666 C 
ATOM      7  NH1 ARG D 557     -29.821  -2.738 -17.647  1.00 35.49    -0.235 N 
ATOM      8  NH2 ARG D 557     -27.974  -3.522 -16.583  1.00 35.49    -0.235 N 
ATOM      9  HH  ARG D 557     -30.296  -2.094 -17.953  1.00 35.49     0.174 HD
ATOM     10  HH  ARG D 557     -30.088  -3.547 -17.735  1.00 35.49     0.174 HD
ATOM     11  HH  ARG D 557     -27.232  -3.352 -16.198  1.00 35.49     0.174 HD
ATOM     12  HH  ARG D 557     -28.255  -4.316 -16.682  1.00 35.49     0.174 HD
ATOM     13  HE  ARG D 557     -27.476  -1.262 -16.388  1.00 35.49     0.178 HD
ENDBRANCH   4   5
ENDBRANCH   3   4
ENDBRANCH   2   3
ENDBRANCH   1   2
END_RES ARG D 557
BEGIN_RES GLU D 570
REMARK  3 active torsions:
REMARK  status: ('A' for Active; 'I' for Inactive)
REMARK    5  A    between atoms: CA   and  CB  
REMARK    6  A    between atoms: CB   and  CG  
REMARK    7  A    between atoms: CG   and  CD  
ROOT
ATOM     14  CA  GLU D 570     -18.033  -6.348 -13.375  1.00 32.92     0.160 C 
ENDROOT
BRANCH  14  15
ATOM     15  CB  GLU D 570     -19.500  -6.345 -13.794  1.00 32.92     0.043 C 
BRANCH  15  16
ATOM     16  CG  GLU D 570     -19.819  -5.871 -15.166  1.00 32.92     0.100 C 
BRANCH  16  17
ATOM     17  CD  GLU D 570     -21.278  -5.522 -15.344  1.00 32.92     0.185 C 
ATOM     18  OE1 GLU D 570     -22.130  -6.104 -14.645  1.00 32.92    -0.647 OA
ATOM     19  OE2 GLU D 570     -21.574  -4.668 -16.203  1.00 32.92    -0.647 OA
ENDBRANCH  16  17
ENDBRANCH  15  16
ENDBRANCH  14  15
END_RES GLU D 570
ENDMDL
MODEL 2
REMARK VINA RESULT:      -6.8      2.476      2.921
REMARK  5 active torsions:
REMARK  status: ('A' for Active; 'I' for Inactive)
REMARK    1  A    between atoms: C_4  and  N_11 
REMARK    2  A    between atoms: C_5  and  N_7 
REMARK    3  A    between atoms: N_7  and  C_8 
REMARK    4  A    between atoms: C_8  and  C_9 
REMARK    5  A    between atoms: C_9  and  O_10 
ROOT
HETATM    1  C   UNL     1     -22.478  -3.093 -11.440  1.00  0.00     0.002 A 
HETATM    2  C   UNL     1     -22.786  -4.419 -11.177  1.00  0.00     0.003 A 
HETATM    3  C   UNL     1     -23.342  -5.202 -12.182  1.00  0.00     0.038 A 
HETATM    4  C   UNL     1     -23.588  -4.657 -13.463  1.00  0.00     0.123 A 
HETATM    5  C   UNL     1     -23.269  -3.306 -13.763  1.00  0.00     0.041 A 
HETATM    6  C   UNL     1     -22.731  -2.546 -12.703  1.00  0.00     0.026 A 
ENDROOT
BRANCH   5   7
HETATM    7  N   UNL     1     -23.598  -2.676 -14.986  1.00  0.00    -0.289 NA
HETATM    8  H   UNL     1     -23.612  -3.358 -15.758  1.00  0.00     0.127 HD
BRANCH   7   9
HETATM    9  C   UNL     1     -22.893  -1.432 -15.342  1.00  0.00     0.118 C 
BRANCH   9  10
HETATM   10  C   UNL     1     -23.885  -0.285 -15.560  1.00  0.00     0.178 C 
BRANCH  10  11
HETATM   11  O   UNL     1     -24.985  -0.398 -14.660  1.00  0.00    -0.400 OA
HETATM   12  H   UNL     1     -24.914  -1.282 -14.258  1.00  0.00     0.209 HD
ENDBRANCH  10  11
ENDBRANCH   9  10
ENDBRANCH   7   9
ENDBRANCH   5   7
BRANCH   4  13
HETATM   13  N   UNL     1     -24.139  -5.572 -14.481  1.00  0.00    -0.114 N 
HETATM   14  O   UNL     1     -24.869  -5.088 -15.360  1.00  0.00    -0.532 OA
HETATM   15  O   UNL     1     -23.875  -6.783 -14.391  1.00  0.00    -0.532 OA
ENDBRANCH   4  13
TORSDOF 5
BEGIN_RES ARG D 557
REMARK  4 active torsions:
REMARK  status: ('A' for Active; 'I' for Inactive)
REMARK    1  A    between atoms: CA   and  CB  
REMARK    2  A    between atoms: CB   and  CG  
REMARK    3  A    between atoms: CG   and  CD  
REMARK    4  A    between atoms: CD   and  NE  
REMARK       I    between atoms: NE   and  CZ  
REMARK       I    between atoms: CZ   and  NH1 
REMARK       I    between atoms: CZ   and  NH2 
ROOT
ATOM      1  CA  ARG D 557     -26.217   2.705 -17.014  1.00 35.49     0.159 C 
ENDROOT
BRANCH   1   2
ATOM      2  CB  ARG D 557     -26.789   1.319 -17.183  1.00 35.49     0.034 C 
BRANCH   2   3
ATOM      3  CG  ARG D 557     -28.228   1.164 -16.937  1.00 35.49     0.027 C 
BRANCH   3   4
ATOM      4  CD  ARG D 557     -28.628  -0.256 -16.809  1.00 35.49     0.116 C 
BRANCH   4   5
ATOM      5  NE  ARG D 557     -27.661  -1.029 -16.075  1.00 35.49    -0.212 N 
ATOM      6  CZ  ARG D 557     -27.510  -2.333 -16.141  1.00 35.49     0.666 C 
ATOM      7  NH1 ARG D 557     -28.268  -3.097 -16.905  1.00 35.49    -0.235 N 
ATOM      8  NH2 ARG D 557     -26.566  -2.865 -15.420  1.00 35.49    -0.235 N 
ATOM      9  HH  ARG D 557     -28.894  -2.768 -17.390  1.00 35.49     0.174 HD
ATOM     10  HH  ARG D 557     -28.121  -3.941 -16.910  1.00 35.49     0.174 HD
ATOM     11  HH  ARG D 557     -26.087  -2.346 -14.942  1.00 35.49     0.174 HD
ATOM     12  HH  ARG D 557     -26.435  -3.702 -15.439  1.00 35.49     0.174 HD
ATOM     13  HE  ARG D 557     -27.178  -0.625 -15.503  1.00 35.49     0.178 HD
ENDBRANCH   4   5
ENDBRANCH   3   4
ENDBRANCH   2   3
ENDBRANCH   1   2
END_RES ARG D 557
BEGIN_RES GLU D 570
REMARK  3 active torsions:
REMARK  status: ('A' for Active; 'I' for Inactive)
REMARK    5  A    between atoms: CA   and  CB  
REMARK    6  A    between atoms: CB   and  CG  
REMARK    7  A    between atoms: CG   and  CD  
ROOT
ATOM     14  CA  GLU D 570     -18.033  -6.348 -13.375  1.00 32.92     0.160 C 
ENDROOT
BRANCH  14  15
ATOM     15  CB  GLU D 570     -19.500  -6.345 -13.794  1.00 32.92     0.043 C 
BRANCH  15  16
ATOM     16  CG  GLU D 570     -20.083  -7.631 -14.256  1.00 32.92     0.100 C 
BRANCH  16  17
ATOM     17  CD  GLU D 570     -20.719  -7.533 -15.622  1.00 32.92     0.185 C 
ATOM     18  OE1 GLU D 570     -20.804  -6.418 -16.172  1.00 32.92    -0.647 OA
ATOM     19  OE2 GLU D 570     -21.152  -8.581 -16.142  1.00 32.92    -0.647 OA
ENDBRANCH  16  17
ENDBRANCH  15  16
ENDBRANCH  14  15
END_RES GLU D 570
ENDMDL
MODEL 3
REMARK VINA RESULT:      -6.4      7.333     10.023
REMARK  5 active torsions:
REMARK  status: ('A' for Active; 'I' for Inactive)
REMARK    1  A    between atoms: C_4  and  N_11 
REMARK    2  A    between atoms: C_5  and  N_7 
REMARK    3  A    between atoms: N_7  and  C_8 
REMARK    4  A    between atoms: C_8  and  C_9 
REMARK    5  A    between atoms: C_9  and  O_10 
ROOT
HETATM    1  C   UNL     1     -33.441  -3.522 -10.792  1.00  0.00     0.002 A 
HETATM    2  C   UNL     1     -33.490  -3.895 -12.126  1.00  0.00     0.003 A 
HETATM    3  C   UNL     1     -34.224  -3.125 -13.023  1.00  0.00     0.038 A 
HETATM    4  C   UNL     1     -34.909  -1.969 -12.583  1.00  0.00     0.123 A 
HETATM    5  C   UNL     1     -34.862  -1.557 -11.225  1.00  0.00     0.041 A 
HETATM    6  C   UNL     1     -34.127  -2.384 -10.351  1.00  0.00     0.026 A 
ENDROOT
BRANCH   5   7
HETATM    7  N   UNL     1     -35.618  -0.480 -10.707  1.00  0.00    -0.289 NA
HETATM    8  H   UNL     1     -35.006   0.218 -10.261  1.00  0.00     0.127 HD
BRANCH   7   9
HETATM    9  C   UNL     1     -36.809  -0.788  -9.896  1.00  0.00     0.118 C 
BRANCH   9  10
HETATM   10  C   UNL     1     -36.838   0.063  -8.622  1.00  0.00     0.178 C 
BRANCH  10  11
HETATM   11  O   UNL     1     -36.259   1.343  -8.863  1.00  0.00    -0.400 OA
HETATM   12  H   UNL     1     -35.723   1.248  -9.671  1.00  0.00     0.209 HD
ENDBRANCH  10  11
ENDBRANCH   9  10
ENDBRANCH   7   9
ENDBRANCH   5   7
BRANCH   4  13
HETATM   13  N   UNL     1     -35.624  -1.190 -13.611  1.00  0.00    -0.114 N 
HETATM   14  O   UNL     1     -36.839  -1.001 -13.452  1.00  0.00    -0.532 OA
HETATM   15  O   UNL     1     -34.986  -0.788 -14.599  1.00  0.00    -0.532 OA
ENDBRANCH   4  13
TORSDOF 5
BEGIN_RES ARG D 557
REMARK  4 active torsions:
REMARK  status: ('A' for Active; 'I' for Inactive)
REMARK    1  A    between atoms: CA   and  CB  
REMARK    2  A    between atoms: CB   and  CG  
REMARK    3  A    between atoms: CG   and  CD  
REMARK    4  A    between atoms: CD   and  NE  
REMARK       I    between atoms: NE   and  CZ  
REMARK       I    between atoms: CZ   and  NH1 
REMARK       I    between atoms: CZ   and  NH2 
ROOT
ATOM      1  CA  ARG D 557     -26.217   2.705 -17.014  1.00 35.49     0.159 C 
ENDROOT
BRANCH   1   2
ATOM      2  CB  ARG D 557     -26.789   1.319 -17.183  1.00 35.49     0.034 C 
BRANCH   2   3
ATOM      3  CG  ARG D 557     -25.866   0.195 -16.987  1.00 35.49     0.027 C 
BRANCH   3   4
ATOM      4  CD  ARG D 557     -26.307  -0.715 -15.905  1.00 35.49     0.116 C 
BRANCH   4   5
ATOM      5  NE  ARG D 557     -25.274  -0.937 -14.928  1.00 35.49    -0.212 N 
ATOM      6  CZ  ARG D 557     -24.998  -2.084 -14.348  1.00 35.49     0.666 C 
ATOM      7  NH1 ARG D 557     -25.675  -3.188 -14.603  1.00 35.49    -0.235 N 
ATOM      8  NH2 ARG D 557     -24.010  -2.105 -13.500  1.00 35.49    -0.235 N 
ATOM      9  HH  ARG D 557     -26.327  -3.197 -15.159  1.00 35.49     0.174 HD
ATOM     10  HH  ARG D 557     -25.448  -3.907 -14.197  1.00 35.49     0.174 HD
ATOM     11  HH  ARG D 557     -23.586  -1.379 -13.361  1.00 35.49     0.174 HD
ATOM     12  HH  ARG D 557     -23.800  -2.828 -13.109  1.00 35.49     0.174 HD
ATOM     13  HE  ARG D 557     -24.835  -0.263 -14.650  1.00 35.49     0.178 HD
ENDBRANCH   4   5
ENDBRANCH   3   4
ENDBRANCH   2   3
ENDBRANCH   1   2
END_RES ARG D 557
BEGIN_RES GLU D 570
REMARK  3 active torsions:
REMARK  status: ('A' for Active; 'I' for Inactive)
REMARK    5  A    between atoms: CA   and  CB  
REMARK    6  A    between atoms: CB   and  CG  
REMARK    7  A    between atoms: CG   and  CD  
ROOT
ATOM     14  CA  GLU D 570     -18.033  -6.348 -13.375  1.00 32.92     0.160 C 
ENDROOT
BRANCH  14  15
ATOM     15  CB  GLU D 570     -19.500  -6.345 -13.794  1.00 32.92     0.043 C 
BRANCH  15  16
ATOM     16  CG  GLU D 570     -20.448  -5.559 -12.963  1.00 32.92     0.100 C 
BRANCH  16  17
ATOM     17  CD  GLU D 570     -21.675  -5.118 -13.726  1.00 32.92     0.185 C 
ATOM     18  OE1 GLU D 570     -22.695  -4.786 -13.092  1.00 32.92    -0.647 OA
ATOM     19  OE2 GLU D 570     -21.622  -5.121 -14.971  1.00 32.92    -0.647 OA
ENDBRANCH  16  17
ENDBRANCH  15  16
ENDBRANCH  14  15
END_RES GLU D 570
ENDMDL
MODEL 4
REMARK VINA RESULT:      -6.1      6.673      9.693
REMARK  5 active torsions:
REMARK  status: ('A' for Active; 'I' for Inactive)
REMARK    1  A    between atoms: C_4  and  N_11 
REMARK    2  A    between atoms: C_5  and  N_7 
REMARK    3  A    between atoms: N_7  and  C_8 
REMARK    4  A    between atoms: C_8  and  C_9 
REMARK    5  A    between atoms: C_9  and  O_10 
ROOT
HETATM    1  C   UNL     1     -36.704  -0.211 -11.044  1.00  0.00     0.002 A 
HETATM    2  C   UNL     1     -36.412  -1.377 -10.353  1.00  0.00     0.003 A 
HETATM    3  C   UNL     1     -35.591  -2.332 -10.942  1.00  0.00     0.038 A 
HETATM    4  C   UNL     1     -35.052  -2.117 -12.232  1.00  0.00     0.123 A 
HETATM    5  C   UNL     1     -35.323  -0.925 -12.954  1.00  0.00     0.041 A 
HETATM    6  C   UNL     1     -36.181   0.001 -12.325  1.00  0.00     0.026 A 
ENDROOT
BRANCH   5   7
HETATM    7  N   UNL     1     -34.907  -0.706 -14.288  1.00  0.00    -0.289 NA
HETATM    8  H   UNL     1     -34.095  -0.073 -14.321  1.00  0.00     0.127 HD
BRANCH   7   9
HETATM    9  C   UNL     1     -35.931  -0.365 -15.292  1.00  0.00     0.118 C 
BRANCH   9  10
HETATM   10  C   UNL     1     -35.695  -1.134 -16.596  1.00  0.00     0.178 C 
BRANCH  10  11
HETATM   11  O   UNL     1     -34.997  -2.351 -16.341  1.00  0.00    -0.400 OA
HETATM   12  H   UNL     1     -35.559  -2.859 -15.729  1.00  0.00     0.209 HD
ENDBRANCH  10  11
ENDBRANCH   9  10
ENDBRANCH   7   9
ENDBRANCH   5   7
BRANCH   4  13
HETATM   13  N   UNL     1     -34.155  -3.163 -12.760  1.00  0.00    -0.114 N 
HETATM   14  O   UNL     1     -34.366  -3.579 -13.908  1.00  0.00    -0.532 OA
HETATM   15  O   UNL     1     -33.256  -3.598 -12.021  1.00  0.00    -0.532 OA
ENDBRANCH   4  13
TORSDOF 5
BEGIN_RES ARG D 557
REMARK  4 active torsions:
REMARK  status: ('A' for Active; 'I' for Inactive)
REMARK    1  A    between atoms: CA   and  CB  
REMARK    2  A    between atoms: CB   and  CG  
REMARK    3  A    between atoms: CG   and  CD  
REMARK    4  A    between atoms: CD   and  NE  
REMARK       I    between atoms: NE   and  CZ  
REMARK       I    between atoms: CZ   and  NH1 
REMARK       I    between atoms: CZ   and  NH2 
ROOT
ATOM      1  CA  ARG D 557     -26.217   2.705 -17.014  1.00 35.49     0.159 C 
ENDROOT
BRANCH   1   2
ATOM      2  CB  ARG D 557     -26.789   1.319 -17.183  1.00 35.49     0.034 C 
BRANCH   2   3
ATOM      3  CG  ARG D 557     -28.231   1.226 -17.440  1.00 35.49     0.027 C 
BRANCH   3   4
ATOM      4  CD  ARG D 557     -28.913   0.303 -16.504  1.00 35.49     0.116 C 
BRANCH   4   5
ATOM      5  NE  ARG D 557     -29.298  -0.928 -17.142  1.00 35.49    -0.212 N 
ATOM      6  CZ  ARG D 557     -28.669  -2.077 -17.036  1.00 35.49     0.666 C 
ATOM      7  NH1 ARG D 557     -27.570  -2.221 -16.319  1.00 35.49    -0.235 N 
ATOM      8  NH2 ARG D 557     -29.173  -3.098 -17.668  1.00 35.49    -0.235 N 
ATOM      9  HH  ARG D 557     -27.222  -1.563 -15.894  1.00 35.49     0.174 HD
ATOM     10  HH  ARG D 557     -27.205  -2.995 -16.285  1.00 35.49     0.174 HD
ATOM     11  HH  ARG D 557     -29.888  -2.977 -18.117  1.00 35.49     0.174 HD
ATOM     12  HH  ARG D 557     -28.797  -3.857 -17.620  1.00 35.49     0.174 HD
ATOM     13  HE  ARG D 557     -29.955  -0.910 -17.682  1.00 35.49     0.178 HD
ENDBRANCH   4   5
ENDBRANCH   3   4
ENDBRANCH   2   3
ENDBRANCH   1   2
END_RES ARG D 557
BEGIN_RES GLU D 570
REMARK  3 active torsions:
REMARK  status: ('A' for Active; 'I' for Inactive)
REMARK    5  A    between atoms: CA   and  CB  
REMARK    6  A    between atoms: CB   and  CG  
REMARK    7  A    between atoms: CG   and  CD  
ROOT
ATOM     14  CA  GLU D 570     -18.033  -6.348 -13.375  1.00 32.92     0.160 C 
ENDROOT
BRANCH  14  15
ATOM     15  CB  GLU D 570     -19.500  -6.345 -13.794  1.00 32.92     0.043 C 
BRANCH  15  16
ATOM     16  CG  GLU D 570     -20.449  -5.564 -12.959  1.00 32.92     0.100 C 
BRANCH  16  17
ATOM     17  CD  GLU D 570     -21.701  -5.166 -13.705  1.00 32.92     0.185 C 
ATOM     18  OE1 GLU D 570     -22.766  -5.031 -13.073  1.00 32.92    -0.647 OA
ATOM     19  OE2 GLU D 570     -21.619  -5.003 -14.939  1.00 32.92    -0.647 OA
ENDBRANCH  16  17
ENDBRANCH  15  16
ENDBRANCH  14  15
END_RES GLU D 570
ENDMDL
MODEL 5
REMARK VINA RESULT:      -6.1      6.794      9.923
REMARK  5 active torsions:
REMARK  status: ('A' for Active; 'I' for Inactive)
REMARK    1  A    between atoms: C_4  and  N_11 
REMARK    2  A    between atoms: C_5  and  N_7 
REMARK    3  A    between atoms: N_7  and  C_8 
REMARK    4  A    between atoms: C_8  and  C_9 
REMARK    5  A    between atoms: C_9  and  O_10 
ROOT
HETATM    1  C   UNL     1     -36.768  -0.214 -11.050  1.00  0.00     0.002 A 
HETATM    2  C   UNL     1     -36.475  -1.376 -10.351  1.00  0.00     0.003 A 
HETATM    3  C   UNL     1     -35.635  -2.324 -10.925  1.00  0.00     0.038 A 
HETATM    4  C   UNL     1     -35.077  -2.106 -12.206  1.00  0.00     0.123 A 
HETATM    5  C   UNL     1     -35.348  -0.918 -12.935  1.00  0.00     0.041 A 
HETATM    6  C   UNL     1     -36.226  -0.000 -12.322  1.00  0.00     0.026 A 
ENDROOT
BRANCH   5   7
HETATM    7  N   UNL     1     -34.913  -0.699 -14.263  1.00  0.00    -0.289 NA
HETATM    8  H   UNL     1     -34.077  -0.097 -14.281  1.00  0.00     0.127 HD
BRANCH   7   9
HETATM    9  C   UNL     1     -35.914  -0.306 -15.270  1.00  0.00     0.118 C 
BRANCH   9  10
HETATM   10  C   UNL     1     -35.736  -1.113 -16.561  1.00  0.00     0.178 C 
BRANCH  10  11
HETATM   11  O   UNL     1     -35.007  -2.311 -16.305  1.00  0.00    -0.400 OA
HETATM   12  H   UNL     1     -34.718  -2.640 -17.175  1.00  0.00     0.209 HD
ENDBRANCH  10  11
ENDBRANCH   9  10
ENDBRANCH   7   9
ENDBRANCH   5   7
BRANCH   4  13
HETATM   13  N   UNL     1     -34.162  -3.144 -12.717  1.00  0.00    -0.114 N 
HETATM   14  O   UNL     1     -33.241  -3.519 -11.977  1.00  0.00    -0.532 OA
HETATM   15  O   UNL     1     -34.337  -3.569 -13.872  1.00  0.00    -0.532 OA
ENDBRANCH   4  13
TORSDOF 5
BEGIN_RES ARG D 557
REMARK  4 active torsions:
REMARK  status: ('A' for Active; 'I' for Inactive)
REMARK    1  A    between atoms: CA   and  CB  
REMARK    2  A    between atoms: CB   and  CG  
REMARK    3  A    between atoms: CG   and  CD  
REMARK    4  A    between atoms: CD   and  NE  
REMARK       I    between atoms: NE   and  CZ  
REMARK       I    between atoms: CZ   and  NH1 
REMARK       I    between atoms: CZ   and  NH2 
ROOT
ATOM      1  CA  ARG D 557     -26.217   2.705 -17.014  1.00 35.49     0.159 C 
ENDROOT
BRANCH   1   2
ATOM      2  CB  ARG D 557     -26.789   1.319 -17.183  1.00 35.49     0.034 C 
BRANCH   2   3
ATOM      3  CG  ARG D 557     -25.865   0.195 -16.990  1.00 35.49     0.027 C 
BRANCH   3   4
ATOM      4  CD  ARG D 557     -26.291  -0.704 -15.893  1.00 35.49     0.116 C 
BRANCH   4   5
ATOM      5  NE  ARG D 557     -25.240  -0.927 -14.935  1.00 35.49    -0.212 N 
ATOM      6  CZ  ARG D 557     -24.956  -2.073 -14.359  1.00 35.49     0.666 C 
ATOM      7  NH1 ARG D 557     -25.642  -3.176 -14.598  1.00 35.49    -0.235 N 
ATOM      8  NH2 ARG D 557     -23.953  -2.096 -13.530  1.00 35.49    -0.235 N 
ATOM      9  HH  ARG D 557     -26.304  -3.184 -15.141  1.00 35.49     0.174 HD
ATOM     10  HH  ARG D 557     -25.409  -3.895 -14.194  1.00 35.49     0.174 HD
ATOM     11  HH  ARG D 557     -23.524  -1.370 -13.401  1.00 35.49     0.174 HD
ATOM     12  HH  ARG D 557     -23.738  -2.818 -13.141  1.00 35.49     0.174 HD
ATOM     13  HE  ARG D 557     -24.794  -0.254 -14.668  1.00 35.49     0.178 HD
ENDBRANCH   4   5
ENDBRANCH   3   4
ENDBRANCH   2   3
ENDBRANCH   1   2
END_RES ARG D 557
BEGIN_RES GLU D 570
REMARK  3 active torsions:
REMARK  status: ('A' for Active; 'I' for Inactive)
REMARK    5  A    between atoms: CA   and  CB  
REMARK    6  A    between atoms: CB   and  CG  
REMARK    7  A    between atoms: CG   and  CD  
ROOT
ATOM     14  CA  GLU D 570     -18.033  -6.348 -13.375  1.00 32.92     0.160 C 
ENDROOT
BRANCH  14  15
ATOM     15  CB  GLU D 570     -19.500  -6.345 -13.794  1.00 32.92     0.043 C 
BRANCH  15  16
ATOM     16  CG  GLU D 570     -20.446  -5.553 -12.967  1.00 32.92     0.100 C 
BRANCH  16  17
ATOM     17  CD  GLU D 570     -21.682  -5.130 -13.727  1.00 32.92     0.185 C 
ATOM     18  OE1 GLU D 570     -21.618  -5.004 -14.965  1.00 32.92    -0.647 OA
ATOM     19  OE2 GLU D 570     -22.722  -4.907 -13.076  1.00 32.92    -0.647 OA
ENDBRANCH  16  17
ENDBRANCH  15  16
ENDBRANCH  14  15
END_RES GLU D 570
ENDMDL
MODEL 6
REMARK VINA RESULT:      -6.0      2.833      4.139
REMARK  5 active torsions:
REMARK  status: ('A' for Active; 'I' for Inactive)
REMARK    1  A    between atoms: C_4  and  N_11 
REMARK    2  A    between atoms: C_5  and  N_7 
REMARK    3  A    between atoms: N_7  and  C_8 
REMARK    4  A    between atoms: C_8  and  C_9 
REMARK    5  A    between atoms: C_9  and  O_10 
ROOT
HETATM    1  C   UNL     1     -19.738  -4.050  -8.210  1.00  0.00     0.002 A 
HETATM    2  C   UNL     1     -19.311  -4.820  -7.139  1.00  0.00     0.003 A 
HETATM    3  C   UNL     1     -20.253  -5.421  -6.312  1.00  0.00     0.038 A 
HETATM    4  C   UNL     1     -21.635  -5.257  -6.561  1.00  0.00     0.123 A 
HETATM    5  C   UNL     1     -22.099  -4.486  -7.660  1.00  0.00     0.041 A 
HETATM    6  C   UNL     1     -21.106  -3.876  -8.453  1.00  0.00     0.026 A 
ENDROOT
BRANCH   5   7
HETATM    7  N   UNL     1     -23.464  -4.193  -7.889  1.00  0.00    -0.289 NA
HETATM    8  H   UNL     1     -24.042  -4.485  -7.089  1.00  0.00     0.127 HD
BRANCH   7   9
HETATM    9  C   UNL     1     -24.053  -4.579  -9.183  1.00  0.00     0.118 C 
BRANCH   9  10
HETATM   10  C   UNL     1     -24.601  -3.353  -9.922  1.00  0.00     0.178 C 
BRANCH  10  11
HETATM   11  O   UNL     1     -23.762  -3.018 -11.025  1.00  0.00    -0.400 OA
HETATM   12  H   UNL     1     -22.936  -2.675 -10.640  1.00  0.00     0.209 HD
ENDBRANCH  10  11
ENDBRANCH   9  10
ENDBRANCH   7   9
ENDBRANCH   5   7
BRANCH   4  13
HETATM   13  N   UNL     1     -22.562  -5.966  -5.659  1.00  0.00    -0.114 N 
HETATM   14  O   UNL     1     -22.114  -6.915  -4.998  1.00  0.00    -0.532 OA
HETATM   15  O   UNL     1     -23.750  -5.603  -5.627  1.00  0.00    -0.532 OA
ENDBRANCH   4  13
TORSDOF 5
BEGIN_RES ARG D 557
REMARK  4 active torsions:
REMARK  status: ('A' for Active; 'I' for Inactive)
REMARK    1  A    between atoms: CA   and  CB  
REMARK    2  A    between atoms: CB   and  CG  
REMARK    3  A    between atoms: CG   and  CD  
REMARK    4  A    between atoms: CD   and  NE  
REMARK       I    between atoms: NE   and  CZ  
REMARK       I    between atoms: CZ   and  NH1 
REMARK       I    between atoms: CZ   and  NH2 
ROOT
ATOM      1  CA  ARG D 557     -26.217   2.705 -17.014  1.00 35.49     0.159 C 
ENDROOT
BRANCH   1   2
ATOM      2  CB  ARG D 557     -26.789   1.319 -17.183  1.00 35.49     0.034 C 
BRANCH   2   3
ATOM      3  CG  ARG D 557     -25.864   0.195 -16.994  1.00 35.49     0.027 C 
BRANCH   3   4
ATOM      4  CD  ARG D 557     -26.221  -0.639 -15.823  1.00 35.49     0.116 C 
BRANCH   4   5
ATOM      5  NE  ARG D 557     -25.093  -0.875 -14.961  1.00 35.49    -0.212 N 
ATOM      6  CZ  ARG D 557     -24.781  -2.023 -14.403  1.00 35.49     0.666 C 
ATOM      7  NH1 ARG D 557     -25.505  -3.114 -14.571  1.00 35.49    -0.235 N 
ATOM      8  NH2 ARG D 557     -23.708  -2.060 -13.667  1.00 35.49    -0.235 N 
ATOM      9  HH  ARG D 557     -26.213  -3.113 -15.054  1.00 35.49     0.174 HD
ATOM     10  HH  ARG D 557     -25.250  -3.835 -14.185  1.00 35.49     0.174 HD
ATOM     11  HH  ARG D 557     -23.256  -1.342 -13.582  1.00 35.49     0.174 HD
ATOM     12  HH  ARG D 557     -23.472  -2.784 -13.293  1.00 35.49     0.174 HD
ATOM     13  HE  ARG D 557     -24.613  -0.209 -14.740  1.00 35.49     0.178 HD
ENDBRANCH   4   5
ENDBRANCH   3   4
ENDBRANCH   2   3
ENDBRANCH   1   2
END_RES ARG D 557
BEGIN_RES GLU D 570
REMARK  3 active torsions:
REMARK  status: ('A' for Active; 'I' for Inactive)
REMARK    5  A    between atoms: CA   and  CB  
REMARK    6  A    between atoms: CB   and  CG  
REMARK    7  A    between atoms: CG   and  CD  
ROOT
ATOM     14  CA  GLU D 570     -18.033  -6.348 -13.375  1.00 32.92     0.160 C 
ENDROOT
BRANCH  14  15
ATOM     15  CB  GLU D 570     -19.500  -6.345 -13.794  1.00 32.92     0.043 C 
BRANCH  15  16
ATOM     16  CG  GLU D 570     -20.447  -5.557 -12.964  1.00 32.92     0.100 C 
BRANCH  16  17
ATOM     17  CD  GLU D 570     -21.698  -5.161 -13.713  1.00 32.92     0.185 C 
ATOM     18  OE1 GLU D 570     -21.667  -5.108 -14.957  1.00 32.92    -0.647 OA
ATOM     19  OE2 GLU D 570     -22.716  -4.884 -13.047  1.00 32.92    -0.647 OA
ENDBRANCH  16  17
ENDBRANCH  15  16
ENDBRANCH  14  15
END_RES GLU D 570
ENDMDL
MODEL 7
REMARK VINA RESULT:      -6.0      6.598      9.289
REMARK  5 active torsions:
REMARK  status: ('A' for Active; 'I' for Inactive)
REMARK    1  A    between atoms: C_4  and  N_11 
REMARK    2  A    between atoms: C_5  and  N_7 
REMARK    3  A    between atoms: N_7  and  C_8 
REMARK    4  A    between atoms: C_8  and  C_9 
REMARK    5  A    between atoms: C_9  and  O_10 
ROOT
HETATM    1  C   UNL     1     -33.463  -3.775 -12.327  1.00  0.00     0.002 A 
HETATM    2  C   UNL     1     -33.244  -3.405 -11.009  1.00  0.00     0.003 A 
HETATM    3  C   UNL     1     -33.972  -2.351 -10.467  1.00  0.00     0.038 A 
HETATM    4  C   UNL     1     -34.932  -1.666 -11.246  1.00  0.00     0.123 A 
HETATM    5  C   UNL     1     -35.186  -2.036 -12.594  1.00  0.00     0.041 A 
HETATM    6  C   UNL     1     -34.405  -3.092 -13.105  1.00  0.00     0.026 A 
ENDROOT
BRANCH   5   7
HETATM    7  N   UNL     1     -36.048  -1.315 -13.453  1.00  0.00    -0.289 NA
HETATM    8  H   UNL     1     -36.920  -1.838 -13.621  1.00  0.00     0.127 HD
BRANCH   7   9
HETATM    9  C   UNL     1     -35.484  -0.744 -14.689  1.00  0.00     0.118 C 
BRANCH   9  10
HETATM   10  C   UNL     1     -35.462   0.787 -14.623  1.00  0.00     0.178 C 
BRANCH  10  11
HETATM   11  O   UNL     1     -34.496   1.232 -13.673  1.00  0.00    -0.400 OA
HETATM   12  H   UNL     1     -33.768   0.586 -13.708  1.00  0.00     0.209 HD
ENDBRANCH  10  11
ENDBRANCH   9  10
ENDBRANCH   7   9
ENDBRANCH   5   7
BRANCH   4  13
HETATM   13  N   UNL     1     -35.688  -0.592 -10.575  1.00  0.00    -0.114 N 
HETATM   14  O   UNL     1     -35.897   0.452 -11.211  1.00  0.00    -0.532 OA
HETATM   15  O   UNL     1     -36.050  -0.769  -9.400  1.00  0.00    -0.532 OA
ENDBRANCH   4  13
TORSDOF 5
BEGIN_RES ARG D 557
REMARK  4 active torsions:
REMARK  status: ('A' for Active; 'I' for Inactive)
REMARK    1  A    between atoms: CA   and  CB  
REMARK    2  A    between atoms: CB   and  CG  
REMARK    3  A    between atoms: CG   and  CD  
REMARK    4  A    between atoms: CD   and  NE  
REMARK       I    between atoms: NE   and  CZ  
REMARK       I    between atoms: CZ   and  NH1 
REMARK       I    between atoms: CZ   and  NH2 
ROOT
ATOM      1  CA  ARG D 557     -26.217   2.705 -17.014  1.00 35.49     0.159 C 
ENDROOT
BRANCH   1   2
ATOM      2  CB  ARG D 557     -26.789   1.319 -17.183  1.00 35.49     0.034 C 
BRANCH   2   3
ATOM      3  CG  ARG D 557     -28.233   1.226 -17.428  1.00 35.49     0.027 C 
BRANCH   3   4
ATOM      4  CD  ARG D 557     -28.905   0.295 -16.492  1.00 35.49     0.116 C 
BRANCH   4   5
ATOM      5  NE  ARG D 557     -29.301  -0.930 -17.135  1.00 35.49    -0.212 N 
ATOM      6  CZ  ARG D 557     -28.679  -2.083 -17.038  1.00 35.49     0.666 C 
ATOM      7  NH1 ARG D 557     -27.579  -2.238 -16.325  1.00 35.49    -0.235 N 
ATOM      8  NH2 ARG D 557     -29.192  -3.097 -17.674  1.00 35.49    -0.235 N 
ATOM      9  HH  ARG D 557     -27.225  -1.586 -15.897  1.00 35.49     0.174 HD
ATOM     10  HH  ARG D 557     -27.218  -3.015 -16.297  1.00 35.49     0.174 HD
ATOM     11  HH  ARG D 557     -29.907  -2.969 -18.120  1.00 35.49     0.174 HD
ATOM     12  HH  ARG D 557     -28.821  -3.858 -17.632  1.00 35.49     0.174 HD
ATOM     13  HE  ARG D 557     -29.959  -0.904 -17.673  1.00 35.49     0.178 HD
ENDBRANCH   4   5
ENDBRANCH   3   4
ENDBRANCH   2   3
ENDBRANCH   1   2
END_RES ARG D 557
BEGIN_RES GLU D 570
REMARK  3 active torsions:
REMARK  status: ('A' for Active; 'I' for Inactive)
REMARK    5  A    between atoms: CA   and  CB  
REMARK    6  A    between atoms: CB   and  CG  
REMARK    7  A    between atoms: CG   and  CD  
ROOT
ATOM     14  CA  GLU D 570     -18.033  -6.348 -13.375  1.00 32.92     0.160 C 
ENDROOT
BRANCH  14  15
ATOM     15  CB  GLU D 570     -19.500  -6.345 -13.794  1.00 32.92     0.043 C 
BRANCH  15  16
ATOM     16  CG  GLU D 570     -20.449  -5.566 -12.957  1.00 32.92     0.100 C 
BRANCH  16  17
ATOM     17  CD  GLU D 570     -21.699  -5.162 -13.705  1.00 32.92     0.185 C 
ATOM     18  OE1 GLU D 570     -21.674  -5.126 -14.950  1.00 32.92    -0.647 OA
ATOM     19  OE2 GLU D 570     -22.708  -4.862 -13.037  1.00 32.92    -0.647 OA
ENDBRANCH  16  17
ENDBRANCH  15  16
ENDBRANCH  14  15
END_RES GLU D 570
ENDMDL
MODEL 8
REMARK VINA RESULT:      -5.8      6.346      9.151
REMARK  5 active torsions:
REMARK  status: ('A' for Active; 'I' for Inactive)
REMARK    1  A    between atoms: C_4  and  N_11 
REMARK    2  A    between atoms: C_5  and  N_7 
REMARK    3  A    between atoms: N_7  and  C_8 
REMARK    4  A    between atoms: C_8  and  C_9 
REMARK    5  A    between atoms: C_9  and  O_10 
ROOT
HETATM    1  C   UNL     1     -33.255  -4.036 -11.225  1.00  0.00     0.002 A 
HETATM    2  C   UNL     1     -33.643  -2.944 -10.464  1.00  0.00     0.003 A 
HETATM    3  C   UNL     1     -34.359  -1.914 -11.063  1.00  0.00     0.038 A 
HETATM    4  C   UNL     1     -34.696  -1.978 -12.435  1.00  0.00     0.123 A 
HETATM    5  C   UNL     1     -34.324  -3.092 -13.234  1.00  0.00     0.041 A 
HETATM    6  C   UNL     1     -33.578  -4.098 -12.586  1.00  0.00     0.026 A 
ENDROOT
BRANCH   5   7
HETATM    7  N   UNL     1     -34.532  -3.158 -14.631  1.00  0.00    -0.289 NA
HETATM    8  H   UNL     1     -35.430  -2.723 -14.890  1.00  0.00     0.127 HD
BRANCH   7   9
HETATM    9  C   UNL     1     -34.312  -4.447 -15.310  1.00  0.00     0.118 C 
BRANCH   9  10
HETATM   10  C   UNL     1     -33.188  -4.333 -16.346  1.00  0.00     0.178 C 
BRANCH  10  11
HETATM   11  O   UNL     1     -32.880  -5.613 -16.892  1.00  0.00    -0.400 OA
HETATM   12  H   UNL     1     -33.059  -6.258 -16.184  1.00  0.00     0.209 HD
ENDBRANCH  10  11
ENDBRANCH   9  10
ENDBRANCH   7   9
ENDBRANCH   5   7
BRANCH   4  13
HETATM   13  N   UNL     1     -35.495  -0.862 -12.976  1.00  0.00    -0.114 N 
HETATM   14  O   UNL     1     -36.591  -1.131 -13.491  1.00  0.00    -0.532 OA
HETATM   15  O   UNL     1     -35.021   0.285 -12.920  1.00  0.00    -0.532 OA
ENDBRANCH   4  13
TORSDOF 5
BEGIN_RES ARG D 557
REMARK  4 active torsions:
REMARK  status: ('A' for Active; 'I' for Inactive)
REMARK    1  A    between atoms: CA   and  CB  
REMARK    2  A    between atoms: CB   and  CG  
REMARK    3  A    between atoms: CG   and  CD  
REMARK    4  A    between atoms: CD   and  NE  
REMARK       I    between atoms: NE   and  CZ  
REMARK       I    between atoms: CZ   and  NH1 
REMARK       I    between atoms: CZ   and  NH2 
ROOT
ATOM      1  CA  ARG D 557     -26.217   2.705 -17.014  1.00 35.49     0.159 C 
ENDROOT
BRANCH   1   2
ATOM      2  CB  ARG D 557     -26.789   1.319 -17.183  1.00 35.49     0.034 C 
BRANCH   2   3
ATOM      3  CG  ARG D 557     -25.867   0.195 -16.983  1.00 35.49     0.027 C 
BRANCH   3   4
ATOM      4  CD  ARG D 557     -26.297  -0.700 -15.884  1.00 35.49     0.116 C 
BRANCH   4   5
ATOM      5  NE  ARG D 557     -25.245  -0.933 -14.931  1.00 35.49    -0.212 N 
ATOM      6  CZ  ARG D 557     -24.968  -2.084 -14.359  1.00 35.49     0.666 C 
ATOM      7  NH1 ARG D 557     -25.663  -3.180 -14.599  1.00 35.49    -0.235 N 
ATOM      8  NH2 ARG D 557     -23.962  -2.117 -13.534  1.00 35.49    -0.235 N 
ATOM      9  HH  ARG D 557     -26.327  -3.182 -15.140  1.00 35.49     0.174 HD
ATOM     10  HH  ARG D 557     -25.434  -3.903 -14.199  1.00 35.49     0.174 HD
ATOM     11  HH  ARG D 557     -23.527  -1.395 -13.403  1.00 35.49     0.174 HD
ATOM     12  HH  ARG D 557     -23.751  -2.842 -13.148  1.00 35.49     0.174 HD
ATOM     13  HE  ARG D 557     -24.793  -0.265 -14.663  1.00 35.49     0.178 HD
ENDBRANCH   4   5
ENDBRANCH   3   4
ENDBRANCH   2   3
ENDBRANCH   1   2
END_RES ARG D 557
BEGIN_RES GLU D 570
REMARK  3 active torsions:
REMARK  status: ('A' for Active; 'I' for Inactive)
REMARK    5  A    between atoms: CA   and  CB  
REMARK    6  A    between atoms: CB   and  CG  
REMARK    7  A    between atoms: CG   and  CD  
ROOT
ATOM     14  CA  GLU D 570     -18.033  -6.348 -13.375  1.00 32.92     0.160 C 
ENDROOT
BRANCH  14  15
ATOM     15  CB  GLU D 570     -19.500  -6.345 -13.794  1.00 32.92     0.043 C 
BRANCH  15  16
ATOM     16  CG  GLU D 570     -20.440  -5.521 -12.990  1.00 32.92     0.100 C 
BRANCH  16  17
ATOM     17  CD  GLU D 570     -21.691  -5.145 -13.749  1.00 32.92     0.185 C 
ATOM     18  OE1 GLU D 570     -21.620  -4.964 -14.980  1.00 32.92    -0.647 OA
ATOM     19  OE2 GLU D 570     -22.749  -5.012 -13.103  1.00 32.92    -0.647 OA
ENDBRANCH  16  17
ENDBRANCH  15  16
ENDBRANCH  14  15
END_RES GLU D 570
ENDMDL
MODEL 9
REMARK VINA RESULT:      -5.8      6.085      8.830
REMARK  5 active torsions:
REMARK  status: ('A' for Active; 'I' for Inactive)
REMARK    1  A    between atoms: C_4  and  N_11 
REMARK    2  A    between atoms: C_5  and  N_7 
REMARK    3  A    between atoms: N_7  and  C_8 
REMARK    4  A    between atoms: C_8  and  C_9 
REMARK    5  A    between atoms: C_9  and  O_10 
ROOT
HETATM    1  C   UNL     1     -33.214  -4.000 -11.299  1.00  0.00     0.002 A 
HETATM    2  C   UNL     1     -33.653  -2.880 -10.609  1.00  0.00     0.003 A 
HETATM    3  C   UNL     1     -34.404  -1.918 -11.275  1.00  0.00     0.038 A 
HETATM    4  C   UNL     1     -34.724  -2.079 -12.643  1.00  0.00     0.123 A 
HETATM    5  C   UNL     1     -34.300  -3.224 -13.369  1.00  0.00     0.041 A 
HETATM    6  C   UNL     1     -33.520  -4.157 -12.656  1.00  0.00     0.026 A 
ENDROOT
BRANCH   5   7
HETATM    7  N   UNL     1     -34.491  -3.382 -14.762  1.00  0.00    -0.289 NA
HETATM    8  H   UNL     1     -35.468  -3.184 -15.023  1.00  0.00     0.127 HD
BRANCH   7   9
HETATM    9  C   UNL     1     -33.970  -4.601 -15.404  1.00  0.00     0.118 C 
BRANCH   9  10
HETATM   10  C   UNL     1     -32.998  -4.250 -16.536  1.00  0.00     0.178 C 
BRANCH  10  11
HETATM   11  O   UNL     1     -31.653  -4.506 -16.138  1.00  0.00    -0.400 OA
HETATM   12  H   UNL     1     -31.201  -4.854 -16.928  1.00  0.00     0.209 HD
ENDBRANCH  10  11
ENDBRANCH   9  10
ENDBRANCH   7   9
ENDBRANCH   5   7
BRANCH   4  13
HETATM   13  N   UNL     1     -35.561  -1.031 -13.257  1.00  0.00    -0.114 N 
HETATM   14  O   UNL     1     -36.758  -0.985 -12.937  1.00  0.00    -0.532 OA
HETATM   15  O   UNL     1     -35.039  -0.268 -14.088  1.00  0.00    -0.532 OA
ENDBRANCH   4  13
TORSDOF 5
BEGIN_RES ARG D 557
REMARK  4 active torsions:
REMARK  status: ('A' for Active; 'I' for Inactive)
REMARK    1  A    between atoms: CA   and  CB  
REMARK    2  A    between atoms: CB   and  CG  
REMARK    3  A    between atoms: CG   and  CD  
REMARK    4  A    between atoms: CD   and  NE  
REMARK       I    between atoms: NE   and  CZ  
REMARK       I    between atoms: CZ   and  NH1 
REMARK       I    between atoms: CZ   and  NH2 
ROOT
ATOM      1  CA  ARG D 557     -26.217   2.705 -17.014  1.00 35.49     0.159 C 
ENDROOT
BRANCH   1   2
ATOM      2  CB  ARG D 557     -26.789   1.319 -17.183  1.00 35.49     0.034 C 
BRANCH   2   3
ATOM      3  CG  ARG D 557     -28.226   1.228 -17.467  1.00 35.49     0.027 C 
BRANCH   3   4
ATOM      4  CD  ARG D 557     -28.922   0.286 -16.559  1.00 35.49     0.116 C 
BRANCH   4   5
ATOM      5  NE  ARG D 557     -28.148  -0.902 -16.314  1.00 35.49    -0.212 N 
ATOM      6  CZ  ARG D 557     -28.437  -2.109 -16.745  1.00 35.49     0.666 C 
ATOM      7  NH1 ARG D 557     -29.514  -2.367 -17.462  1.00 35.49    -0.235 N 
ATOM      8  NH2 ARG D 557     -27.609  -3.068 -16.444  1.00 35.49    -0.235 N 
ATOM      9  HH  ARG D 557     -30.072  -1.752 -17.673  1.00 35.49     0.174 HD
ATOM     10  HH  ARG D 557     -29.650  -3.174 -17.718  1.00 35.49     0.174 HD
ATOM     11  HH  ARG D 557     -26.917  -2.870 -15.986  1.00 35.49     0.174 HD
ATOM     12  HH  ARG D 557     -27.760  -3.860 -16.708  1.00 35.49     0.174 HD
ATOM     13  HE  ARG D 557     -27.474  -0.840 -15.798  1.00 35.49     0.178 HD
ENDBRANCH   4   5
ENDBRANCH   3   4
ENDBRANCH   2   3
ENDBRANCH   1   2
END_RES ARG D 557
BEGIN_RES GLU D 570
REMARK  3 active torsions:
REMARK  status: ('A' for Active; 'I' for Inactive)
REMARK    5  A    between atoms: CA   and  CB  
REMARK    6  A    between atoms: CB   and  CG  
REMARK    7  A    between atoms: CG   and  CD  
ROOT
ATOM     14  CA  GLU D 570     -18.033  -6.348 -13.375  1.00 32.92     0.160 C 
ENDROOT
BRANCH  14  15
ATOM     15  CB  GLU D 570     -19.500  -6.345 -13.794  1.00 32.92     0.043 C 
BRANCH  15  16
ATOM     16  CG  GLU D 570     -20.450  -5.567 -12.957  1.00 32.92     0.100 C 
BRANCH  16  17
ATOM     17  CD  GLU D 570     -21.696  -5.157 -13.705  1.00 32.92     0.185 C 
ATOM     18  OE1 GLU D 570     -21.646  -5.040 -14.945  1.00 32.92    -0.647 OA
ATOM     19  OE2 GLU D 570     -22.728  -4.933 -13.044  1.00 32.92    -0.647 OA
ENDBRANCH  16  17
ENDBRANCH  15  16
ENDBRANCH  14  15
END_RES GLU D 570
ENDMDL
