MODEL 1
REMARK VINA RESULT:      -6.7      0.000      0.000
REMARK  19 active torsions:
REMARK  status: ('A' for Active; 'I' for Inactive)
REMARK    1  A    between atoms: C_2  and  C_3 
REMARK    2  A    between atoms: C_3  and  C_4 
REMARK    3  A    between atoms: C_4  and  O_5 
REMARK    4  A    between atoms: O_5  and  C_6 
REMARK    5  A    between atoms: C_6  and  C_8 
REMARK    6  A    between atoms: C_8  and  C_9 
REMARK    7  A    between atoms: C_9  and  C_10 
REMARK    8  A    between atoms: C_9  and  C_18 
REMARK    9  A    between atoms: C_9  and  O_25 
REMARK   10  A    between atoms: C_10  and  C_11 
REMARK   11  A    between atoms: C_11  and  O_13 
REMARK   12  A    between atoms: O_13  and  C_14 
REMARK   13  A    between atoms: C_14  and  C_15 
REMARK   14  A    between atoms: C_15  and  C_16 
REMARK   15  A    between atoms: C_18  and  O_20 
REMARK   16  A    between atoms: O_20  and  C_21 
REMARK   17  A    between atoms: C_21  and  C_22 
REMARK   18  A    between atoms: C_22  and  C_23 
REMARK   19  A    between atoms: O_25  and  C_26 
ROOT
HETATM    1  C   UNL     1     -23.302  -3.667 -12.634  1.00  0.00     0.175 C 
ENDROOT
BRANCH   1   2
HETATM    2  C   UNL     1     -23.040  -4.219 -14.040  1.00  0.00     0.161 C 
BRANCH   2   3
HETATM    3  C   UNL     1     -23.699  -5.551 -14.280  1.00  0.00     0.262 C 
HETATM    4  O   UNL     1     -23.460  -6.578 -13.671  1.00  0.00    -0.265 OA
BRANCH   3   5
HETATM    5  O   UNL     1     -24.568  -5.457 -15.324  1.00  0.00    -0.321 OA
BRANCH   5   6
HETATM    6  C   UNL     1     -24.915  -6.728 -15.876  1.00  0.00     0.178 C 
BRANCH   6   7
HETATM    7  C   UNL     1     -26.412  -7.003 -15.819  1.00  0.00     0.026 C 
BRANCH   7   8
HETATM    8  C   UNL     1     -27.248  -5.760 -16.121  1.00  0.00    -0.002 C 
HETATM    9  C   UNL     1     -28.649  -5.883 -15.542  1.00  0.00     0.005 C 
ENDBRANCH   7   8
ENDBRANCH   6   7
ENDBRANCH   5   6
ENDBRANCH   3   5
ENDBRANCH   2   3
ENDBRANCH   1   2
BRANCH   1  10
HETATM   10  C   UNL     1     -24.012  -4.693 -11.733  1.00  0.00     0.161 C 
BRANCH  10  11
HETATM   11  C   UNL     1     -24.372  -4.204 -10.341  1.00  0.00     0.262 C 
HETATM   12  O   UNL     1     -25.130  -3.283 -10.094  1.00  0.00    -0.265 OA
BRANCH  11  13
HETATM   13  O   UNL     1     -23.577  -4.814  -9.415  1.00  0.00    -0.321 OA
BRANCH  13  14
HETATM   14  C   UNL     1     -23.313  -4.000  -8.265  1.00  0.00     0.178 C 
BRANCH  14  15
HETATM   15  C   UNL     1     -23.447  -4.762  -6.953  1.00  0.00     0.026 C 
BRANCH  15  16
HETATM   16  C   UNL     1     -22.082  -5.308  -6.524  1.00  0.00    -0.002 C 
HETATM   17  C   UNL     1     -22.177  -6.192  -5.293  1.00  0.00     0.005 C 
ENDBRANCH  15  16
ENDBRANCH  14  15
ENDBRANCH  13  14
ENDBRANCH  11  13
ENDBRANCH  10  11
ENDBRANCH   1  10
BRANCH   1  18
HETATM   18  C   UNL     1     -21.964  -3.316 -11.943  1.00  0.00     0.295 C 
HETATM   19  O   UNL     1     -21.579  -2.174 -11.732  1.00  0.00    -0.262 OA
BRANCH  18  20
HETATM   20  O   UNL     1     -21.226  -4.446 -11.706  1.00  0.00    -0.319 OA
BRANCH  20  21
HETATM   21  C   UNL     1     -20.020  -4.256 -10.953  1.00  0.00     0.178 C 
BRANCH  21  22
HETATM   22  C   UNL     1     -20.094  -4.863  -9.554  1.00  0.00     0.026 C 
BRANCH  22  23
HETATM   23  C   UNL     1     -19.613  -3.838  -8.520  1.00  0.00    -0.002 C 
HETATM   24  C   UNL     1     -18.782  -4.464  -7.413  1.00  0.00     0.005 C 
ENDBRANCH  22  23
ENDBRANCH  21  22
ENDBRANCH  20  21
ENDBRANCH  18  20
ENDBRANCH   1  18
BRANCH   1  25
HETATM   25  O   UNL     1     -24.173  -2.496 -12.703  1.00  0.00    -0.299 OA
BRANCH  25  26
HETATM   26  C   UNL     1     -24.940  -2.361 -13.820  1.00  0.00     0.256 C 
HETATM   27  O   UNL     1     -26.013  -2.922 -14.002  1.00  0.00    -0.266 OA
HETATM   28  C   UNL     1     -24.334  -1.436 -14.827  1.00  0.00     0.126 C 
ENDBRANCH  25  26
ENDBRANCH   1  25
TORSDOF 19
BEGIN_RES ARG D 557
REMARK  4 active torsions:
REMARK  status: ('A' for Active; 'I' for Inactive)
REMARK    1  A    between atoms: CA   and  CB  
REMARK    2  A    between atoms: CB   and  CG  
REMARK    3  A    between atoms: CG   and  CD  
REMARK    4  A    between atoms: CD   and  NE  
REMARK       I    between atoms: NE   and  CZ  
REMARK       I    between atoms: CZ   and  NH1 
REMARK       I    between atoms: CZ   and  NH2 
ROOT
ATOM      1  CA  ARG D 557     -26.217   2.705 -17.014  1.00 35.49     0.159 C 
ENDROOT
BRANCH   1   2
ATOM      2  CB  ARG D 557     -26.789   1.319 -17.183  1.00 35.49     0.034 C 
BRANCH   2   3
ATOM      3  CG  ARG D 557     -28.231   1.226 -17.442  1.00 35.49     0.027 C 
BRANCH   3   4
ATOM      4  CD  ARG D 557     -28.915   0.309 -16.503  1.00 35.49     0.116 C 
BRANCH   4   5
ATOM      5  NE  ARG D 557     -29.325  -0.914 -17.141  1.00 35.49    -0.212 N 
ATOM      6  CZ  ARG D 557     -28.705  -2.070 -17.056  1.00 35.49     0.666 C 
ATOM      7  NH1 ARG D 557     -27.594  -2.230 -16.361  1.00 35.49    -0.235 N 
ATOM      8  NH2 ARG D 557     -29.232  -3.081 -17.685  1.00 35.49    -0.235 N 
ATOM      9  HH  ARG D 557     -27.232  -1.579 -15.938  1.00 35.49     0.174 HD
ATOM     10  HH  ARG D 557     -27.236  -3.008 -16.339  1.00 35.49     0.174 HD
ATOM     11  HH  ARG D 557     -29.954  -2.950 -18.119  1.00 35.49     0.174 HD
ATOM     12  HH  ARG D 557     -28.863  -3.844 -17.650  1.00 35.49     0.174 HD
ATOM     13  HE  ARG D 557     -29.992  -0.886 -17.668  1.00 35.49     0.178 HD
ENDBRANCH   4   5
ENDBRANCH   3   4
ENDBRANCH   2   3
ENDBRANCH   1   2
END_RES ARG D 557
BEGIN_RES GLU D 570
REMARK  3 active torsions:
REMARK  status: ('A' for Active; 'I' for Inactive)
REMARK    5  A    between atoms: CA   and  CB  
REMARK    6  A    between atoms: CB   and  CG  
REMARK    7  A    between atoms: CG   and  CD  
ROOT
ATOM     14  CA  GLU D 570     -18.033  -6.348 -13.375  1.00 32.92     0.160 C 
ENDROOT
BRANCH  14  15
ATOM     15  CB  GLU D 570     -19.500  -6.345 -13.794  1.00 32.92     0.043 C 
BRANCH  15  16
ATOM     16  CG  GLU D 570     -19.802  -6.107 -15.229  1.00 32.92     0.100 C 
BRANCH  16  17
ATOM     17  CD  GLU D 570     -20.697  -7.166 -15.827  1.00 32.92     0.185 C 
ATOM     18  OE1 GLU D 570     -21.451  -6.860 -16.771  1.00 32.92    -0.647 OA
ATOM     19  OE2 GLU D 570     -20.657  -8.311 -15.336  1.00 32.92    -0.647 OA
ENDBRANCH  16  17
ENDBRANCH  15  16
ENDBRANCH  14  15
END_RES GLU D 570
ENDMDL
MODEL 2
REMARK VINA RESULT:      -6.3      4.752      9.265
REMARK  19 active torsions:
REMARK  status: ('A' for Active; 'I' for Inactive)
REMARK    1  A    between atoms: C_2  and  C_3 
REMARK    2  A    between atoms: C_3  and  C_4 
REMARK    3  A    between atoms: C_4  and  O_5 
REMARK    4  A    between atoms: O_5  and  C_6 
REMARK    5  A    between atoms: C_6  and  C_8 
REMARK    6  A    between atoms: C_8  and  C_9 
REMARK    7  A    between atoms: C_9  and  C_10 
REMARK    8  A    between atoms: C_9  and  C_18 
REMARK    9  A    between atoms: C_9  and  O_25 
REMARK   10  A    between atoms: C_10  and  C_11 
REMARK   11  A    between atoms: C_11  and  O_13 
REMARK   12  A    between atoms: O_13  and  C_14 
REMARK   13  A    between atoms: C_14  and  C_15 
REMARK   14  A    between atoms: C_15  and  C_16 
REMARK   15  A    between atoms: C_18  and  O_20 
REMARK   16  A    between atoms: O_20  and  C_21 
REMARK   17  A    between atoms: C_21  and  C_22 
REMARK   18  A    between atoms: C_22  and  C_23 
REMARK   19  A    between atoms: O_25  and  C_26 
ROOT
HETATM    1  C   UNL     1     -20.505  -7.811  -4.071  1.00  0.00     0.175 C 
ENDROOT
BRANCH   1   2
HETATM    2  C   UNL     1     -20.523  -6.812  -2.910  1.00  0.00     0.161 C 
BRANCH   2   3
HETATM    3  C   UNL     1     -21.835  -6.793  -2.171  1.00  0.00     0.262 C 
HETATM    4  O   UNL     1     -22.743  -6.006  -2.363  1.00  0.00    -0.265 OA
BRANCH   3   5
HETATM    5  O   UNL     1     -21.839  -7.757  -1.209  1.00  0.00    -0.321 OA
BRANCH   5   6
HETATM    6  C   UNL     1     -22.722  -7.459  -0.126  1.00  0.00     0.178 C 
BRANCH   6   7
HETATM    7  C   UNL     1     -23.271  -8.713   0.543  1.00  0.00     0.026 C 
BRANCH   7   8
HETATM    8  C   UNL     1     -22.891  -9.990  -0.203  1.00  0.00    -0.002 C 
HETATM    9  C   UNL     1     -24.045 -10.980  -0.227  1.00  0.00     0.005 C 
ENDBRANCH   7   8
ENDBRANCH   6   7
ENDBRANCH   5   6
ENDBRANCH   3   5
ENDBRANCH   2   3
ENDBRANCH   1   2
BRANCH   1  10
HETATM   10  C   UNL     1     -20.375  -7.112  -5.435  1.00  0.00     0.161 C 
BRANCH  10  11
HETATM   11  C   UNL     1     -21.175  -5.832  -5.596  1.00  0.00     0.262 C 
HETATM   12  O   UNL     1     -22.390  -5.765  -5.651  1.00  0.00    -0.265 OA
BRANCH  11  13
HETATM   13  O   UNL     1     -20.335  -4.791  -5.867  1.00  0.00    -0.321 OA
BRANCH  13  14
HETATM   14  C   UNL     1     -20.758  -3.990  -6.978  1.00  0.00     0.178 C 
BRANCH  14  15
HETATM   15  C   UNL     1     -19.786  -4.038  -8.149  1.00  0.00     0.026 C 
BRANCH  15  16
HETATM   16  C   UNL     1     -20.546  -4.326  -9.448  1.00  0.00    -0.002 C 
HETATM   17  C   UNL     1     -22.035  -4.511  -9.214  1.00  0.00     0.005 C 
ENDBRANCH  15  16
ENDBRANCH  14  15
ENDBRANCH  13  14
ENDBRANCH  11  13
ENDBRANCH  10  11
ENDBRANCH   1  10
BRANCH   1  18
HETATM   18  C   UNL     1     -19.290  -8.759  -3.938  1.00  0.00     0.295 C 
HETATM   19  O   UNL     1     -18.943  -9.286  -2.890  1.00  0.00    -0.262 OA
BRANCH  18  20
HETATM   20  O   UNL     1     -18.599  -8.836  -5.118  1.00  0.00    -0.319 OA
BRANCH  20  21
HETATM   21  C   UNL     1     -17.882 -10.058  -5.343  1.00  0.00     0.178 C 
BRANCH  21  22
HETATM   22  C   UNL     1     -16.517  -9.833  -5.991  1.00  0.00     0.026 C 
BRANCH  22  23
HETATM   23  C   UNL     1     -15.424 -10.473  -5.126  1.00  0.00    -0.002 C 
HETATM   24  C   UNL     1     -15.761 -10.457  -3.645  1.00  0.00     0.005 C 
ENDBRANCH  22  23
ENDBRANCH  21  22
ENDBRANCH  20  21
ENDBRANCH  18  20
ENDBRANCH   1  18
BRANCH   1  25
HETATM   25  O   UNL     1     -21.753  -8.571  -4.107  1.00  0.00    -0.299 OA
BRANCH  25  26
HETATM   26  C   UNL     1     -21.705  -9.813  -4.662  1.00  0.00     0.256 C 
HETATM   27  O   UNL     1     -21.413 -10.046  -5.827  1.00  0.00    -0.266 OA
HETATM   28  C   UNL     1     -22.050 -10.894  -3.687  1.00  0.00     0.126 C 
ENDBRANCH  25  26
ENDBRANCH   1  25
TORSDOF 19
BEGIN_RES ARG D 557
REMARK  4 active torsions:
REMARK  status: ('A' for Active; 'I' for Inactive)
REMARK    1  A    between atoms: CA   and  CB  
REMARK    2  A    between atoms: CB   and  CG  
REMARK    3  A    between atoms: CG   and  CD  
REMARK    4  A    between atoms: CD   and  NE  
REMARK       I    between atoms: NE   and  CZ  
REMARK       I    between atoms: CZ   and  NH1 
REMARK       I    between atoms: CZ   and  NH2 
ROOT
ATOM      1  CA  ARG D 557     -26.217   2.705 -17.014  1.00 35.49     0.159 C 
ENDROOT
BRANCH   1   2
ATOM      2  CB  ARG D 557     -26.789   1.319 -17.183  1.00 35.49     0.034 C 
BRANCH   2   3
ATOM      3  CG  ARG D 557     -28.229   1.227 -17.451  1.00 35.49     0.027 C 
BRANCH   3   4
ATOM      4  CD  ARG D 557     -28.921   0.314 -16.512  1.00 35.49     0.116 C 
BRANCH   4   5
ATOM      5  NE  ARG D 557     -29.313  -0.918 -17.143  1.00 35.49    -0.212 N 
ATOM      6  CZ  ARG D 557     -28.684  -2.068 -17.041  1.00 35.49     0.666 C 
ATOM      7  NH1 ARG D 557     -27.578  -2.211 -16.334  1.00 35.49    -0.235 N 
ATOM      8  NH2 ARG D 557     -29.194  -3.089 -17.666  1.00 35.49    -0.235 N 
ATOM      9  HH  ARG D 557     -27.226  -1.553 -15.913  1.00 35.49     0.174 HD
ATOM     10  HH  ARG D 557     -27.213  -2.985 -16.301  1.00 35.49     0.174 HD
ATOM     11  HH  ARG D 557     -29.913  -2.969 -18.109  1.00 35.49     0.174 HD
ATOM     12  HH  ARG D 557     -28.819  -3.848 -17.620  1.00 35.49     0.174 HD
ATOM     13  HE  ARG D 557     -29.974  -0.901 -17.678  1.00 35.49     0.178 HD
ENDBRANCH   4   5
ENDBRANCH   3   4
ENDBRANCH   2   3
ENDBRANCH   1   2
END_RES ARG D 557
BEGIN_RES GLU D 570
REMARK  3 active torsions:
REMARK  status: ('A' for Active; 'I' for Inactive)
REMARK    5  A    between atoms: CA   and  CB  
REMARK    6  A    between atoms: CB   and  CG  
REMARK    7  A    between atoms: CG   and  CD  
ROOT
ATOM     14  CA  GLU D 570     -18.033  -6.348 -13.375  1.00 32.92     0.160 C 
ENDROOT
BRANCH  14  15
ATOM     15  CB  GLU D 570     -19.500  -6.345 -13.794  1.00 32.92     0.043 C 
BRANCH  15  16
ATOM     16  CG  GLU D 570     -20.441  -5.527 -12.986  1.00 32.92     0.100 C 
BRANCH  16  17
ATOM     17  CD  GLU D 570     -21.747  -5.257 -13.697  1.00 32.92     0.185 C 
ATOM     18  OE1 GLU D 570     -22.337  -4.180 -13.488  1.00 32.92    -0.647 OA
ATOM     19  OE2 GLU D 570     -22.192  -6.139 -14.457  1.00 32.92    -0.647 OA
ENDBRANCH  16  17
ENDBRANCH  15  16
ENDBRANCH  14  15
END_RES GLU D 570
ENDMDL
MODEL 3
REMARK VINA RESULT:      -6.2      3.278      8.610
REMARK  19 active torsions:
REMARK  status: ('A' for Active; 'I' for Inactive)
REMARK    1  A    between atoms: C_2  and  C_3 
REMARK    2  A    between atoms: C_3  and  C_4 
REMARK    3  A    between atoms: C_4  and  O_5 
REMARK    4  A    between atoms: O_5  and  C_6 
REMARK    5  A    between atoms: C_6  and  C_8 
REMARK    6  A    between atoms: C_8  and  C_9 
REMARK    7  A    between atoms: C_9  and  C_10 
REMARK    8  A    between atoms: C_9  and  C_18 
REMARK    9  A    between atoms: C_9  and  O_25 
REMARK   10  A    between atoms: C_10  and  C_11 
REMARK   11  A    between atoms: C_11  and  O_13 
REMARK   12  A    between atoms: O_13  and  C_14 
REMARK   13  A    between atoms: C_14  and  C_15 
REMARK   14  A    between atoms: C_15  and  C_16 
REMARK   15  A    between atoms: C_18  and  O_20 
REMARK   16  A    between atoms: O_20  and  C_21 
REMARK   17  A    between atoms: C_21  and  C_22 
REMARK   18  A    between atoms: C_22  and  C_23 
REMARK   19  A    between atoms: O_25  and  C_26 
ROOT
HETATM    1  C   UNL     1     -27.638  -6.125 -16.548  1.00  0.00     0.175 C 
ENDROOT
BRANCH   1   2
HETATM    2  C   UNL     1     -26.760  -7.076 -15.728  1.00  0.00     0.161 C 
BRANCH   2   3
HETATM    3  C   UNL     1     -25.288  -6.880 -15.979  1.00  0.00     0.262 C 
HETATM    4  O   UNL     1     -24.765  -6.777 -17.073  1.00  0.00    -0.265 OA
BRANCH   3   5
HETATM    5  O   UNL     1     -24.612  -6.890 -14.798  1.00  0.00    -0.321 OA
BRANCH   5   6
HETATM    6  C   UNL     1     -23.839  -5.707 -14.588  1.00  0.00     0.178 C 
BRANCH   6   7
HETATM    7  C   UNL     1     -23.531  -5.460 -13.117  1.00  0.00     0.026 C 
BRANCH   7   8
HETATM    8  C   UNL     1     -22.248  -4.655 -12.914  1.00  0.00    -0.002 C 
HETATM    9  C   UNL     1     -22.091  -4.224 -11.465  1.00  0.00     0.005 C 
ENDBRANCH   7   8
ENDBRANCH   6   7
ENDBRANCH   5   6
ENDBRANCH   3   5
ENDBRANCH   2   3
ENDBRANCH   1   2
BRANCH   1  10
HETATM   10  C   UNL     1     -27.992  -6.708 -17.927  1.00  0.00     0.161 C 
BRANCH  10  11
HETATM   11  C   UNL     1     -28.086  -5.701 -19.060  1.00  0.00     0.262 C 
HETATM   12  O   UNL     1     -28.792  -4.708 -19.060  1.00  0.00    -0.265 OA
BRANCH  11  13
HETATM   13  O   UNL     1     -27.420  -6.170 -20.155  1.00  0.00    -0.321 OA
BRANCH  13  14
HETATM   14  C   UNL     1     -26.251  -6.934 -19.828  1.00  0.00     0.178 C 
BRANCH  14  15
HETATM   15  C   UNL     1     -25.786  -7.827 -20.970  1.00  0.00     0.026 C 
BRANCH  15  16
HETATM   16  C   UNL     1     -24.256  -7.897 -20.988  1.00  0.00    -0.002 C 
HETATM   17  C   UNL     1     -23.705  -8.083 -22.391  1.00  0.00     0.005 C 
ENDBRANCH  15  16
ENDBRANCH  14  15
ENDBRANCH  13  14
ENDBRANCH  11  13
ENDBRANCH  10  11
ENDBRANCH   1  10
BRANCH   1  18
HETATM   18  C   UNL     1     -28.976  -5.872 -15.814  1.00  0.00     0.295 C 
HETATM   19  O   UNL     1     -29.100  -5.855 -14.597  1.00  0.00    -0.262 OA
BRANCH  18  20
HETATM   20  O   UNL     1     -30.012  -5.784 -16.706  1.00  0.00    -0.319 OA
BRANCH  20  21
HETATM   21  C   UNL     1     -31.102  -4.938 -16.314  1.00  0.00     0.178 C 
BRANCH  21  22
HETATM   22  C   UNL     1     -31.413  -3.856 -17.346  1.00  0.00     0.026 C 
BRANCH  22  23
HETATM   23  C   UNL     1     -32.913  -3.538 -17.325  1.00  0.00    -0.002 C 
HETATM   24  C   UNL     1     -33.635  -4.185 -16.156  1.00  0.00     0.005 C 
ENDBRANCH  22  23
ENDBRANCH  21  22
ENDBRANCH  20  21
ENDBRANCH  18  20
ENDBRANCH   1  18
BRANCH   1  25
HETATM   25  O   UNL     1     -26.935  -4.867 -16.791  1.00  0.00    -0.299 OA
BRANCH  25  26
HETATM   26  C   UNL     1     -27.137  -3.863 -15.894  1.00  0.00     0.256 C 
HETATM   27  O   UNL     1     -26.727  -3.864 -14.741  1.00  0.00    -0.266 OA
HETATM   28  C   UNL     1     -27.925  -2.729 -16.467  1.00  0.00     0.126 C 
ENDBRANCH  25  26
ENDBRANCH   1  25
TORSDOF 19
BEGIN_RES ARG D 557
REMARK  4 active torsions:
REMARK  status: ('A' for Active; 'I' for Inactive)
REMARK    1  A    between atoms: CA   and  CB  
REMARK    2  A    between atoms: CB   and  CG  
REMARK    3  A    between atoms: CG   and  CD  
REMARK    4  A    between atoms: CD   and  NE  
REMARK       I    between atoms: NE   and  CZ  
REMARK       I    between atoms: CZ   and  NH1 
REMARK       I    between atoms: CZ   and  NH2 
ROOT
ATOM      1  CA  ARG D 557     -26.217   2.705 -17.014  1.00 35.49     0.159 C 
ENDROOT
BRANCH   1   2
ATOM      2  CB  ARG D 557     -26.789   1.319 -17.183  1.00 35.49     0.034 C 
BRANCH   2   3
ATOM      3  CG  ARG D 557     -25.833   0.205 -17.186  1.00 35.49     0.027 C 
BRANCH   3   4
ATOM      4  CD  ARG D 557     -24.764   0.376 -16.175  1.00 35.49     0.116 C 
BRANCH   4   5
ATOM      5  NE  ARG D 557     -24.972  -0.458 -15.021  1.00 35.49    -0.212 N 
ATOM      6  CZ  ARG D 557     -24.192  -1.442 -14.634  1.00 35.49     0.666 C 
ATOM      7  NH1 ARG D 557     -23.105  -1.788 -15.298  1.00 35.49    -0.235 N 
ATOM      8  NH2 ARG D 557     -24.523  -2.080 -13.548  1.00 35.49    -0.235 N 
ATOM      9  HH  ARG D 557     -22.867  -1.381 -16.014  1.00 35.49     0.174 HD
ATOM     10  HH  ARG D 557     -22.633  -2.437 -14.997  1.00 35.49     0.174 HD
ATOM     11  HH  ARG D 557     -25.226  -1.829 -13.136  1.00 35.49     0.174 HD
ATOM     12  HH  ARG D 557     -24.042  -2.718 -13.265  1.00 35.49     0.174 HD
ATOM     13  HE  ARG D 557     -25.688  -0.352 -14.575  1.00 35.49     0.178 HD
ENDBRANCH   4   5
ENDBRANCH   3   4
ENDBRANCH   2   3
ENDBRANCH   1   2
END_RES ARG D 557
BEGIN_RES GLU D 570
REMARK  3 active torsions:
REMARK  status: ('A' for Active; 'I' for Inactive)
REMARK    5  A    between atoms: CA   and  CB  
REMARK    6  A    between atoms: CB   and  CG  
REMARK    7  A    between atoms: CG   and  CD  
ROOT
ATOM     14  CA  GLU D 570     -18.033  -6.348 -13.375  1.00 32.92     0.160 C 
ENDROOT
BRANCH  14  15
ATOM     15  CB  GLU D 570     -19.500  -6.345 -13.794  1.00 32.92     0.043 C 
BRANCH  15  16
ATOM     16  CG  GLU D 570     -20.071  -7.621 -14.296  1.00 32.92     0.100 C 
BRANCH  16  17
ATOM     17  CD  GLU D 570     -20.791  -7.466 -15.615  1.00 32.92     0.185 C 
ATOM     18  OE1 GLU D 570     -20.583  -6.447 -16.302  1.00 32.92    -0.647 OA
ATOM     19  OE2 GLU D 570     -21.585  -8.365 -15.957  1.00 32.92    -0.647 OA
ENDBRANCH  16  17
ENDBRANCH  15  16
ENDBRANCH  14  15
END_RES GLU D 570
ENDMDL
MODEL 4
REMARK VINA RESULT:      -6.1      2.699      6.140
REMARK  19 active torsions:
REMARK  status: ('A' for Active; 'I' for Inactive)
REMARK    1  A    between atoms: C_2  and  C_3 
REMARK    2  A    between atoms: C_3  and  C_4 
REMARK    3  A    between atoms: C_4  and  O_5 
REMARK    4  A    between atoms: O_5  and  C_6 
REMARK    5  A    between atoms: C_6  and  C_8 
REMARK    6  A    between atoms: C_8  and  C_9 
REMARK    7  A    between atoms: C_9  and  C_10 
REMARK    8  A    between atoms: C_9  and  C_18 
REMARK    9  A    between atoms: C_9  and  O_25 
REMARK   10  A    between atoms: C_10  and  C_11 
REMARK   11  A    between atoms: C_11  and  O_13 
REMARK   12  A    between atoms: O_13  and  C_14 
REMARK   13  A    between atoms: C_14  and  C_15 
REMARK   14  A    between atoms: C_15  and  C_16 
REMARK   15  A    between atoms: C_18  and  O_20 
REMARK   16  A    between atoms: O_20  and  C_21 
REMARK   17  A    between atoms: C_21  and  C_22 
REMARK   18  A    between atoms: C_22  and  C_23 
REMARK   19  A    between atoms: O_25  and  C_26 
ROOT
HETATM    1  C   UNL     1     -25.888  -5.986 -15.502  1.00  0.00     0.175 C 
ENDROOT
BRANCH   1   2
HETATM    2  C   UNL     1     -25.556  -6.174 -16.986  1.00  0.00     0.161 C 
BRANCH   2   3
HETATM    3  C   UNL     1     -24.457  -7.176 -17.220  1.00  0.00     0.262 C 
HETATM    4  O   UNL     1     -24.276  -8.191 -16.574  1.00  0.00    -0.265 OA
BRANCH   3   5
HETATM    5  O   UNL     1     -23.652  -6.751 -18.233  1.00  0.00    -0.321 OA
BRANCH   5   6
HETATM    6  C   UNL     1     -23.728  -7.584 -19.392  1.00  0.00     0.178 C 
BRANCH   6   7
HETATM    7  C   UNL     1     -24.853  -7.174 -20.334  1.00  0.00     0.026 C 
BRANCH   7   8
HETATM    8  C   UNL     1     -24.757  -7.863 -21.695  1.00  0.00    -0.002 C 
HETATM    9  C   UNL     1     -23.322  -8.245 -22.020  1.00  0.00     0.005 C 
ENDBRANCH   7   8
ENDBRANCH   6   7
ENDBRANCH   5   6
ENDBRANCH   3   5
ENDBRANCH   2   3
ENDBRANCH   1   2
BRANCH   1  10
HETATM   10  C   UNL     1     -24.677  -6.270 -14.597  1.00  0.00     0.161 C 
BRANCH  10  11
HETATM   11  C   UNL     1     -23.726  -5.105 -14.388  1.00  0.00     0.262 C 
HETATM   12  O   UNL     1     -23.041  -4.593 -15.256  1.00  0.00    -0.265 OA
BRANCH  11  13
HETATM   13  O   UNL     1     -23.601  -4.842 -13.055  1.00  0.00    -0.321 OA
BRANCH  13  14
HETATM   14  C   UNL     1     -22.242  -4.655 -12.636  1.00  0.00     0.178 C 
BRANCH  14  15
HETATM   15  C   UNL     1     -22.103  -3.640 -11.509  1.00  0.00     0.026 C 
BRANCH  15  16
HETATM   16  C   UNL     1     -21.590  -4.333 -10.242  1.00  0.00    -0.002 C 
HETATM   17  C   UNL     1     -22.321  -3.867  -8.996  1.00  0.00     0.005 C 
ENDBRANCH  15  16
ENDBRANCH  14  15
ENDBRANCH  13  14
ENDBRANCH  11  13
ENDBRANCH  10  11
ENDBRANCH   1  10
BRANCH   1  18
HETATM   18  C   UNL     1     -26.313  -4.524 -15.233  1.00  0.00     0.295 C 
HETATM   19  O   UNL     1     -26.287  -3.993 -14.131  1.00  0.00    -0.262 OA
BRANCH  18  20
HETATM   20  O   UNL     1     -26.823  -3.947 -16.366  1.00  0.00    -0.319 OA
BRANCH  20  21
HETATM   21  C   UNL     1     -27.451  -2.669 -16.188  1.00  0.00     0.178 C 
BRANCH  21  22
HETATM   22  C   UNL     1     -28.627  -2.450 -17.137  1.00  0.00     0.026 C 
BRANCH  22  23
HETATM   23  C   UNL     1     -29.129  -3.802 -17.657  1.00  0.00    -0.002 C 
HETATM   24  C   UNL     1     -30.634  -3.959 -17.530  1.00  0.00     0.005 C 
ENDBRANCH  22  23
ENDBRANCH  21  22
ENDBRANCH  20  21
ENDBRANCH  18  20
ENDBRANCH   1  18
BRANCH   1  25
HETATM   25  O   UNL     1     -26.942  -6.915 -15.097  1.00  0.00    -0.299 OA
BRANCH  25  26
HETATM   26  C   UNL     1     -28.161  -6.760 -15.682  1.00  0.00     0.256 C 
HETATM   27  O   UNL     1     -28.456  -7.164 -16.799  1.00  0.00    -0.266 OA
HETATM   28  C   UNL     1     -29.132  -6.031 -14.808  1.00  0.00     0.126 C 
ENDBRANCH  25  26
ENDBRANCH   1  25
TORSDOF 19
BEGIN_RES ARG D 557
REMARK  4 active torsions:
REMARK  status: ('A' for Active; 'I' for Inactive)
REMARK    1  A    between atoms: CA   and  CB  
REMARK    2  A    between atoms: CB   and  CG  
REMARK    3  A    between atoms: CG   and  CD  
REMARK    4  A    between atoms: CD   and  NE  
REMARK       I    between atoms: NE   and  CZ  
REMARK       I    between atoms: CZ   and  NH1 
REMARK       I    between atoms: CZ   and  NH2 
ROOT
ATOM      1  CA  ARG D 557     -26.217   2.705 -17.014  1.00 35.49     0.159 C 
ENDROOT
BRANCH   1   2
ATOM      2  CB  ARG D 557     -26.789   1.319 -17.183  1.00 35.49     0.034 C 
BRANCH   2   3
ATOM      3  CG  ARG D 557     -25.829   0.209 -17.227  1.00 35.49     0.027 C 
BRANCH   3   4
ATOM      4  CD  ARG D 557     -24.694   0.408 -16.297  1.00 35.49     0.116 C 
BRANCH   4   5
ATOM      5  NE  ARG D 557     -24.832  -0.374 -15.097  1.00 35.49    -0.212 N 
ATOM      6  CZ  ARG D 557     -24.022  -1.333 -14.707  1.00 35.49     0.666 C 
ATOM      7  NH1 ARG D 557     -22.967  -1.700 -15.412  1.00 35.49    -0.235 N 
ATOM      8  NH2 ARG D 557     -24.289  -1.922 -13.578  1.00 35.49    -0.235 N 
ATOM      9  HH  ARG D 557     -22.772  -1.324 -16.156  1.00 35.49     0.174 HD
ATOM     10  HH  ARG D 557     -22.474  -2.330 -15.106  1.00 35.49     0.174 HD
ATOM     11  HH  ARG D 557     -24.973  -1.659 -13.141  1.00 35.49     0.174 HD
ATOM     12  HH  ARG D 557     -23.787  -2.543 -13.292  1.00 35.49     0.174 HD
ATOM     13  HE  ARG D 557     -25.525  -0.253 -14.619  1.00 35.49     0.178 HD
ENDBRANCH   4   5
ENDBRANCH   3   4
ENDBRANCH   2   3
ENDBRANCH   1   2
END_RES ARG D 557
BEGIN_RES GLU D 570
REMARK  3 active torsions:
REMARK  status: ('A' for Active; 'I' for Inactive)
REMARK    5  A    between atoms: CA   and  CB  
REMARK    6  A    between atoms: CB   and  CG  
REMARK    7  A    between atoms: CG   and  CD  
ROOT
ATOM     14  CA  GLU D 570     -18.033  -6.348 -13.375  1.00 32.92     0.160 C 
ENDROOT
BRANCH  14  15
ATOM     15  CB  GLU D 570     -19.500  -6.345 -13.794  1.00 32.92     0.043 C 
BRANCH  15  16
ATOM     16  CG  GLU D 570     -20.091  -7.638 -14.226  1.00 32.92     0.100 C 
BRANCH  16  17
ATOM     17  CD  GLU D 570     -20.574  -7.616 -15.658  1.00 32.92     0.185 C 
ATOM     18  OE1 GLU D 570     -20.850  -8.693 -16.220  1.00 32.92    -0.647 OA
ATOM     19  OE2 GLU D 570     -20.660  -6.511 -16.229  1.00 32.92    -0.647 OA
ENDBRANCH  16  17
ENDBRANCH  15  16
ENDBRANCH  14  15
END_RES GLU D 570
ENDMDL
MODEL 5
REMARK VINA RESULT:      -6.0      3.778      8.428
REMARK  19 active torsions:
REMARK  status: ('A' for Active; 'I' for Inactive)
REMARK    1  A    between atoms: C_2  and  C_3 
REMARK    2  A    between atoms: C_3  and  C_4 
REMARK    3  A    between atoms: C_4  and  O_5 
REMARK    4  A    between atoms: O_5  and  C_6 
REMARK    5  A    between atoms: C_6  and  C_8 
REMARK    6  A    between atoms: C_8  and  C_9 
REMARK    7  A    between atoms: C_9  and  C_10 
REMARK    8  A    between atoms: C_9  and  C_18 
REMARK    9  A    between atoms: C_9  and  O_25 
REMARK   10  A    between atoms: C_10  and  C_11 
REMARK   11  A    between atoms: C_11  and  O_13 
REMARK   12  A    between atoms: O_13  and  C_14 
REMARK   13  A    between atoms: C_14  and  C_15 
REMARK   14  A    between atoms: C_15  and  C_16 
REMARK   15  A    between atoms: C_18  and  O_20 
REMARK   16  A    between atoms: O_20  and  C_21 
REMARK   17  A    between atoms: C_21  and  C_22 
REMARK   18  A    between atoms: C_22  and  C_23 
REMARK   19  A    between atoms: O_25  and  C_26 
ROOT
HETATM    1  C   UNL     1     -27.920  -6.148 -17.955  1.00  0.00     0.175 C 
ENDROOT
BRANCH   1   2
HETATM    2  C   UNL     1     -27.989  -6.244 -19.482  1.00  0.00     0.161 C 
BRANCH   2   3
HETATM    3  C   UNL     1     -26.643  -6.465 -20.119  1.00  0.00     0.262 C 
HETATM    4  O   UNL     1     -25.893  -5.590 -20.509  1.00  0.00    -0.265 OA
BRANCH   3   5
HETATM    5  O   UNL     1     -26.406  -7.799 -20.249  1.00  0.00    -0.321 OA
BRANCH   5   6
HETATM    6  C   UNL     1     -25.481  -8.101 -21.296  1.00  0.00     0.178 C 
BRANCH   6   7
HETATM    7  C   UNL     1     -24.037  -8.133 -20.812  1.00  0.00     0.026 C 
BRANCH   7   8
HETATM    8  C   UNL     1     -23.044  -8.373 -21.947  1.00  0.00    -0.002 C 
HETATM    9  C   UNL     1     -21.702  -8.849 -21.415  1.00  0.00     0.005 C 
ENDBRANCH   7   8
ENDBRANCH   6   7
ENDBRANCH   5   6
ENDBRANCH   3   5
ENDBRANCH   2   3
ENDBRANCH   1   2
BRANCH   1  10
HETATM   10  C   UNL     1     -26.488  -6.346 -17.426  1.00  0.00     0.161 C 
BRANCH  10  11
HETATM   11  C   UNL     1     -26.371  -7.104 -16.116  1.00  0.00     0.262 C 
HETATM   12  O   UNL     1     -27.249  -7.197 -15.277  1.00  0.00    -0.265 OA
BRANCH  11  13
HETATM   13  O   UNL     1     -25.080  -7.501 -15.924  1.00  0.00    -0.321 OA
BRANCH  13  14
HETATM   14  C   UNL     1     -24.219  -7.201 -17.031  1.00  0.00     0.178 C 
BRANCH  14  15
HETATM   15  C   UNL     1     -22.744  -7.198 -16.653  1.00  0.00     0.026 C 
BRANCH  15  16
HETATM   16  C   UNL     1     -21.888  -6.911 -17.891  1.00  0.00    -0.002 C 
HETATM   17  C   UNL     1     -20.916  -5.767 -17.665  1.00  0.00     0.005 C 
ENDBRANCH  15  16
ENDBRANCH  14  15
ENDBRANCH  13  14
ENDBRANCH  11  13
ENDBRANCH  10  11
ENDBRANCH   1  10
BRANCH   1  18
HETATM   18  C   UNL     1     -28.377  -4.746 -17.489  1.00  0.00     0.295 C 
HETATM   19  O   UNL     1     -27.866  -4.129 -16.564  1.00  0.00    -0.262 OA
BRANCH  18  20
HETATM   20  O   UNL     1     -29.493  -4.344 -18.174  1.00  0.00    -0.319 OA
BRANCH  20  21
HETATM   21  C   UNL     1     -30.274  -3.316 -17.547  1.00  0.00     0.178 C 
BRANCH  21  22
HETATM   22  C   UNL     1     -31.777  -3.543 -17.691  1.00  0.00     0.026 C 
BRANCH  22  23
HETATM   23  C   UNL     1     -32.281  -4.408 -16.530  1.00  0.00    -0.002 C 
HETATM   24  C   UNL     1     -33.734  -4.133 -16.179  1.00  0.00     0.005 C 
ENDBRANCH  22  23
ENDBRANCH  21  22
ENDBRANCH  20  21
ENDBRANCH  18  20
ENDBRANCH   1  18
BRANCH   1  25
HETATM   25  O   UNL     1     -28.741  -7.191 -17.342  1.00  0.00    -0.299 OA
BRANCH  25  26
HETATM   26  C   UNL     1     -29.719  -7.739 -18.114  1.00  0.00     0.256 C 
HETATM   27  O   UNL     1     -29.530  -8.555 -19.006  1.00  0.00    -0.266 OA
HETATM   28  C   UNL     1     -31.083  -7.238 -17.757  1.00  0.00     0.126 C 
ENDBRANCH  25  26
ENDBRANCH   1  25
TORSDOF 19
BEGIN_RES ARG D 557
REMARK  4 active torsions:
REMARK  status: ('A' for Active; 'I' for Inactive)
REMARK    1  A    between atoms: CA   and  CB  
REMARK    2  A    between atoms: CB   and  CG  
REMARK    3  A    between atoms: CG   and  CD  
REMARK    4  A    between atoms: CD   and  NE  
REMARK       I    between atoms: NE   and  CZ  
REMARK       I    between atoms: CZ   and  NH1 
REMARK       I    between atoms: CZ   and  NH2 
ROOT
ATOM      1  CA  ARG D 557     -26.217   2.705 -17.014  1.00 35.49     0.159 C 
ENDROOT
BRANCH   1   2
ATOM      2  CB  ARG D 557     -26.789   1.319 -17.183  1.00 35.49     0.034 C 
BRANCH   2   3
ATOM      3  CG  ARG D 557     -25.867   0.195 -16.983  1.00 35.49     0.027 C 
BRANCH   3   4
ATOM      4  CD  ARG D 557     -26.280  -0.683 -15.865  1.00 35.49     0.116 C 
BRANCH   4   5
ATOM      5  NE  ARG D 557     -25.199  -0.945 -14.953  1.00 35.49    -0.212 N 
ATOM      6  CZ  ARG D 557     -24.910  -2.111 -14.418  1.00 35.49     0.666 C 
ATOM      7  NH1 ARG D 557     -25.619  -3.198 -14.662  1.00 35.49    -0.235 N 
ATOM      8  NH2 ARG D 557     -23.878  -2.170 -13.627  1.00 35.49    -0.235 N 
ATOM      9  HH  ARG D 557     -26.300  -3.183 -15.181  1.00 35.49     0.174 HD
ATOM     10  HH  ARG D 557     -25.381  -3.931 -14.287  1.00 35.49     0.174 HD
ATOM     11  HH  ARG D 557     -23.435  -1.453 -13.494  1.00 35.49     0.174 HD
ATOM     12  HH  ARG D 557     -23.658  -2.905 -13.267  1.00 35.49     0.174 HD
ATOM     13  HE  ARG D 557     -24.734  -0.286 -14.683  1.00 35.49     0.178 HD
ENDBRANCH   4   5
ENDBRANCH   3   4
ENDBRANCH   2   3
ENDBRANCH   1   2
END_RES ARG D 557
BEGIN_RES GLU D 570
REMARK  3 active torsions:
REMARK  status: ('A' for Active; 'I' for Inactive)
REMARK    5  A    between atoms: CA   and  CB  
REMARK    6  A    between atoms: CB   and  CG  
REMARK    7  A    between atoms: CG   and  CD  
ROOT
ATOM     14  CA  GLU D 570     -18.033  -6.348 -13.375  1.00 32.92     0.160 C 
ENDROOT
BRANCH  14  15
ATOM     15  CB  GLU D 570     -19.500  -6.345 -13.794  1.00 32.92     0.043 C 
BRANCH  15  16
ATOM     16  CG  GLU D 570     -20.447  -5.557 -12.964  1.00 32.92     0.100 C 
BRANCH  16  17
ATOM     17  CD  GLU D 570     -21.717  -5.197 -13.699  1.00 32.92     0.185 C 
ATOM     18  OE1 GLU D 570     -22.790  -5.723 -13.347  1.00 32.92    -0.647 OA
ATOM     19  OE2 GLU D 570     -21.635  -4.393 -14.649  1.00 32.92    -0.647 OA
ENDBRANCH  16  17
ENDBRANCH  15  16
ENDBRANCH  14  15
END_RES GLU D 570
ENDMDL
MODEL 6
REMARK VINA RESULT:      -6.0      5.605      9.894
REMARK  19 active torsions:
REMARK  status: ('A' for Active; 'I' for Inactive)
REMARK    1  A    between atoms: C_2  and  C_3 
REMARK    2  A    between atoms: C_3  and  C_4 
REMARK    3  A    between atoms: C_4  and  O_5 
REMARK    4  A    between atoms: O_5  and  C_6 
REMARK    5  A    between atoms: C_6  and  C_8 
REMARK    6  A    between atoms: C_8  and  C_9 
REMARK    7  A    between atoms: C_9  and  C_10 
REMARK    8  A    between atoms: C_9  and  C_18 
REMARK    9  A    between atoms: C_9  and  O_25 
REMARK   10  A    between atoms: C_10  and  C_11 
REMARK   11  A    between atoms: C_11  and  O_13 
REMARK   12  A    between atoms: O_13  and  C_14 
REMARK   13  A    between atoms: C_14  and  C_15 
REMARK   14  A    between atoms: C_15  and  C_16 
REMARK   15  A    between atoms: C_18  and  O_20 
REMARK   16  A    between atoms: O_20  and  C_21 
REMARK   17  A    between atoms: C_21  and  C_22 
REMARK   18  A    between atoms: C_22  and  C_23 
REMARK   19  A    between atoms: O_25  and  C_26 
ROOT
HETATM    1  C   UNL     1     -19.700  -9.780  -4.850  1.00  0.00     0.175 C 
ENDROOT
BRANCH   1   2
HETATM    2  C   UNL     1     -19.830 -10.794  -3.708  1.00  0.00     0.161 C 
BRANCH   2   3
HETATM    3  C   UNL     1     -20.963 -10.479  -2.768  1.00  0.00     0.262 C 
HETATM    4  O   UNL     1     -22.138 -10.400  -3.078  1.00  0.00    -0.265 OA
BRANCH   3   5
HETATM    5  O   UNL     1     -20.476 -10.237  -1.521  1.00  0.00    -0.321 OA
BRANCH   5   6
HETATM    6  C   UNL     1     -21.503 -10.129  -0.533  1.00  0.00     0.178 C 
BRANCH   6   7
HETATM    7  C   UNL     1     -21.001  -9.520   0.770  1.00  0.00     0.026 C 
BRANCH   7   8
HETATM    8  C   UNL     1     -21.712  -8.213   1.118  1.00  0.00    -0.002 C 
HETATM    9  C   UNL     1     -23.070  -8.125   0.440  1.00  0.00     0.005 C 
ENDBRANCH   7   8
ENDBRANCH   6   7
ENDBRANCH   5   6
ENDBRANCH   3   5
ENDBRANCH   2   3
ENDBRANCH   1   2
BRANCH   1  10
HETATM   10  C   UNL     1     -19.970  -8.341  -4.379  1.00  0.00     0.161 C 
BRANCH  10  11
HETATM   11  C   UNL     1     -20.813  -7.492  -5.314  1.00  0.00     0.262 C 
HETATM   12  O   UNL     1     -22.028  -7.407  -5.282  1.00  0.00    -0.265 OA
BRANCH  11  13
HETATM   13  O   UNL     1     -20.035  -6.993  -6.317  1.00  0.00    -0.321 OA
BRANCH  13  14
HETATM   14  C   UNL     1     -20.684  -5.976  -7.092  1.00  0.00     0.178 C 
BRANCH  14  15
HETATM   15  C   UNL     1     -20.377  -4.568  -6.600  1.00  0.00     0.026 C 
BRANCH  15  16
HETATM   16  C   UNL     1     -21.368  -3.573  -7.213  1.00  0.00    -0.002 C 
HETATM   17  C   UNL     1     -22.684  -4.230  -7.589  1.00  0.00     0.005 C 
ENDBRANCH  15  16
ENDBRANCH  14  15
ENDBRANCH  13  14
ENDBRANCH  11  13
ENDBRANCH  10  11
ENDBRANCH   1  10
BRANCH   1  18
HETATM   18  C   UNL     1     -18.262  -9.802  -5.419  1.00  0.00     0.295 C 
HETATM   19  O   UNL     1     -17.942  -9.314  -6.494  1.00  0.00    -0.262 OA
BRANCH  18  20
HETATM   20  O   UNL     1     -17.430 -10.533  -4.614  1.00  0.00    -0.319 OA
BRANCH  20  21
HETATM   21  C   UNL     1     -16.212  -9.884  -4.221  1.00  0.00     0.178 C 
BRANCH  21  22
HETATM   22  C   UNL     1     -16.097  -9.705  -2.709  1.00  0.00     0.026 C 
BRANCH  22  23
HETATM   23  C   UNL     1     -15.869 -11.067  -2.044  1.00  0.00    -0.002 C 
HETATM   24  C   UNL     1     -17.073 -11.544  -1.250  1.00  0.00     0.005 C 
ENDBRANCH  22  23
ENDBRANCH  21  22
ENDBRANCH  20  21
ENDBRANCH  18  20
ENDBRANCH   1  18
BRANCH   1  25
HETATM   25  O   UNL     1     -20.676 -10.069  -5.899  1.00  0.00    -0.299 OA
BRANCH  25  26
HETATM   26  C   UNL     1     -20.696 -11.338  -6.392  1.00  0.00     0.256 C 
HETATM   27  O   UNL     1     -19.803 -11.840  -7.063  1.00  0.00    -0.266 OA
HETATM   28  C   UNL     1     -21.942 -12.080  -6.026  1.00  0.00     0.126 C 
ENDBRANCH  25  26
ENDBRANCH   1  25
TORSDOF 19
BEGIN_RES ARG D 557
REMARK  4 active torsions:
REMARK  status: ('A' for Active; 'I' for Inactive)
REMARK    1  A    between atoms: CA   and  CB  
REMARK    2  A    between atoms: CB   and  CG  
REMARK    3  A    between atoms: CG   and  CD  
REMARK    4  A    between atoms: CD   and  NE  
REMARK       I    between atoms: NE   and  CZ  
REMARK       I    between atoms: CZ   and  NH1 
REMARK       I    between atoms: CZ   and  NH2 
ROOT
ATOM      1  CA  ARG D 557     -26.217   2.705 -17.014  1.00 35.49     0.159 C 
ENDROOT
BRANCH   1   2
ATOM      2  CB  ARG D 557     -26.789   1.319 -17.183  1.00 35.49     0.034 C 
BRANCH   2   3
ATOM      3  CG  ARG D 557     -25.839   0.201 -17.127  1.00 35.49     0.027 C 
BRANCH   3   4
ATOM      4  CD  ARG D 557     -24.766   0.422 -16.132  1.00 35.49     0.116 C 
BRANCH   4   5
ATOM      5  NE  ARG D 557     -24.893  -0.451 -14.995  1.00 35.49    -0.212 N 
ATOM      6  CZ  ARG D 557     -24.067  -1.423 -14.676  1.00 35.49     0.666 C 
ATOM      7  NH1 ARG D 557     -23.005  -1.718 -15.403  1.00 35.49    -0.235 N 
ATOM      8  NH2 ARG D 557     -24.326  -2.101 -13.596  1.00 35.49    -0.235 N 
ATOM      9  HH  ARG D 557     -22.814  -1.283 -16.116  1.00 35.49     0.174 HD
ATOM     10  HH  ARG D 557     -22.501  -2.361 -15.145  1.00 35.49     0.174 HD
ATOM     11  HH  ARG D 557     -25.015  -1.883 -13.142  1.00 35.49     0.174 HD
ATOM     12  HH  ARG D 557     -23.814  -2.733 -13.356  1.00 35.49     0.174 HD
ATOM     13  HE  ARG D 557     -25.589  -0.379 -14.512  1.00 35.49     0.178 HD
ENDBRANCH   4   5
ENDBRANCH   3   4
ENDBRANCH   2   3
ENDBRANCH   1   2
END_RES ARG D 557
BEGIN_RES GLU D 570
REMARK  3 active torsions:
REMARK  status: ('A' for Active; 'I' for Inactive)
REMARK    5  A    between atoms: CA   and  CB  
REMARK    6  A    between atoms: CB   and  CG  
REMARK    7  A    between atoms: CG   and  CD  
ROOT
ATOM     14  CA  GLU D 570     -18.033  -6.348 -13.375  1.00 32.92     0.160 C 
ENDROOT
BRANCH  14  15
ATOM     15  CB  GLU D 570     -19.500  -6.345 -13.794  1.00 32.92     0.043 C 
BRANCH  15  16
ATOM     16  CG  GLU D 570     -20.453  -5.584 -12.945  1.00 32.92     0.100 C 
BRANCH  16  17
ATOM     17  CD  GLU D 570     -21.659  -5.091 -13.709  1.00 32.92     0.185 C 
ATOM     18  OE1 GLU D 570     -21.709  -5.269 -14.942  1.00 32.92    -0.647 OA
ATOM     19  OE2 GLU D 570     -22.557  -4.507 -13.071  1.00 32.92    -0.647 OA
ENDBRANCH  16  17
ENDBRANCH  15  16
ENDBRANCH  14  15
END_RES GLU D 570
ENDMDL
MODEL 7
REMARK VINA RESULT:      -5.9      5.864      9.750
REMARK  19 active torsions:
REMARK  status: ('A' for Active; 'I' for Inactive)
REMARK    1  A    between atoms: C_2  and  C_3 
REMARK    2  A    between atoms: C_3  and  C_4 
REMARK    3  A    between atoms: C_4  and  O_5 
REMARK    4  A    between atoms: O_5  and  C_6 
REMARK    5  A    between atoms: C_6  and  C_8 
REMARK    6  A    between atoms: C_8  and  C_9 
REMARK    7  A    between atoms: C_9  and  C_10 
REMARK    8  A    between atoms: C_9  and  C_18 
REMARK    9  A    between atoms: C_9  and  O_25 
REMARK   10  A    between atoms: C_10  and  C_11 
REMARK   11  A    between atoms: C_11  and  O_13 
REMARK   12  A    between atoms: O_13  and  C_14 
REMARK   13  A    between atoms: C_14  and  C_15 
REMARK   14  A    between atoms: C_15  and  C_16 
REMARK   15  A    between atoms: C_18  and  O_20 
REMARK   16  A    between atoms: O_20  and  C_21 
REMARK   17  A    between atoms: C_21  and  C_22 
REMARK   18  A    between atoms: C_22  and  C_23 
REMARK   19  A    between atoms: O_25  and  C_26 
ROOT
HETATM    1  C   UNL     1     -19.489 -10.202  -4.914  1.00  0.00     0.175 C 
ENDROOT
BRANCH   1   2
HETATM    2  C   UNL     1     -19.399 -11.353  -3.907  1.00  0.00     0.161 C 
BRANCH   2   3
HETATM    3  C   UNL     1     -20.161 -11.084  -2.637  1.00  0.00     0.262 C 
HETATM    4  O   UNL     1     -19.748 -10.448  -1.686  1.00  0.00    -0.265 OA
BRANCH   3   5
HETATM    5  O   UNL     1     -21.370 -11.708  -2.682  1.00  0.00    -0.321 OA
BRANCH   5   6
HETATM    6  C   UNL     1     -22.470 -10.799  -2.600  1.00  0.00     0.178 C 
BRANCH   6   7
HETATM    7  C   UNL     1     -23.569 -11.291  -1.668  1.00  0.00     0.026 C 
BRANCH   7   8
HETATM    8  C   UNL     1     -23.152 -11.252  -0.198  1.00  0.00    -0.002 C 
HETATM    9  C   UNL     1     -23.463 -12.566   0.499  1.00  0.00     0.005 C 
ENDBRANCH   7   8
ENDBRANCH   6   7
ENDBRANCH   5   6
ENDBRANCH   3   5
ENDBRANCH   2   3
ENDBRANCH   1   2
BRANCH   1  10
HETATM   10  C   UNL     1     -19.662  -8.839  -4.221  1.00  0.00     0.161 C 
BRANCH  10  11
HETATM   11  C   UNL     1     -20.679  -7.905  -4.853  1.00  0.00     0.262 C 
HETATM   12  O   UNL     1     -20.544  -7.343  -5.925  1.00  0.00    -0.265 OA
BRANCH  11  13
HETATM   13  O   UNL     1     -21.675  -7.632  -3.962  1.00  0.00    -0.321 OA
BRANCH  13  14
HETATM   14  C   UNL     1     -21.558  -6.339  -3.354  1.00  0.00     0.178 C 
BRANCH  14  15
HETATM   15  C   UNL     1     -22.178  -6.277  -1.964  1.00  0.00     0.026 C 
BRANCH  15  16
HETATM   16  C   UNL     1     -21.744  -7.496  -1.144  1.00  0.00    -0.002 C 
HETATM   17  C   UNL     1     -22.614  -7.704   0.082  1.00  0.00     0.005 C 
ENDBRANCH  15  16
ENDBRANCH  14  15
ENDBRANCH  13  14
ENDBRANCH  11  13
ENDBRANCH  10  11
ENDBRANCH   1  10
BRANCH   1  18
HETATM   18  C   UNL     1     -18.187 -10.118  -5.744  1.00  0.00     0.295 C 
HETATM   19  O   UNL     1     -17.987  -9.295  -6.626  1.00  0.00    -0.262 OA
BRANCH  18  20
HETATM   20  O   UNL     1     -17.345 -11.153  -5.436  1.00  0.00    -0.319 OA
BRANCH  20  21
HETATM   21  C   UNL     1     -16.013 -10.781  -5.051  1.00  0.00     0.178 C 
BRANCH  21  22
HETATM   22  C   UNL     1     -15.486 -11.602  -3.876  1.00  0.00     0.026 C 
BRANCH  22  23
HETATM   23  C   UNL     1     -15.800 -10.881  -2.560  1.00  0.00    -0.002 C 
HETATM   24  C   UNL     1     -16.075  -9.399  -2.752  1.00  0.00     0.005 C 
ENDBRANCH  22  23
ENDBRANCH  21  22
ENDBRANCH  20  21
ENDBRANCH  18  20
ENDBRANCH   1  18
BRANCH   1  25
HETATM   25  O   UNL     1     -20.649 -10.379  -5.786  1.00  0.00    -0.299 OA
BRANCH  25  26
HETATM   26  C   UNL     1     -20.747 -11.563  -6.450  1.00  0.00     0.256 C 
HETATM   27  O   UNL     1     -19.939 -11.970  -7.275  1.00  0.00    -0.266 OA
HETATM   28  C   UNL     1     -21.965 -12.341  -6.066  1.00  0.00     0.126 C 
ENDBRANCH  25  26
ENDBRANCH   1  25
TORSDOF 19
BEGIN_RES ARG D 557
REMARK  4 active torsions:
REMARK  status: ('A' for Active; 'I' for Inactive)
REMARK    1  A    between atoms: CA   and  CB  
REMARK    2  A    between atoms: CB   and  CG  
REMARK    3  A    between atoms: CG   and  CD  
REMARK    4  A    between atoms: CD   and  NE  
REMARK       I    between atoms: NE   and  CZ  
REMARK       I    between atoms: CZ   and  NH1 
REMARK       I    between atoms: CZ   and  NH2 
ROOT
ATOM      1  CA  ARG D 557     -26.217   2.705 -17.014  1.00 35.49     0.159 C 
ENDROOT
BRANCH   1   2
ATOM      2  CB  ARG D 557     -26.789   1.319 -17.183  1.00 35.49     0.034 C 
BRANCH   2   3
ATOM      3  CG  ARG D 557     -28.252   1.204 -17.189  1.00 35.49     0.027 C 
BRANCH   3   4
ATOM      4  CD  ARG D 557     -28.722  -0.059 -16.575  1.00 35.49     0.116 C 
BRANCH   4   5
ATOM      5  NE  ARG D 557     -27.643  -0.812 -15.991  1.00 35.49    -0.212 N 
ATOM      6  CZ  ARG D 557     -27.434  -2.100 -16.147  1.00 35.49     0.666 C 
ATOM      7  NH1 ARG D 557     -28.229  -2.866 -16.870  1.00 35.49    -0.235 N 
ATOM      8  NH2 ARG D 557     -26.392  -2.613 -15.560  1.00 35.49    -0.235 N 
ATOM      9  HH  ARG D 557     -28.919  -2.548 -17.267  1.00 35.49     0.174 HD
ATOM     10  HH  ARG D 557     -28.041  -3.699 -16.938  1.00 35.49     0.174 HD
ATOM     11  HH  ARG D 557     -25.892  -2.093 -15.105  1.00 35.49     0.174 HD
ATOM     12  HH  ARG D 557     -26.221  -3.440 -15.640  1.00 35.49     0.174 HD
ATOM     13  HE  ARG D 557     -27.124  -0.411 -15.450  1.00 35.49     0.178 HD
ENDBRANCH   4   5
ENDBRANCH   3   4
ENDBRANCH   2   3
ENDBRANCH   1   2
END_RES ARG D 557
BEGIN_RES GLU D 570
REMARK  3 active torsions:
REMARK  status: ('A' for Active; 'I' for Inactive)
REMARK    5  A    between atoms: CA   and  CB  
REMARK    6  A    between atoms: CB   and  CG  
REMARK    7  A    between atoms: CG   and  CD  
ROOT
ATOM     14  CA  GLU D 570     -18.033  -6.348 -13.375  1.00 32.92     0.160 C 
ENDROOT
BRANCH  14  15
ATOM     15  CB  GLU D 570     -19.500  -6.345 -13.794  1.00 32.92     0.043 C 
BRANCH  15  16
ATOM     16  CG  GLU D 570     -20.443  -5.537 -12.979  1.00 32.92     0.100 C 
BRANCH  16  17
ATOM     17  CD  GLU D 570     -21.714  -5.190 -13.719  1.00 32.92     0.185 C 
ATOM     18  OE1 GLU D 570     -21.668  -5.013 -14.951  1.00 32.92    -0.647 OA
ATOM     19  OE2 GLU D 570     -22.764  -5.077 -13.056  1.00 32.92    -0.647 OA
ENDBRANCH  16  17
ENDBRANCH  15  16
ENDBRANCH  14  15
END_RES GLU D 570
ENDMDL
MODEL 8
REMARK VINA RESULT:      -5.8      5.473      9.471
REMARK  19 active torsions:
REMARK  status: ('A' for Active; 'I' for Inactive)
REMARK    1  A    between atoms: C_2  and  C_3 
REMARK    2  A    between atoms: C_3  and  C_4 
REMARK    3  A    between atoms: C_4  and  O_5 
REMARK    4  A    between atoms: O_5  and  C_6 
REMARK    5  A    between atoms: C_6  and  C_8 
REMARK    6  A    between atoms: C_8  and  C_9 
REMARK    7  A    between atoms: C_9  and  C_10 
REMARK    8  A    between atoms: C_9  and  C_18 
REMARK    9  A    between atoms: C_9  and  O_25 
REMARK   10  A    between atoms: C_10  and  C_11 
REMARK   11  A    between atoms: C_11  and  O_13 
REMARK   12  A    between atoms: O_13  and  C_14 
REMARK   13  A    between atoms: C_14  and  C_15 
REMARK   14  A    between atoms: C_15  and  C_16 
REMARK   15  A    between atoms: C_18  and  O_20 
REMARK   16  A    between atoms: O_20  and  C_21 
REMARK   17  A    between atoms: C_21  and  C_22 
REMARK   18  A    between atoms: C_22  and  C_23 
REMARK   19  A    between atoms: O_25  and  C_26 
ROOT
HETATM    1  C   UNL     1     -21.119  -8.716  -2.640  1.00  0.00     0.175 C 
ENDROOT
BRANCH   1   2
HETATM    2  C   UNL     1     -20.788  -7.225  -2.766  1.00  0.00     0.161 C 
BRANCH   2   3
HETATM    3  C   UNL     1     -21.387  -6.592  -3.994  1.00  0.00     0.262 C 
HETATM    4  O   UNL     1     -22.534  -6.197  -4.098  1.00  0.00    -0.265 OA
BRANCH   3   5
HETATM    5  O   UNL     1     -20.471  -6.576  -5.000  1.00  0.00    -0.321 OA
BRANCH   5   6
HETATM    6  C   UNL     1     -20.952  -5.931  -6.181  1.00  0.00     0.178 C 
BRANCH   6   7
HETATM    7  C   UNL     1     -20.330  -4.557  -6.394  1.00  0.00     0.026 C 
BRANCH   7   8
HETATM    8  C   UNL     1     -19.352  -4.532  -7.568  1.00  0.00    -0.002 C 
HETATM    9  C   UNL     1     -20.087  -4.487  -8.898  1.00  0.00     0.005 C 
ENDBRANCH   7   8
ENDBRANCH   6   7
ENDBRANCH   5   6
ENDBRANCH   3   5
ENDBRANCH   2   3
ENDBRANCH   1   2
BRANCH   1  10
HETATM   10  C   UNL     1     -21.707  -9.291  -3.940  1.00  0.00     0.161 C 
BRANCH  10  11
HETATM   11  C   UNL     1     -22.003 -10.780  -3.925  1.00  0.00     0.262 C 
HETATM   12  O   UNL     1     -22.789 -11.332  -3.175  1.00  0.00    -0.265 OA
BRANCH  11  13
HETATM   13  O   UNL     1     -21.122 -11.437  -4.734  1.00  0.00    -0.321 OA
BRANCH  13  14
HETATM   14  C   UNL     1     -21.349 -11.205  -6.130  1.00  0.00     0.178 C 
BRANCH  14  15
HETATM   15  C   UNL     1     -21.029 -12.418  -6.993  1.00  0.00     0.026 C 
BRANCH  15  16
HETATM   16  C   UNL     1     -19.523 -12.480  -7.270  1.00  0.00    -0.002 C 
HETATM   17  C   UNL     1     -19.212 -13.066  -8.635  1.00  0.00     0.005 C 
ENDBRANCH  15  16
ENDBRANCH  14  15
ENDBRANCH  13  14
ENDBRANCH  11  13
ENDBRANCH  10  11
ENDBRANCH   1  10
BRANCH   1  18
HETATM   18  C   UNL     1     -19.834  -9.521  -2.337  1.00  0.00     0.295 C 
HETATM   19  O   UNL     1     -19.766 -10.422  -1.512  1.00  0.00    -0.262 OA
BRANCH  18  20
HETATM   20  O   UNL     1     -18.767  -9.017  -3.033  1.00  0.00    -0.319 OA
BRANCH  20  21
HETATM   21  C   UNL     1     -17.980  -9.978  -3.752  1.00  0.00     0.178 C 
BRANCH  21  22
HETATM   22  C   UNL     1     -18.002  -9.749  -5.262  1.00  0.00     0.026 C 
BRANCH  22  23
HETATM   23  C   UNL     1     -16.574  -9.828  -5.816  1.00  0.00    -0.002 C 
HETATM   24  C   UNL     1     -16.156 -11.247  -6.162  1.00  0.00     0.005 C 
ENDBRANCH  22  23
ENDBRANCH  21  22
ENDBRANCH  20  21
ENDBRANCH  18  20
ENDBRANCH   1  18
BRANCH   1  25
HETATM   25  O   UNL     1     -22.121  -8.927  -1.597  1.00  0.00    -0.299 OA
BRANCH  25  26
HETATM   26  C   UNL     1     -22.216  -7.974  -0.630  1.00  0.00     0.256 C 
HETATM   27  O   UNL     1     -22.783  -6.896  -0.765  1.00  0.00    -0.266 OA
HETATM   28  C   UNL     1     -21.549  -8.377   0.646  1.00  0.00     0.126 C 
ENDBRANCH  25  26
ENDBRANCH   1  25
TORSDOF 19
BEGIN_RES ARG D 557
REMARK  4 active torsions:
REMARK  status: ('A' for Active; 'I' for Inactive)
REMARK    1  A    between atoms: CA   and  CB  
REMARK    2  A    between atoms: CB   and  CG  
REMARK    3  A    between atoms: CG   and  CD  
REMARK    4  A    between atoms: CD   and  NE  
REMARK       I    between atoms: NE   and  CZ  
REMARK       I    between atoms: CZ   and  NH1 
REMARK       I    between atoms: CZ   and  NH2 
ROOT
ATOM      1  CA  ARG D 557     -26.217   2.705 -17.014  1.00 35.49     0.159 C 
ENDROOT
BRANCH   1   2
ATOM      2  CB  ARG D 557     -26.789   1.319 -17.183  1.00 35.49     0.034 C 
BRANCH   2   3
ATOM      3  CG  ARG D 557     -25.861   0.195 -17.006  1.00 35.49     0.027 C 
BRANCH   3   4
ATOM      4  CD  ARG D 557     -26.265  -0.701 -15.899  1.00 35.49     0.116 C 
BRANCH   4   5
ATOM      5  NE  ARG D 557     -25.205  -0.895 -14.944  1.00 35.49    -0.212 N 
ATOM      6  CZ  ARG D 557     -24.906  -2.027 -14.348  1.00 35.49     0.666 C 
ATOM      7  NH1 ARG D 557     -25.582  -3.141 -14.561  1.00 35.49    -0.235 N 
ATOM      8  NH2 ARG D 557     -23.898  -2.024 -13.525  1.00 35.49    -0.235 N 
ATOM      9  HH  ARG D 557     -26.248  -3.166 -15.100  1.00 35.49     0.174 HD
ATOM     10  HH  ARG D 557     -25.339  -3.850 -14.146  1.00 35.49     0.174 HD
ATOM     11  HH  ARG D 557     -23.475  -1.292 -13.413  1.00 35.49     0.174 HD
ATOM     12  HH  ARG D 557     -23.672  -2.736 -13.125  1.00 35.49     0.174 HD
ATOM     13  HE  ARG D 557     -24.765  -0.212 -14.693  1.00 35.49     0.178 HD
ENDBRANCH   4   5
ENDBRANCH   3   4
ENDBRANCH   2   3
ENDBRANCH   1   2
END_RES ARG D 557
BEGIN_RES GLU D 570
REMARK  3 active torsions:
REMARK  status: ('A' for Active; 'I' for Inactive)
REMARK    5  A    between atoms: CA   and  CB  
REMARK    6  A    between atoms: CB   and  CG  
REMARK    7  A    between atoms: CG   and  CD  
ROOT
ATOM     14  CA  GLU D 570     -18.033  -6.348 -13.375  1.00 32.92     0.160 C 
ENDROOT
BRANCH  14  15
ATOM     15  CB  GLU D 570     -19.500  -6.345 -13.794  1.00 32.92     0.043 C 
BRANCH  15  16
ATOM     16  CG  GLU D 570     -20.450  -5.572 -12.953  1.00 32.92     0.100 C 
BRANCH  16  17
ATOM     17  CD  GLU D 570     -21.692  -5.150 -13.704  1.00 32.92     0.185 C 
ATOM     18  OE1 GLU D 570     -21.689  -5.189 -14.949  1.00 32.92    -0.647 OA
ATOM     19  OE2 GLU D 570     -22.672  -4.759 -13.039  1.00 32.92    -0.647 OA
ENDBRANCH  16  17
ENDBRANCH  15  16
ENDBRANCH  14  15
END_RES GLU D 570
ENDMDL
MODEL 9
REMARK VINA RESULT:      -5.8      5.671      9.449
REMARK  19 active torsions:
REMARK  status: ('A' for Active; 'I' for Inactive)
REMARK    1  A    between atoms: C_2  and  C_3 
REMARK    2  A    between atoms: C_3  and  C_4 
REMARK    3  A    between atoms: C_4  and  O_5 
REMARK    4  A    between atoms: O_5  and  C_6 
REMARK    5  A    between atoms: C_6  and  C_8 
REMARK    6  A    between atoms: C_8  and  C_9 
REMARK    7  A    between atoms: C_9  and  C_10 
REMARK    8  A    between atoms: C_9  and  C_18 
REMARK    9  A    between atoms: C_9  and  O_25 
REMARK   10  A    between atoms: C_10  and  C_11 
REMARK   11  A    between atoms: C_11  and  O_13 
REMARK   12  A    between atoms: O_13  and  C_14 
REMARK   13  A    between atoms: C_14  and  C_15 
REMARK   14  A    between atoms: C_15  and  C_16 
REMARK   15  A    between atoms: C_18  and  O_20 
REMARK   16  A    between atoms: O_20  and  C_21 
REMARK   17  A    between atoms: C_21  and  C_22 
REMARK   18  A    between atoms: C_22  and  C_23 
REMARK   19  A    between atoms: O_25  and  C_26 
ROOT
HETATM    1  C   UNL     1     -20.263  -9.793  -3.935  1.00  0.00     0.175 C 
ENDROOT
BRANCH   1   2
HETATM    2  C   UNL     1     -19.877 -11.173  -4.477  1.00  0.00     0.161 C 
BRANCH   2   3
HETATM    3  C   UNL     1     -20.706 -11.592  -5.663  1.00  0.00     0.262 C 
HETATM    4  O   UNL     1     -21.839 -12.034  -5.613  1.00  0.00    -0.265 OA
BRANCH   3   5
HETATM    5  O   UNL     1     -19.980 -11.456  -6.806  1.00  0.00    -0.321 OA
BRANCH   5   6
HETATM    6  C   UNL     1     -19.765 -12.697  -7.480  1.00  0.00     0.178 C 
BRANCH   6   7
HETATM    7  C   UNL     1     -18.854 -12.556  -8.693  1.00  0.00     0.026 C 
BRANCH   7   8
HETATM    8  C   UNL     1     -17.804 -13.663  -8.769  1.00  0.00    -0.002 C 
HETATM    9  C   UNL     1     -18.433 -14.997  -9.134  1.00  0.00     0.005 C 
ENDBRANCH   7   8
ENDBRANCH   6   7
ENDBRANCH   5   6
ENDBRANCH   3   5
ENDBRANCH   2   3
ENDBRANCH   1   2
BRANCH   1  10
HETATM   10  C   UNL     1     -21.076  -8.977  -4.956  1.00  0.00     0.161 C 
BRANCH  10  11
HETATM   11  C   UNL     1     -20.822  -7.480  -4.950  1.00  0.00     0.262 C 
HETATM   12  O   UNL     1     -21.304  -6.689  -4.159  1.00  0.00    -0.265 OA
BRANCH  11  13
HETATM   13  O   UNL     1     -20.136  -7.121  -6.074  1.00  0.00    -0.321 OA
BRANCH  13  14
HETATM   14  C   UNL     1     -20.734  -6.028  -6.783  1.00  0.00     0.178 C 
BRANCH  14  15
HETATM   15  C   UNL     1     -19.954  -4.728  -6.636  1.00  0.00     0.026 C 
BRANCH  15  16
HETATM   16  C   UNL     1     -19.413  -4.287  -8.000  1.00  0.00    -0.002 C 
HETATM   17  C   UNL     1     -20.469  -4.359  -9.088  1.00  0.00     0.005 C 
ENDBRANCH  15  16
ENDBRANCH  14  15
ENDBRANCH  13  14
ENDBRANCH  11  13
ENDBRANCH  10  11
ENDBRANCH   1  10
BRANCH   1  18
HETATM   18  C   UNL     1     -21.149  -9.944  -2.677  1.00  0.00     0.295 C 
HETATM   19  O   UNL     1     -22.345 -10.200  -2.707  1.00  0.00    -0.262 OA
BRANCH  18  20
HETATM   20  O   UNL     1     -20.442  -9.643  -1.543  1.00  0.00    -0.319 OA
BRANCH  20  21
HETATM   21  C   UNL     1     -21.123  -9.879  -0.302  1.00  0.00     0.178 C 
BRANCH  21  22
HETATM   22  C   UNL     1     -21.292  -8.611   0.531  1.00  0.00     0.026 C 
BRANCH  22  23
HETATM   23  C   UNL     1     -22.598  -7.909   0.142  1.00  0.00    -0.002 C 
HETATM   24  C   UNL     1     -22.397  -6.830  -0.908  1.00  0.00     0.005 C 
ENDBRANCH  22  23
ENDBRANCH  21  22
ENDBRANCH  20  21
ENDBRANCH  18  20
ENDBRANCH   1  18
BRANCH   1  25
HETATM   25  O   UNL     1     -19.064  -9.013  -3.634  1.00  0.00    -0.299 OA
BRANCH  25  26
HETATM   26  C   UNL     1     -17.876  -9.512  -4.074  1.00  0.00     0.256 C 
HETATM   27  O   UNL     1     -17.553  -9.613  -5.251  1.00  0.00    -0.266 OA
HETATM   28  C   UNL     1     -16.977  -9.933  -2.954  1.00  0.00     0.126 C 
ENDBRANCH  25  26
ENDBRANCH   1  25
TORSDOF 19
BEGIN_RES ARG D 557
REMARK  4 active torsions:
REMARK  status: ('A' for Active; 'I' for Inactive)
REMARK    1  A    between atoms: CA   and  CB  
REMARK    2  A    between atoms: CB   and  CG  
REMARK    3  A    between atoms: CG   and  CD  
REMARK    4  A    between atoms: CD   and  NE  
REMARK       I    between atoms: NE   and  CZ  
REMARK       I    between atoms: CZ   and  NH1 
REMARK       I    between atoms: CZ   and  NH2 
ROOT
ATOM      1  CA  ARG D 557     -26.217   2.705 -17.014  1.00 35.49     0.159 C 
ENDROOT
BRANCH   1   2
ATOM      2  CB  ARG D 557     -26.789   1.319 -17.183  1.00 35.49     0.034 C 
BRANCH   2   3
ATOM      3  CG  ARG D 557     -25.864   0.195 -16.996  1.00 35.49     0.027 C 
BRANCH   3   4
ATOM      4  CD  ARG D 557     -26.269  -0.690 -15.880  1.00 35.49     0.116 C 
BRANCH   4   5
ATOM      5  NE  ARG D 557     -25.204  -0.893 -14.933  1.00 35.49    -0.212 N 
ATOM      6  CZ  ARG D 557     -24.892  -2.034 -14.361  1.00 35.49     0.666 C 
ATOM      7  NH1 ARG D 557     -25.558  -3.150 -14.595  1.00 35.49    -0.235 N 
ATOM      8  NH2 ARG D 557     -23.880  -2.038 -13.543  1.00 35.49    -0.235 N 
ATOM      9  HH  ARG D 557     -26.226  -3.171 -15.131  1.00 35.49     0.174 HD
ATOM     10  HH  ARG D 557     -25.307  -3.865 -14.194  1.00 35.49     0.174 HD
ATOM     11  HH  ARG D 557     -23.464  -1.304 -13.417  1.00 35.49     0.174 HD
ATOM     12  HH  ARG D 557     -23.646  -2.756 -13.158  1.00 35.49     0.174 HD
ATOM     13  HE  ARG D 557     -24.769  -0.211 -14.670  1.00 35.49     0.178 HD
ENDBRANCH   4   5
ENDBRANCH   3   4
ENDBRANCH   2   3
ENDBRANCH   1   2
END_RES ARG D 557
BEGIN_RES GLU D 570
REMARK  3 active torsions:
REMARK  status: ('A' for Active; 'I' for Inactive)
REMARK    5  A    between atoms: CA   and  CB  
REMARK    6  A    between atoms: CB   and  CG  
REMARK    7  A    between atoms: CG   and  CD  
ROOT
ATOM     14  CA  GLU D 570     -18.033  -6.348 -13.375  1.00 32.92     0.160 C 
ENDROOT
BRANCH  14  15
ATOM     15  CB  GLU D 570     -19.500  -6.345 -13.794  1.00 32.92     0.043 C 
BRANCH  15  16
ATOM     16  CG  GLU D 570     -20.448  -5.559 -12.962  1.00 32.92     0.100 C 
BRANCH  16  17
ATOM     17  CD  GLU D 570     -21.687  -5.139 -13.718  1.00 32.92     0.185 C 
ATOM     18  OE1 GLU D 570     -21.650  -5.093 -14.963  1.00 32.92    -0.647 OA
ATOM     19  OE2 GLU D 570     -22.700  -4.837 -13.058  1.00 32.92    -0.647 OA
ENDBRANCH  16  17
ENDBRANCH  15  16
ENDBRANCH  14  15
END_RES GLU D 570
ENDMDL
