MODEL 1
REMARK VINA RESULT:      -7.6      0.000      0.000
REMARK  15 active torsions:
REMARK  status: ('A' for Active; 'I' for Inactive)
REMARK    1  A    between atoms: C_2  and  C_3 
REMARK    2  A    between atoms: C_3  and  C_4 
REMARK    3  A    between atoms: C_4  and  C_5 
REMARK    4  A    between atoms: C_5  and  C_6 
REMARK    5  A    between atoms: C_6  and  C_7 
REMARK    6  A    between atoms: C_7  and  C_8 
REMARK    7  A    between atoms: C_8  and  C_9 
REMARK    8  A    between atoms: C_9  and  C_10 
REMARK    9  A    between atoms: C_10  and  O_11 
REMARK   10  A    between atoms: O_11  and  C_12 
REMARK   11  A    between atoms: C_13  and  O_22 
REMARK   12  A    between atoms: C_14  and  O_21 
REMARK   13  A    between atoms: C_15  and  O_20 
REMARK   14  A    between atoms: C_16  and  C_18 
REMARK   15  A    between atoms: C_18  and  O_19 
ROOT
HETATM    1  C   UNL     1     -22.195  -4.658 -12.406  1.00  0.00     0.291 C 
HETATM    2  C   UNL     1     -22.561  -4.075 -13.791  1.00  0.00     0.204 C 
HETATM    3  C   UNL     1     -23.173  -2.668 -13.618  1.00  0.00     0.183 C 
HETATM    4  C   UNL     1     -24.314  -2.673 -12.588  1.00  0.00     0.180 C 
HETATM    5  C   UNL     1     -23.774  -3.257 -11.277  1.00  0.00     0.179 C 
HETATM    6  O   UNL     1     -23.324  -4.607 -11.512  1.00  0.00    -0.348 OA
ENDROOT
BRANCH   1   7
HETATM    7  O   UNL     1     -21.076  -3.939 -11.887  1.00  0.00    -0.359 OA
BRANCH   7   8
HETATM    8  C   UNL     1     -20.377  -4.649 -10.866  1.00  0.00     0.171 C 
BRANCH   8   9
HETATM    9  C   UNL     1     -20.536  -3.885  -9.551  1.00  0.00     0.026 C 
BRANCH   9  10
HETATM   10  C   UNL     1     -20.204  -4.718  -8.305  1.00  0.00     0.002 C 
BRANCH  10  11
HETATM   11  C   UNL     1     -20.741  -4.099  -7.016  1.00  0.00     0.000 C 
BRANCH  11  12
HETATM   12  C   UNL     1     -20.083  -4.709  -5.780  1.00  0.00     0.000 C 
BRANCH  12  13
HETATM   13  C   UNL     1     -20.451  -6.184  -5.649  1.00  0.00     0.000 C 
BRANCH  13  14
HETATM   14  C   UNL     1     -21.746  -6.361  -4.861  1.00  0.00     0.000 C 
BRANCH  14  15
HETATM   15  C   UNL     1     -21.480  -7.027  -3.512  1.00  0.00    -0.000 C 
BRANCH  15  16
HETATM   16  C   UNL     1     -21.799  -6.080  -2.361  1.00  0.00    -0.005 C 
HETATM   17  C   UNL     1     -22.329  -6.834  -1.152  1.00  0.00     0.005 C 
ENDBRANCH  15  16
ENDBRANCH  14  15
ENDBRANCH  13  14
ENDBRANCH  12  13
ENDBRANCH  11  12
ENDBRANCH  10  11
ENDBRANCH   9  10
ENDBRANCH   8   9
ENDBRANCH   7   8
ENDBRANCH   1   7
BRANCH   2  18
HETATM   18  O   UNL     1     -23.474  -4.952 -14.474  1.00  0.00    -0.388 OA
HETATM   19  H   UNL     1     -24.017  -5.387 -13.793  1.00  0.00     0.210 HD
ENDBRANCH   2  18
BRANCH   3  20
HETATM   20  O   UNL     1     -23.662  -2.179 -14.868  1.00  0.00    -0.390 OA
HETATM   21  H   UNL     1     -22.870  -1.962 -15.392  1.00  0.00     0.210 HD
ENDBRANCH   3  20
BRANCH   5  22
HETATM   22  C   UNL     1     -24.818  -3.285 -10.156  1.00  0.00     0.198 C 
BRANCH  22  23
HETATM   23  O   UNL     1     -24.988  -4.621  -9.680  1.00  0.00    -0.398 OA
HETATM   24  H   UNL     1     -25.906  -4.870  -9.904  1.00  0.00     0.209 HD
ENDBRANCH  22  23
ENDBRANCH   5  22
BRANCH   4  25
HETATM   25  O   UNL     1     -25.400  -3.465 -13.112  1.00  0.00    -0.390 OA
HETATM   26  H   UNL     1     -25.712  -4.076 -12.419  1.00  0.00     0.210 HD
ENDBRANCH   4  25
TORSDOF 15
BEGIN_RES ARG D 557
REMARK  4 active torsions:
REMARK  status: ('A' for Active; 'I' for Inactive)
REMARK    1  A    between atoms: CA   and  CB  
REMARK    2  A    between atoms: CB   and  CG  
REMARK    3  A    between atoms: CG   and  CD  
REMARK    4  A    between atoms: CD   and  NE  
REMARK       I    between atoms: NE   and  CZ  
REMARK       I    between atoms: CZ   and  NH1 
REMARK       I    between atoms: CZ   and  NH2 
ROOT
ATOM      1  CA  ARG D 557     -26.217   2.705 -17.014  1.00 35.49     0.159 C 
ENDROOT
BRANCH   1   2
ATOM      2  CB  ARG D 557     -26.789   1.319 -17.183  1.00 35.49     0.034 C 
BRANCH   2   3
ATOM      3  CG  ARG D 557     -28.244   1.183 -17.045  1.00 35.49     0.027 C 
BRANCH   3   4
ATOM      4  CD  ARG D 557     -28.667  -0.227 -16.886  1.00 35.49     0.116 C 
BRANCH   4   5
ATOM      5  NE  ARG D 557     -27.682  -1.014 -16.192  1.00 35.49    -0.212 N 
ATOM      6  CZ  ARG D 557     -27.568  -2.322 -16.243  1.00 35.49     0.666 C 
ATOM      7  NH1 ARG D 557     -28.387  -3.077 -16.952  1.00 35.49    -0.235 N 
ATOM      8  NH2 ARG D 557     -26.601  -2.867 -15.565  1.00 35.49    -0.235 N 
ATOM      9  HH  ARG D 557     -29.029  -2.739 -17.407  1.00 35.49     0.174 HD
ATOM     10  HH  ARG D 557     -28.263  -3.925 -16.949  1.00 35.49     0.174 HD
ATOM     11  HH  ARG D 557     -26.084  -2.354 -15.122  1.00 35.49     0.174 HD
ATOM     12  HH  ARG D 557     -26.494  -3.708 -15.576  1.00 35.49     0.174 HD
ATOM     13  HE  ARG D 557     -27.158  -0.614 -15.654  1.00 35.49     0.178 HD
ENDBRANCH   4   5
ENDBRANCH   3   4
ENDBRANCH   2   3
ENDBRANCH   1   2
END_RES ARG D 557
BEGIN_RES GLU D 570
REMARK  3 active torsions:
REMARK  status: ('A' for Active; 'I' for Inactive)
REMARK    5  A    between atoms: CA   and  CB  
REMARK    6  A    between atoms: CB   and  CG  
REMARK    7  A    between atoms: CG   and  CD  
ROOT
ATOM     14  CA  GLU D 570     -18.033  -6.348 -13.375  1.00 32.92     0.160 C 
ENDROOT
BRANCH  14  15
ATOM     15  CB  GLU D 570     -19.500  -6.345 -13.794  1.00 32.92     0.043 C 
BRANCH  15  16
ATOM     16  CG  GLU D 570     -19.797  -6.402 -15.249  1.00 32.92     0.100 C 
BRANCH  16  17
ATOM     17  CD  GLU D 570     -20.884  -7.393 -15.590  1.00 32.92     0.185 C 
ATOM     18  OE1 GLU D 570     -22.036  -6.975 -15.814  1.00 32.92    -0.647 OA
ATOM     19  OE2 GLU D 570     -20.585  -8.603 -15.617  1.00 32.92    -0.647 OA
ENDBRANCH  16  17
ENDBRANCH  15  16
ENDBRANCH  14  15
END_RES GLU D 570
ENDMDL
MODEL 2
REMARK VINA RESULT:      -7.0      3.383      5.948
REMARK  15 active torsions:
REMARK  status: ('A' for Active; 'I' for Inactive)
REMARK    1  A    between atoms: C_2  and  C_3 
REMARK    2  A    between atoms: C_3  and  C_4 
REMARK    3  A    between atoms: C_4  and  C_5 
REMARK    4  A    between atoms: C_5  and  C_6 
REMARK    5  A    between atoms: C_6  and  C_7 
REMARK    6  A    between atoms: C_7  and  C_8 
REMARK    7  A    between atoms: C_8  and  C_9 
REMARK    8  A    between atoms: C_9  and  C_10 
REMARK    9  A    between atoms: C_10  and  O_11 
REMARK   10  A    between atoms: O_11  and  C_12 
REMARK   11  A    between atoms: C_13  and  O_22 
REMARK   12  A    between atoms: C_14  and  O_21 
REMARK   13  A    between atoms: C_15  and  O_20 
REMARK   14  A    between atoms: C_16  and  C_18 
REMARK   15  A    between atoms: C_18  and  O_19 
ROOT
HETATM    1  C   UNL     1     -26.668  -6.038 -15.795  1.00  0.00     0.291 C 
HETATM    2  C   UNL     1     -27.583  -7.279 -15.911  1.00  0.00     0.204 C 
HETATM    3  C   UNL     1     -28.477  -7.150 -17.164  1.00  0.00     0.183 C 
HETATM    4  C   UNL     1     -29.203  -5.796 -17.200  1.00  0.00     0.180 C 
HETATM    5  C   UNL     1     -28.151  -4.685 -17.098  1.00  0.00     0.179 C 
HETATM    6  O   UNL     1     -27.439  -4.823 -15.850  1.00  0.00    -0.348 OA
ENDROOT
BRANCH   1   7
HETATM    7  O   UNL     1     -25.688  -6.091 -16.832  1.00  0.00    -0.359 OA
BRANCH   7   8
HETATM    8  C   UNL     1     -24.417  -6.557 -16.381  1.00  0.00     0.171 C 
BRANCH   8   9
HETATM    9  C   UNL     1     -24.347  -6.374 -14.864  1.00  0.00     0.026 C 
BRANCH   9  10
HETATM   10  C   UNL     1     -23.171  -5.503 -14.398  1.00  0.00     0.002 C 
BRANCH  10  11
HETATM   11  C   UNL     1     -23.154  -5.288 -12.886  1.00  0.00     0.000 C 
BRANCH  11  12
HETATM   12  C   UNL     1     -21.975  -4.419 -12.453  1.00  0.00     0.000 C 
BRANCH  12  13
HETATM   13  C   UNL     1     -21.835  -4.420 -10.934  1.00  0.00     0.000 C 
BRANCH  13  14
HETATM   14  C   UNL     1     -23.173  -4.710 -10.258  1.00  0.00     0.000 C 
BRANCH  14  15
HETATM   15  C   UNL     1     -23.382  -3.802  -9.047  1.00  0.00    -0.000 C 
BRANCH  15  16
HETATM   16  C   UNL     1     -22.746  -4.399  -7.797  1.00  0.00    -0.005 C 
HETATM   17  C   UNL     1     -21.525  -3.605  -7.361  1.00  0.00     0.005 C 
ENDBRANCH  15  16
ENDBRANCH  14  15
ENDBRANCH  13  14
ENDBRANCH  12  13
ENDBRANCH  11  12
ENDBRANCH  10  11
ENDBRANCH   9  10
ENDBRANCH   8   9
ENDBRANCH   7   8
ENDBRANCH   1   7
BRANCH   2  18
HETATM   18  O   UNL     1     -28.381  -7.423 -14.723  1.00  0.00    -0.388 OA
HETATM   19  H   UNL     1     -27.977  -8.130 -14.190  1.00  0.00     0.210 HD
ENDBRANCH   2  18
BRANCH   3  20
HETATM   20  O   UNL     1     -29.438  -8.207 -17.203  1.00  0.00    -0.390 OA
HETATM   21  H   UNL     1     -29.930  -8.143 -16.364  1.00  0.00     0.210 HD
ENDBRANCH   3  20
BRANCH   5  22
HETATM   22  C   UNL     1     -28.755  -3.278 -17.155  1.00  0.00     0.198 C 
BRANCH  22  23
HETATM   23  O   UNL     1     -29.977  -3.301 -17.895  1.00  0.00    -0.398 OA
HETATM   24  H   UNL     1     -30.452  -4.104 -17.602  1.00  0.00     0.209 HD
ENDBRANCH  22  23
ENDBRANCH   5  22
BRANCH   4  25
HETATM   25  O   UNL     1     -30.133  -5.746 -16.099  1.00  0.00    -0.390 OA
HETATM   26  H   UNL     1     -30.340  -4.814 -15.897  1.00  0.00     0.210 HD
ENDBRANCH   4  25
TORSDOF 15
BEGIN_RES ARG D 557
REMARK  4 active torsions:
REMARK  status: ('A' for Active; 'I' for Inactive)
REMARK    1  A    between atoms: CA   and  CB  
REMARK    2  A    between atoms: CB   and  CG  
REMARK    3  A    between atoms: CG   and  CD  
REMARK    4  A    between atoms: CD   and  NE  
REMARK       I    between atoms: NE   and  CZ  
REMARK       I    between atoms: CZ   and  NH1 
REMARK       I    between atoms: CZ   and  NH2 
ROOT
ATOM      1  CA  ARG D 557     -26.217   2.705 -17.014  1.00 35.49     0.159 C 
ENDROOT
BRANCH   1   2
ATOM      2  CB  ARG D 557     -26.789   1.319 -17.183  1.00 35.49     0.034 C 
BRANCH   2   3
ATOM      3  CG  ARG D 557     -25.853   0.197 -17.042  1.00 35.49     0.027 C 
BRANCH   3   4
ATOM      4  CD  ARG D 557     -26.216  -0.703 -15.924  1.00 35.49     0.116 C 
BRANCH   4   5
ATOM      5  NE  ARG D 557     -25.134  -0.870 -14.989  1.00 35.49    -0.212 N 
ATOM      6  CZ  ARG D 557     -24.926  -1.926 -14.235  1.00 35.49     0.666 C 
ATOM      7  NH1 ARG D 557     -25.726  -2.975 -14.248  1.00 35.49    -0.235 N 
ATOM      8  NH2 ARG D 557     -23.881  -1.913 -13.460  1.00 35.49    -0.235 N 
ATOM      9  HH  ARG D 557     -26.419  -3.006 -14.752  1.00 35.49     0.174 HD
ATOM     10  HH  ARG D 557     -25.539  -3.637 -13.737  1.00 35.49     0.174 HD
ATOM     11  HH  ARG D 557     -23.377  -1.225 -13.478  1.00 35.49     0.174 HD
ATOM     12  HH  ARG D 557     -23.711  -2.578 -12.962  1.00 35.49     0.174 HD
ATOM     13  HE  ARG D 557     -24.611  -0.211 -14.863  1.00 35.49     0.178 HD
ENDBRANCH   4   5
ENDBRANCH   3   4
ENDBRANCH   2   3
ENDBRANCH   1   2
END_RES ARG D 557
BEGIN_RES GLU D 570
REMARK  3 active torsions:
REMARK  status: ('A' for Active; 'I' for Inactive)
REMARK    5  A    between atoms: CA   and  CB  
REMARK    6  A    between atoms: CB   and  CG  
REMARK    7  A    between atoms: CG   and  CD  
ROOT
ATOM     14  CA  GLU D 570     -18.033  -6.348 -13.375  1.00 32.92     0.160 C 
ENDROOT
BRANCH  14  15
ATOM     15  CB  GLU D 570     -19.500  -6.345 -13.794  1.00 32.92     0.043 C 
BRANCH  15  16
ATOM     16  CG  GLU D 570     -20.090  -7.637 -14.231  1.00 32.92     0.100 C 
BRANCH  16  17
ATOM     17  CD  GLU D 570     -20.628  -7.592 -15.642  1.00 32.92     0.185 C 
ATOM     18  OE1 GLU D 570     -21.203  -8.596 -16.103  1.00 32.92    -0.647 OA
ATOM     19  OE2 GLU D 570     -20.457  -6.546 -16.300  1.00 32.92    -0.647 OA
ENDBRANCH  16  17
ENDBRANCH  15  16
ENDBRANCH  14  15
END_RES GLU D 570
ENDMDL
MODEL 3
REMARK VINA RESULT:      -6.1      5.194      8.947
REMARK  15 active torsions:
REMARK  status: ('A' for Active; 'I' for Inactive)
REMARK    1  A    between atoms: C_2  and  C_3 
REMARK    2  A    between atoms: C_3  and  C_4 
REMARK    3  A    between atoms: C_4  and  C_5 
REMARK    4  A    between atoms: C_5  and  C_6 
REMARK    5  A    between atoms: C_6  and  C_7 
REMARK    6  A    between atoms: C_7  and  C_8 
REMARK    7  A    between atoms: C_8  and  C_9 
REMARK    8  A    between atoms: C_9  and  C_10 
REMARK    9  A    between atoms: C_10  and  O_11 
REMARK   10  A    between atoms: O_11  and  C_12 
REMARK   11  A    between atoms: C_13  and  O_22 
REMARK   12  A    between atoms: C_14  and  O_21 
REMARK   13  A    between atoms: C_15  and  O_20 
REMARK   14  A    between atoms: C_16  and  C_18 
REMARK   15  A    between atoms: C_18  and  O_19 
ROOT
HETATM    1  C   UNL     1     -20.618  -9.400  -2.684  1.00  0.00     0.291 C 
HETATM    2  C   UNL     1     -20.478 -10.816  -2.078  1.00  0.00     0.204 C 
HETATM    3  C   UNL     1     -21.759 -11.173  -1.292  1.00  0.00     0.183 C 
HETATM    4  C   UNL     1     -22.133 -10.068  -0.292  1.00  0.00     0.180 C 
HETATM    5  C   UNL     1     -22.251  -8.746  -1.062  1.00  0.00     0.179 C 
HETATM    6  O   UNL     1     -20.980  -8.441  -1.673  1.00  0.00    -0.348 OA
ENDROOT
BRANCH   1   7
HETATM    7  O   UNL     1     -21.578  -9.446  -3.739  1.00  0.00    -0.359 OA
BRANCH   7   8
HETATM    8  C   UNL     1     -21.168  -8.730  -4.903  1.00  0.00     0.171 C 
BRANCH   8   9
HETATM    9  C   UNL     1     -21.837  -7.354  -4.885  1.00  0.00     0.026 C 
BRANCH   9  10
HETATM   10  C   UNL     1     -20.847  -6.185  -4.790  1.00  0.00     0.002 C 
BRANCH  10  11
HETATM   11  C   UNL     1     -21.042  -5.150  -5.897  1.00  0.00     0.000 C 
BRANCH  11  12
HETATM   12  C   UNL     1     -19.859  -5.129  -6.862  1.00  0.00     0.000 C 
BRANCH  12  13
HETATM   13  C   UNL     1     -20.025  -4.016  -7.892  1.00  0.00     0.000 C 
BRANCH  13  14
HETATM   14  C   UNL     1     -20.297  -4.586  -9.282  1.00  0.00     0.000 C 
BRANCH  14  15
HETATM   15  C   UNL     1     -21.514  -3.917  -9.919  1.00  0.00    -0.000 C 
BRANCH  15  16
HETATM   16  C   UNL     1     -22.666  -3.815  -8.927  1.00  0.00    -0.005 C 
HETATM   17  C   UNL     1     -23.993  -3.598  -9.636  1.00  0.00     0.005 C 
ENDBRANCH  15  16
ENDBRANCH  14  15
ENDBRANCH  13  14
ENDBRANCH  12  13
ENDBRANCH  11  12
ENDBRANCH  10  11
ENDBRANCH   9  10
ENDBRANCH   8   9
ENDBRANCH   7   8
ENDBRANCH   1   7
BRANCH   2  18
HETATM   18  O   UNL     1     -19.319 -10.882  -1.228  1.00  0.00    -0.388 OA
HETATM   19  H   UNL     1     -19.512 -11.536  -0.533  1.00  0.00     0.210 HD
ENDBRANCH   2  18
BRANCH   3  20
HETATM   20  O   UNL     1     -21.588 -12.409  -0.594  1.00  0.00    -0.390 OA
HETATM   21  H   UNL     1     -20.640 -12.458  -0.378  1.00  0.00     0.210 HD
ENDBRANCH   3  20
BRANCH   5  22
HETATM   22  C   UNL     1     -22.654  -7.567  -0.170  1.00  0.00     0.198 C 
BRANCH  22  23
HETATM   23  O   UNL     1     -23.588  -7.999   0.820  1.00  0.00    -0.398 OA
HETATM   24  H   UNL     1     -23.113  -8.654   1.368  1.00  0.00     0.209 HD
ENDBRANCH  22  23
ENDBRANCH   5  22
BRANCH   4  25
HETATM   25  O   UNL     1     -21.108 -10.000   0.720  1.00  0.00    -0.390 OA
HETATM   26  H   UNL     1     -21.425 -10.448   1.526  1.00  0.00     0.210 HD
ENDBRANCH   4  25
TORSDOF 15
BEGIN_RES ARG D 557
REMARK  4 active torsions:
REMARK  status: ('A' for Active; 'I' for Inactive)
REMARK    1  A    between atoms: CA   and  CB  
REMARK    2  A    between atoms: CB   and  CG  
REMARK    3  A    between atoms: CG   and  CD  
REMARK    4  A    between atoms: CD   and  NE  
REMARK       I    between atoms: NE   and  CZ  
REMARK       I    between atoms: CZ   and  NH1 
REMARK       I    between atoms: CZ   and  NH2 
ROOT
ATOM      1  CA  ARG D 557     -26.217   2.705 -17.014  1.00 35.49     0.159 C 
ENDROOT
BRANCH   1   2
ATOM      2  CB  ARG D 557     -26.789   1.319 -17.183  1.00 35.49     0.034 C 
BRANCH   2   3
ATOM      3  CG  ARG D 557     -25.868   0.195 -16.976  1.00 35.49     0.027 C 
BRANCH   3   4
ATOM      4  CD  ARG D 557     -26.295  -0.687 -15.865  1.00 35.49     0.116 C 
BRANCH   4   5
ATOM      5  NE  ARG D 557     -25.236  -0.918 -14.919  1.00 35.49    -0.212 N 
ATOM      6  CZ  ARG D 557     -24.938  -2.073 -14.366  1.00 35.49     0.666 C 
ATOM      7  NH1 ARG D 557     -25.615  -3.177 -14.622  1.00 35.49    -0.235 N 
ATOM      8  NH2 ARG D 557     -23.929  -2.103 -13.545  1.00 35.49    -0.235 N 
ATOM      9  HH  ARG D 557     -26.282  -3.181 -15.161  1.00 35.49     0.174 HD
ATOM     10  HH  ARG D 557     -25.374  -3.902 -14.234  1.00 35.49     0.174 HD
ATOM     11  HH  ARG D 557     -23.505  -1.376 -13.404  1.00 35.49     0.174 HD
ATOM     12  HH  ARG D 557     -23.704  -2.831 -13.172  1.00 35.49     0.174 HD
ATOM     13  HE  ARG D 557     -24.794  -0.247 -14.642  1.00 35.49     0.178 HD
ENDBRANCH   4   5
ENDBRANCH   3   4
ENDBRANCH   2   3
ENDBRANCH   1   2
END_RES ARG D 557
BEGIN_RES GLU D 570
REMARK  3 active torsions:
REMARK  status: ('A' for Active; 'I' for Inactive)
REMARK    5  A    between atoms: CA   and  CB  
REMARK    6  A    between atoms: CB   and  CG  
REMARK    7  A    between atoms: CG   and  CD  
ROOT
ATOM     14  CA  GLU D 570     -18.033  -6.348 -13.375  1.00 32.92     0.160 C 
ENDROOT
BRANCH  14  15
ATOM     15  CB  GLU D 570     -19.500  -6.345 -13.794  1.00 32.92     0.043 C 
BRANCH  15  16
ATOM     16  CG  GLU D 570     -20.445  -5.545 -12.973  1.00 32.92     0.100 C 
BRANCH  16  17
ATOM     17  CD  GLU D 570     -21.691  -5.145 -13.729  1.00 32.92     0.185 C 
ATOM     18  OE1 GLU D 570     -21.644  -5.063 -14.971  1.00 32.92    -0.647 OA
ATOM     19  OE2 GLU D 570     -22.719  -4.896 -13.070  1.00 32.92    -0.647 OA
ENDBRANCH  16  17
ENDBRANCH  15  16
ENDBRANCH  14  15
END_RES GLU D 570
ENDMDL
MODEL 4
REMARK VINA RESULT:      -6.0      4.792      8.483
REMARK  15 active torsions:
REMARK  status: ('A' for Active; 'I' for Inactive)
REMARK    1  A    between atoms: C_2  and  C_3 
REMARK    2  A    between atoms: C_3  and  C_4 
REMARK    3  A    between atoms: C_4  and  C_5 
REMARK    4  A    between atoms: C_5  and  C_6 
REMARK    5  A    between atoms: C_6  and  C_7 
REMARK    6  A    between atoms: C_7  and  C_8 
REMARK    7  A    between atoms: C_8  and  C_9 
REMARK    8  A    between atoms: C_9  and  C_10 
REMARK    9  A    between atoms: C_10  and  O_11 
REMARK   10  A    between atoms: O_11  and  C_12 
REMARK   11  A    between atoms: C_13  and  O_22 
REMARK   12  A    between atoms: C_14  and  O_21 
REMARK   13  A    between atoms: C_15  and  O_20 
REMARK   14  A    between atoms: C_16  and  C_18 
REMARK   15  A    between atoms: C_18  and  O_19 
ROOT
HETATM    1  C   UNL     1     -20.505  -8.026  -2.556  1.00  0.00     0.291 C 
HETATM    2  C   UNL     1     -20.501  -9.516  -2.971  1.00  0.00     0.204 C 
HETATM    3  C   UNL     1     -21.858 -10.159  -2.609  1.00  0.00     0.183 C 
HETATM    4  C   UNL     1     -22.236  -9.888  -1.144  1.00  0.00     0.180 C 
HETATM    5  C   UNL     1     -22.212  -8.372  -0.915  1.00  0.00     0.179 C 
HETATM    6  O   UNL     1     -20.882  -7.877  -1.174  1.00  0.00    -0.348 OA
ENDROOT
BRANCH   1   7
HETATM    7  O   UNL     1     -21.383  -7.310  -3.425  1.00  0.00    -0.359 OA
BRANCH   7   8
HETATM    8  C   UNL     1     -20.989  -7.369  -4.795  1.00  0.00     0.171 C 
BRANCH   8   9
HETATM    9  C   UNL     1     -21.401  -6.062  -5.473  1.00  0.00     0.026 C 
BRANCH   9  10
HETATM   10  C   UNL     1     -20.316  -4.976  -5.438  1.00  0.00     0.002 C 
BRANCH  10  11
HETATM   11  C   UNL     1     -19.600  -4.808  -6.777  1.00  0.00     0.000 C 
BRANCH  11  12
HETATM   12  C   UNL     1     -20.480  -5.245  -7.945  1.00  0.00     0.000 C 
BRANCH  12  13
HETATM   13  C   UNL     1     -20.296  -4.309  -9.136  1.00  0.00     0.000 C 
BRANCH  13  14
HETATM   14  C   UNL     1     -21.629  -4.023  -9.823  1.00  0.00     0.000 C 
BRANCH  14  15
HETATM   15  C   UNL     1     -22.784  -4.082  -8.825  1.00  0.00    -0.000 C 
BRANCH  15  16
HETATM   16  C   UNL     1     -24.122  -4.216  -9.542  1.00  0.00    -0.005 C 
HETATM   17  C   UNL     1     -24.176  -3.344 -10.787  1.00  0.00     0.005 C 
ENDBRANCH  15  16
ENDBRANCH  14  15
ENDBRANCH  13  14
ENDBRANCH  12  13
ENDBRANCH  11  12
ENDBRANCH  10  11
ENDBRANCH   9  10
ENDBRANCH   8   9
ENDBRANCH   7   8
ENDBRANCH   1   7
BRANCH   2  18
HETATM   18  O   UNL     1     -19.417 -10.209  -2.329  1.00  0.00    -0.388 OA
HETATM   19  H   UNL     1     -19.802 -10.972  -1.861  1.00  0.00     0.210 HD
ENDBRANCH   2  18
BRANCH   3  20
HETATM   20  O   UNL     1     -21.819 -11.569  -2.838  1.00  0.00    -0.390 OA
HETATM   21  H   UNL     1     -22.708 -11.895  -2.609  1.00  0.00     0.210 HD
ENDBRANCH   3  20
BRANCH   5  22
HETATM   22  C   UNL     1     -22.606  -7.973   0.511  1.00  0.00     0.198 C 
BRANCH  22  23
HETATM   23  O   UNL     1     -21.540  -8.274   1.414  1.00  0.00    -0.398 OA
HETATM   24  H   UNL     1     -21.912  -8.898   2.068  1.00  0.00     0.209 HD
ENDBRANCH  22  23
ENDBRANCH   5  22
BRANCH   4  25
HETATM   25  O   UNL     1     -21.289 -10.566  -0.294  1.00  0.00    -0.390 OA
HETATM   26  H   UNL     1     -20.426 -10.116  -0.355  1.00  0.00     0.210 HD
ENDBRANCH   4  25
TORSDOF 15
BEGIN_RES ARG D 557
REMARK  4 active torsions:
REMARK  status: ('A' for Active; 'I' for Inactive)
REMARK    1  A    between atoms: CA   and  CB  
REMARK    2  A    between atoms: CB   and  CG  
REMARK    3  A    between atoms: CG   and  CD  
REMARK    4  A    between atoms: CD   and  NE  
REMARK       I    between atoms: NE   and  CZ  
REMARK       I    between atoms: CZ   and  NH1 
REMARK       I    between atoms: CZ   and  NH2 
ROOT
ATOM      1  CA  ARG D 557     -26.217   2.705 -17.014  1.00 35.49     0.159 C 
ENDROOT
BRANCH   1   2
ATOM      2  CB  ARG D 557     -26.789   1.319 -17.183  1.00 35.49     0.034 C 
BRANCH   2   3
ATOM      3  CG  ARG D 557     -28.148   1.098 -16.674  1.00 35.49     0.027 C 
BRANCH   3   4
ATOM      4  CD  ARG D 557     -28.786  -0.098 -17.268  1.00 35.49     0.116 C 
BRANCH   4   5
ATOM      5  NE  ARG D 557     -28.162  -1.319 -16.831  1.00 35.49    -0.212 N 
ATOM      6  CZ  ARG D 557     -28.638  -2.531 -17.009  1.00 35.49     0.666 C 
ATOM      7  NH1 ARG D 557     -29.787  -2.760 -17.617  1.00 35.49    -0.235 N 
ATOM      8  NH2 ARG D 557     -27.927  -3.527 -16.565  1.00 35.49    -0.235 N 
ATOM      9  HH  ARG D 557     -30.271  -2.120 -17.919  1.00 35.49     0.174 HD
ATOM     10  HH  ARG D 557     -30.046  -3.572 -17.707  1.00 35.49     0.174 HD
ATOM     11  HH  ARG D 557     -27.185  -3.349 -16.183  1.00 35.49     0.174 HD
ATOM     12  HH  ARG D 557     -28.199  -4.323 -16.665  1.00 35.49     0.174 HD
ATOM     13  HE  ARG D 557     -27.453  -1.261 -16.366  1.00 35.49     0.178 HD
ENDBRANCH   4   5
ENDBRANCH   3   4
ENDBRANCH   2   3
ENDBRANCH   1   2
END_RES ARG D 557
BEGIN_RES GLU D 570
REMARK  3 active torsions:
REMARK  status: ('A' for Active; 'I' for Inactive)
REMARK    5  A    between atoms: CA   and  CB  
REMARK    6  A    between atoms: CB   and  CG  
REMARK    7  A    between atoms: CG   and  CD  
ROOT
ATOM     14  CA  GLU D 570     -18.033  -6.348 -13.375  1.00 32.92     0.160 C 
ENDROOT
BRANCH  14  15
ATOM     15  CB  GLU D 570     -19.500  -6.345 -13.794  1.00 32.92     0.043 C 
BRANCH  15  16
ATOM     16  CG  GLU D 570     -20.451  -5.573 -12.952  1.00 32.92     0.100 C 
BRANCH  16  17
ATOM     17  CD  GLU D 570     -21.738  -5.242 -13.670  1.00 32.92     0.185 C 
ATOM     18  OE1 GLU D 570     -22.184  -4.080 -13.608  1.00 32.92    -0.647 OA
ATOM     19  OE2 GLU D 570     -22.316  -6.158 -14.287  1.00 32.92    -0.647 OA
ENDBRANCH  16  17
ENDBRANCH  15  16
ENDBRANCH  14  15
END_RES GLU D 570
ENDMDL
MODEL 5
REMARK VINA RESULT:      -6.0      4.747      7.822
REMARK  15 active torsions:
REMARK  status: ('A' for Active; 'I' for Inactive)
REMARK    1  A    between atoms: C_2  and  C_3 
REMARK    2  A    between atoms: C_3  and  C_4 
REMARK    3  A    between atoms: C_4  and  C_5 
REMARK    4  A    between atoms: C_5  and  C_6 
REMARK    5  A    between atoms: C_6  and  C_7 
REMARK    6  A    between atoms: C_7  and  C_8 
REMARK    7  A    between atoms: C_8  and  C_9 
REMARK    8  A    between atoms: C_9  and  C_10 
REMARK    9  A    between atoms: C_10  and  O_11 
REMARK   10  A    between atoms: O_11  and  C_12 
REMARK   11  A    between atoms: C_13  and  O_22 
REMARK   12  A    between atoms: C_14  and  O_21 
REMARK   13  A    between atoms: C_15  and  O_20 
REMARK   14  A    between atoms: C_16  and  C_18 
REMARK   15  A    between atoms: C_18  and  O_19 
ROOT
HETATM    1  C   UNL     1     -20.143  -8.385  -4.634  1.00  0.00     0.291 C 
HETATM    2  C   UNL     1     -18.834  -9.168  -4.884  1.00  0.00     0.204 C 
HETATM    3  C   UNL     1     -19.164 -10.569  -5.443  1.00  0.00     0.183 C 
HETATM    4  C   UNL     1     -20.202 -11.293  -4.571  1.00  0.00     0.180 C 
HETATM    5  C   UNL     1     -21.436 -10.391  -4.447  1.00  0.00     0.179 C 
HETATM    6  O   UNL     1     -21.052  -9.150  -3.819  1.00  0.00    -0.348 OA
ENDROOT
BRANCH   1   7
HETATM    7  O   UNL     1     -20.721  -8.044  -5.894  1.00  0.00    -0.359 OA
BRANCH   7   8
HETATM    8  C   UNL     1     -21.506  -6.853  -5.848  1.00  0.00     0.171 C 
BRANCH   8   9
HETATM    9  C   UNL     1     -20.753  -5.810  -5.021  1.00  0.00     0.026 C 
BRANCH   9  10
HETATM   10  C   UNL     1     -20.401  -4.536  -5.802  1.00  0.00     0.002 C 
BRANCH  10  11
HETATM   11  C   UNL     1     -19.371  -4.780  -6.903  1.00  0.00     0.000 C 
BRANCH  11  12
HETATM   12  C   UNL     1     -19.667  -3.944  -8.147  1.00  0.00     0.000 C 
BRANCH  12  13
HETATM   13  C   UNL     1     -20.325  -4.799  -9.225  1.00  0.00     0.000 C 
BRANCH  13  14
HETATM   14  C   UNL     1     -21.580  -4.125  -9.773  1.00  0.00     0.000 C 
BRANCH  14  15
HETATM   15  C   UNL     1     -22.617  -3.919  -8.671  1.00  0.00    -0.000 C 
BRANCH  15  16
HETATM   16  C   UNL     1     -24.017  -3.777  -9.255  1.00  0.00    -0.005 C 
HETATM   17  C   UNL     1     -24.067  -4.245 -10.701  1.00  0.00     0.005 C 
ENDBRANCH  15  16
ENDBRANCH  14  15
ENDBRANCH  13  14
ENDBRANCH  12  13
ENDBRANCH  11  12
ENDBRANCH  10  11
ENDBRANCH   9  10
ENDBRANCH   8   9
ENDBRANCH   7   8
ENDBRANCH   1   7
BRANCH   2  18
HETATM   18  O   UNL     1     -18.072  -9.267  -3.667  1.00  0.00    -0.388 OA
HETATM   19  H   UNL     1     -17.894 -10.213  -3.518  1.00  0.00     0.210 HD
ENDBRANCH   2  18
BRANCH   3  20
HETATM   20  O   UNL     1     -17.979 -11.364  -5.531  1.00  0.00    -0.390 OA
HETATM   21  H   UNL     1     -18.280 -12.288  -5.470  1.00  0.00     0.210 HD
ENDBRANCH   3  20
BRANCH   5  22
HETATM   22  C   UNL     1     -22.561 -11.022  -3.620  1.00  0.00     0.198 C 
BRANCH  22  23
HETATM   23  O   UNL     1     -22.388 -12.439  -3.560  1.00  0.00    -0.398 OA
HETATM   24  H   UNL     1     -22.164 -12.719  -4.469  1.00  0.00     0.209 HD
ENDBRANCH  22  23
ENDBRANCH   5  22
BRANCH   4  25
HETATM   25  O   UNL     1     -19.611 -11.559  -3.282  1.00  0.00    -0.390 OA
HETATM   26  H   UNL     1     -18.688 -11.848  -3.408  1.00  0.00     0.210 HD
ENDBRANCH   4  25
TORSDOF 15
BEGIN_RES ARG D 557
REMARK  4 active torsions:
REMARK  status: ('A' for Active; 'I' for Inactive)
REMARK    1  A    between atoms: CA   and  CB  
REMARK    2  A    between atoms: CB   and  CG  
REMARK    3  A    between atoms: CG   and  CD  
REMARK    4  A    between atoms: CD   and  NE  
REMARK       I    between atoms: NE   and  CZ  
REMARK       I    between atoms: CZ   and  NH1 
REMARK       I    between atoms: CZ   and  NH2 
ROOT
ATOM      1  CA  ARG D 557     -26.217   2.705 -17.014  1.00 35.49     0.159 C 
ENDROOT
BRANCH   1   2
ATOM      2  CB  ARG D 557     -26.789   1.319 -17.183  1.00 35.49     0.034 C 
BRANCH   2   3
ATOM      3  CG  ARG D 557     -25.834   0.205 -17.176  1.00 35.49     0.027 C 
BRANCH   3   4
ATOM      4  CD  ARG D 557     -24.730   0.413 -16.211  1.00 35.49     0.116 C 
BRANCH   4   5
ATOM      5  NE  ARG D 557     -24.871  -0.413 -15.040  1.00 35.49    -0.212 N 
ATOM      6  CZ  ARG D 557     -24.047  -1.367 -14.670  1.00 35.49     0.666 C 
ATOM      7  NH1 ARG D 557     -22.973  -1.687 -15.369  1.00 35.49    -0.235 N 
ATOM      8  NH2 ARG D 557     -24.319  -2.001 -13.567  1.00 35.49    -0.235 N 
ATOM      9  HH  ARG D 557     -22.774  -1.282 -16.097  1.00 35.49     0.174 HD
ATOM     10  HH  ARG D 557     -22.471  -2.317 -15.077  1.00 35.49     0.174 HD
ATOM     11  HH  ARG D 557     -25.015  -1.768 -13.132  1.00 35.49     0.174 HD
ATOM     12  HH  ARG D 557     -23.808  -2.620 -13.294  1.00 35.49     0.174 HD
ATOM     13  HE  ARG D 557     -25.574  -0.323 -14.570  1.00 35.49     0.178 HD
ENDBRANCH   4   5
ENDBRANCH   3   4
ENDBRANCH   2   3
ENDBRANCH   1   2
END_RES ARG D 557
BEGIN_RES GLU D 570
REMARK  3 active torsions:
REMARK  status: ('A' for Active; 'I' for Inactive)
REMARK    5  A    between atoms: CA   and  CB  
REMARK    6  A    between atoms: CB   and  CG  
REMARK    7  A    between atoms: CG   and  CD  
ROOT
ATOM     14  CA  GLU D 570     -18.033  -6.348 -13.375  1.00 32.92     0.160 C 
ENDROOT
BRANCH  14  15
ATOM     15  CB  GLU D 570     -19.500  -6.345 -13.794  1.00 32.92     0.043 C 
BRANCH  15  16
ATOM     16  CG  GLU D 570     -20.436  -5.503 -13.005  1.00 32.92     0.100 C 
BRANCH  16  17
ATOM     17  CD  GLU D 570     -21.745  -5.251 -13.716  1.00 32.92     0.185 C 
ATOM     18  OE1 GLU D 570     -22.249  -4.113 -13.670  1.00 32.92    -0.647 OA
ATOM     19  OE2 GLU D 570     -22.280  -6.207 -14.312  1.00 32.92    -0.647 OA
ENDBRANCH  16  17
ENDBRANCH  15  16
ENDBRANCH  14  15
END_RES GLU D 570
ENDMDL
MODEL 6
REMARK VINA RESULT:      -5.8      5.639      9.626
REMARK  15 active torsions:
REMARK  status: ('A' for Active; 'I' for Inactive)
REMARK    1  A    between atoms: C_2  and  C_3 
REMARK    2  A    between atoms: C_3  and  C_4 
REMARK    3  A    between atoms: C_4  and  C_5 
REMARK    4  A    between atoms: C_5  and  C_6 
REMARK    5  A    between atoms: C_6  and  C_7 
REMARK    6  A    between atoms: C_7  and  C_8 
REMARK    7  A    between atoms: C_8  and  C_9 
REMARK    8  A    between atoms: C_9  and  C_10 
REMARK    9  A    between atoms: C_10  and  O_11 
REMARK   10  A    between atoms: O_11  and  C_12 
REMARK   11  A    between atoms: C_13  and  O_22 
REMARK   12  A    between atoms: C_14  and  O_21 
REMARK   13  A    between atoms: C_15  and  O_20 
REMARK   14  A    between atoms: C_16  and  C_18 
REMARK   15  A    between atoms: C_18  and  O_19 
ROOT
HETATM    1  C   UNL     1     -22.322  -9.151   0.105  1.00  0.00     0.291 C 
HETATM    2  C   UNL     1     -20.840  -9.584   0.174  1.00  0.00     0.204 C 
HETATM    3  C   UNL     1     -20.549 -10.622  -0.932  1.00  0.00     0.183 C 
HETATM    4  C   UNL     1     -21.569 -11.772  -0.906  1.00  0.00     0.180 C 
HETATM    5  C   UNL     1     -22.975 -11.167  -1.006  1.00  0.00     0.179 C 
HETATM    6  O   UNL     1     -23.195 -10.296   0.123  1.00  0.00    -0.348 OA
ENDROOT
BRANCH   1   7
HETATM    7  O   UNL     1     -22.514  -8.357  -1.067  1.00  0.00    -0.359 OA
BRANCH   7   8
HETATM    8  C   UNL     1     -22.403  -6.956  -0.820  1.00  0.00     0.171 C 
BRANCH   8   9
HETATM    9  C   UNL     1     -21.987  -6.269  -2.121  1.00  0.00     0.026 C 
BRANCH   9  10
HETATM   10  C   UNL     1     -21.161  -7.161  -3.058  1.00  0.00     0.002 C 
BRANCH  10  11
HETATM   11  C   UNL     1     -21.562  -7.015  -4.525  1.00  0.00     0.000 C 
BRANCH  11  12
HETATM   12  C   UNL     1     -20.342  -6.990  -5.443  1.00  0.00     0.000 C 
BRANCH  12  13
HETATM   13  C   UNL     1     -20.603  -6.109  -6.660  1.00  0.00     0.000 C 
BRANCH  13  14
HETATM   14  C   UNL     1     -20.313  -4.642  -6.352  1.00  0.00     0.000 C 
BRANCH  14  15
HETATM   15  C   UNL     1     -20.937  -3.727  -7.404  1.00  0.00    -0.000 C 
BRANCH  15  16
HETATM   16  C   UNL     1     -20.575  -4.184  -8.812  1.00  0.00    -0.005 C 
HETATM   17  C   UNL     1     -21.789  -4.180  -9.727  1.00  0.00     0.005 C 
ENDBRANCH  15  16
ENDBRANCH  14  15
ENDBRANCH  13  14
ENDBRANCH  12  13
ENDBRANCH  11  12
ENDBRANCH  10  11
ENDBRANCH   9  10
ENDBRANCH   8   9
ENDBRANCH   7   8
ENDBRANCH   1   7
BRANCH   2  18
HETATM   18  O   UNL     1     -20.538 -10.121   1.474  1.00  0.00    -0.388 OA
HETATM   19  H   UNL     1     -20.217  -9.382   2.022  1.00  0.00     0.210 HD
ENDBRANCH   2  18
BRANCH   3  20
HETATM   20  O   UNL     1     -19.230 -11.152  -0.785  1.00  0.00    -0.390 OA
HETATM   21  H   UNL     1     -18.833 -11.113  -1.674  1.00  0.00     0.210 HD
ENDBRANCH   3  20
BRANCH   5  22
HETATM   22  C   UNL     1     -24.083 -12.225  -1.023  1.00  0.00     0.198 C 
BRANCH  22  23
HETATM   23  O   UNL     1     -23.551 -13.485  -1.437  1.00  0.00    -0.398 OA
HETATM   24  H   UNL     1     -24.063 -13.743  -2.229  1.00  0.00     0.209 HD
ENDBRANCH  22  23
ENDBRANCH   5  22
BRANCH   4  25
HETATM   25  O   UNL     1     -21.396 -12.510   0.321  1.00  0.00    -0.390 OA
HETATM   26  H   UNL     1     -22.139 -13.133   0.425  1.00  0.00     0.210 HD
ENDBRANCH   4  25
TORSDOF 15
BEGIN_RES ARG D 557
REMARK  4 active torsions:
REMARK  status: ('A' for Active; 'I' for Inactive)
REMARK    1  A    between atoms: CA   and  CB  
REMARK    2  A    between atoms: CB   and  CG  
REMARK    3  A    between atoms: CG   and  CD  
REMARK    4  A    between atoms: CD   and  NE  
REMARK       I    between atoms: NE   and  CZ  
REMARK       I    between atoms: CZ   and  NH1 
REMARK       I    between atoms: CZ   and  NH2 
ROOT
ATOM      1  CA  ARG D 557     -26.217   2.705 -17.014  1.00 35.49     0.159 C 
ENDROOT
BRANCH   1   2
ATOM      2  CB  ARG D 557     -26.789   1.319 -17.183  1.00 35.49     0.034 C 
BRANCH   2   3
ATOM      3  CG  ARG D 557     -28.229   1.227 -17.453  1.00 35.49     0.027 C 
BRANCH   3   4
ATOM      4  CD  ARG D 557     -28.921   0.313 -16.516  1.00 35.49     0.116 C 
BRANCH   4   5
ATOM      5  NE  ARG D 557     -29.290  -0.929 -17.143  1.00 35.49    -0.212 N 
ATOM      6  CZ  ARG D 557     -28.646  -2.069 -17.027  1.00 35.49     0.666 C 
ATOM      7  NH1 ARG D 557     -27.546  -2.192 -16.307  1.00 35.49    -0.235 N 
ATOM      8  NH2 ARG D 557     -29.136  -3.101 -17.649  1.00 35.49    -0.235 N 
ATOM      9  HH  ARG D 557     -27.207  -1.526 -15.888  1.00 35.49     0.174 HD
ATOM     10  HH  ARG D 557     -27.170  -2.961 -16.266  1.00 35.49     0.174 HD
ATOM     11  HH  ARG D 557     -29.852  -2.994 -18.100  1.00 35.49     0.174 HD
ATOM     12  HH  ARG D 557     -28.750  -3.855 -17.595  1.00 35.49     0.174 HD
ATOM     13  HE  ARG D 557     -29.946  -0.924 -17.683  1.00 35.49     0.178 HD
ENDBRANCH   4   5
ENDBRANCH   3   4
ENDBRANCH   2   3
ENDBRANCH   1   2
END_RES ARG D 557
BEGIN_RES GLU D 570
REMARK  3 active torsions:
REMARK  status: ('A' for Active; 'I' for Inactive)
REMARK    5  A    between atoms: CA   and  CB  
REMARK    6  A    between atoms: CB   and  CG  
REMARK    7  A    between atoms: CG   and  CD  
ROOT
ATOM     14  CA  GLU D 570     -18.033  -6.348 -13.375  1.00 32.92     0.160 C 
ENDROOT
BRANCH  14  15
ATOM     15  CB  GLU D 570     -19.500  -6.345 -13.794  1.00 32.92     0.043 C 
BRANCH  15  16
ATOM     16  CG  GLU D 570     -20.444  -5.542 -12.975  1.00 32.92     0.100 C 
BRANCH  16  17
ATOM     17  CD  GLU D 570     -21.755  -5.275 -13.678  1.00 32.92     0.185 C 
ATOM     18  OE1 GLU D 570     -22.368  -4.219 -13.435  1.00 32.92    -0.647 OA
ATOM     19  OE2 GLU D 570     -22.181  -6.141 -14.468  1.00 32.92    -0.647 OA
ENDBRANCH  16  17
ENDBRANCH  15  16
ENDBRANCH  14  15
END_RES GLU D 570
ENDMDL
MODEL 7
REMARK VINA RESULT:      -5.8      4.950      8.751
REMARK  15 active torsions:
REMARK  status: ('A' for Active; 'I' for Inactive)
REMARK    1  A    between atoms: C_2  and  C_3 
REMARK    2  A    between atoms: C_3  and  C_4 
REMARK    3  A    between atoms: C_4  and  C_5 
REMARK    4  A    between atoms: C_5  and  C_6 
REMARK    5  A    between atoms: C_6  and  C_7 
REMARK    6  A    between atoms: C_7  and  C_8 
REMARK    7  A    between atoms: C_8  and  C_9 
REMARK    8  A    between atoms: C_9  and  C_10 
REMARK    9  A    between atoms: C_10  and  O_11 
REMARK   10  A    between atoms: O_11  and  C_12 
REMARK   11  A    between atoms: C_13  and  O_22 
REMARK   12  A    between atoms: C_14  and  O_21 
REMARK   13  A    between atoms: C_15  and  O_20 
REMARK   14  A    between atoms: C_16  and  C_18 
REMARK   15  A    between atoms: C_18  and  O_19 
ROOT
HETATM    1  C   UNL     1     -21.545  -8.540  -2.395  1.00  0.00     0.291 C 
HETATM    2  C   UNL     1     -21.480  -7.792  -1.044  1.00  0.00     0.204 C 
HETATM    3  C   UNL     1     -21.270  -8.806   0.102  1.00  0.00     0.183 C 
HETATM    4  C   UNL     1     -22.295  -9.949   0.037  1.00  0.00     0.180 C 
HETATM    5  C   UNL     1     -22.209 -10.590  -1.354  1.00  0.00     0.179 C 
HETATM    6  O   UNL     1     -22.523  -9.597  -2.352  1.00  0.00    -0.348 OA
ENDROOT
BRANCH   1   7
HETATM    7  O   UNL     1     -20.243  -9.036  -2.708  1.00  0.00    -0.359 OA
BRANCH   7   8
HETATM    8  C   UNL     1     -19.722  -8.513  -3.929  1.00  0.00     0.171 C 
BRANCH   8   9
HETATM    9  C   UNL     1     -20.869  -8.401  -4.935  1.00  0.00     0.026 C 
BRANCH   9  10
HETATM   10  C   UNL     1     -20.866  -7.091  -5.735  1.00  0.00     0.002 C 
BRANCH  10  11
HETATM   11  C   UNL     1     -20.894  -5.850  -4.844  1.00  0.00     0.000 C 
BRANCH  11  12
HETATM   12  C   UNL     1     -20.221  -4.657  -5.518  1.00  0.00     0.000 C 
BRANCH  12  13
HETATM   13  C   UNL     1     -19.618  -5.065  -6.858  1.00  0.00     0.000 C 
BRANCH  13  14
HETATM   14  C   UNL     1     -20.119  -4.165  -7.985  1.00  0.00     0.000 C 
BRANCH  14  15
HETATM   15  C   UNL     1     -21.494  -3.587  -7.654  1.00  0.00    -0.000 C 
BRANCH  15  16
HETATM   16  C   UNL     1     -22.592  -4.301  -8.433  1.00  0.00    -0.005 C 
HETATM   17  C   UNL     1     -22.735  -3.737  -9.837  1.00  0.00     0.005 C 
ENDBRANCH  15  16
ENDBRANCH  14  15
ENDBRANCH  13  14
ENDBRANCH  12  13
ENDBRANCH  11  12
ENDBRANCH  10  11
ENDBRANCH   9  10
ENDBRANCH   8   9
ENDBRANCH   7   8
ENDBRANCH   1   7
BRANCH   2  18
HETATM   18  O   UNL     1     -22.681  -7.027  -0.839  1.00  0.00    -0.388 OA
HETATM   19  H   UNL     1     -23.089  -7.350  -0.015  1.00  0.00     0.210 HD
ENDBRANCH   2  18
BRANCH   3  20
HETATM   20  O   UNL     1     -21.366  -8.154   1.371  1.00  0.00    -0.390 OA
HETATM   21  H   UNL     1     -21.108  -8.824   2.029  1.00  0.00     0.210 HD
ENDBRANCH   3  20
BRANCH   5  22
HETATM   22  C   UNL     1     -23.168 -11.772  -1.531  1.00  0.00     0.198 C 
BRANCH  22  23
HETATM   23  O   UNL     1     -23.671 -12.188  -0.260  1.00  0.00    -0.398 OA
HETATM   24  H   UNL     1     -24.619 -12.384  -0.399  1.00  0.00     0.209 HD
ENDBRANCH  22  23
ENDBRANCH   5  22
BRANCH   4  25
HETATM   25  O   UNL     1     -23.606  -9.404   0.287  1.00  0.00    -0.390 OA
HETATM   26  H   UNL     1     -23.560  -8.430   0.247  1.00  0.00     0.210 HD
ENDBRANCH   4  25
TORSDOF 15
BEGIN_RES ARG D 557
REMARK  4 active torsions:
REMARK  status: ('A' for Active; 'I' for Inactive)
REMARK    1  A    between atoms: CA   and  CB  
REMARK    2  A    between atoms: CB   and  CG  
REMARK    3  A    between atoms: CG   and  CD  
REMARK    4  A    between atoms: CD   and  NE  
REMARK       I    between atoms: NE   and  CZ  
REMARK       I    between atoms: CZ   and  NH1 
REMARK       I    between atoms: CZ   and  NH2 
ROOT
ATOM      1  CA  ARG D 557     -26.217   2.705 -17.014  1.00 35.49     0.159 C 
ENDROOT
BRANCH   1   2
ATOM      2  CB  ARG D 557     -26.789   1.319 -17.183  1.00 35.49     0.034 C 
BRANCH   2   3
ATOM      3  CG  ARG D 557     -28.231   1.226 -17.443  1.00 35.49     0.027 C 
BRANCH   3   4
ATOM      4  CD  ARG D 557     -28.917   0.314 -16.500  1.00 35.49     0.116 C 
BRANCH   4   5
ATOM      5  NE  ARG D 557     -29.304  -0.922 -17.127  1.00 35.49    -0.212 N 
ATOM      6  CZ  ARG D 557     -28.665  -2.067 -17.029  1.00 35.49     0.666 C 
ATOM      7  NH1 ARG D 557     -27.553  -2.200 -16.331  1.00 35.49    -0.235 N 
ATOM      8  NH2 ARG D 557     -29.173  -3.093 -17.648  1.00 35.49    -0.235 N 
ATOM      9  HH  ARG D 557     -27.202  -1.539 -15.914  1.00 35.49     0.174 HD
ATOM     10  HH  ARG D 557     -27.181  -2.972 -16.301  1.00 35.49     0.174 HD
ATOM     11  HH  ARG D 557     -29.896  -2.978 -18.085  1.00 35.49     0.174 HD
ATOM     12  HH  ARG D 557     -28.791  -3.848 -17.605  1.00 35.49     0.174 HD
ATOM     13  HE  ARG D 557     -29.971  -0.911 -17.655  1.00 35.49     0.178 HD
ENDBRANCH   4   5
ENDBRANCH   3   4
ENDBRANCH   2   3
ENDBRANCH   1   2
END_RES ARG D 557
BEGIN_RES GLU D 570
REMARK  3 active torsions:
REMARK  status: ('A' for Active; 'I' for Inactive)
REMARK    5  A    between atoms: CA   and  CB  
REMARK    6  A    between atoms: CB   and  CG  
REMARK    7  A    between atoms: CG   and  CD  
ROOT
ATOM     14  CA  GLU D 570     -18.033  -6.348 -13.375  1.00 32.92     0.160 C 
ENDROOT
BRANCH  14  15
ATOM     15  CB  GLU D 570     -19.500  -6.345 -13.794  1.00 32.92     0.043 C 
BRANCH  15  16
ATOM     16  CG  GLU D 570     -20.086  -7.634 -14.244  1.00 32.92     0.100 C 
BRANCH  16  17
ATOM     17  CD  GLU D 570     -20.685  -7.558 -15.629  1.00 32.92     0.185 C 
ATOM     18  OE1 GLU D 570     -20.676  -6.469 -16.233  1.00 32.92    -0.647 OA
ATOM     19  OE2 GLU D 570     -21.183  -8.596 -16.108  1.00 32.92    -0.647 OA
ENDBRANCH  16  17
ENDBRANCH  15  16
ENDBRANCH  14  15
END_RES GLU D 570
ENDMDL
MODEL 8
REMARK VINA RESULT:      -5.7      5.417      8.742
REMARK  15 active torsions:
REMARK  status: ('A' for Active; 'I' for Inactive)
REMARK    1  A    between atoms: C_2  and  C_3 
REMARK    2  A    between atoms: C_3  and  C_4 
REMARK    3  A    between atoms: C_4  and  C_5 
REMARK    4  A    between atoms: C_5  and  C_6 
REMARK    5  A    between atoms: C_6  and  C_7 
REMARK    6  A    between atoms: C_7  and  C_8 
REMARK    7  A    between atoms: C_8  and  C_9 
REMARK    8  A    between atoms: C_9  and  C_10 
REMARK    9  A    between atoms: C_10  and  O_11 
REMARK   10  A    between atoms: O_11  and  C_12 
REMARK   11  A    between atoms: C_13  and  O_22 
REMARK   12  A    between atoms: C_14  and  O_21 
REMARK   13  A    between atoms: C_15  and  O_20 
REMARK   14  A    between atoms: C_16  and  C_18 
REMARK   15  A    between atoms: C_18  and  O_19 
ROOT
HETATM    1  C   UNL     1     -19.291  -8.958  -3.754  1.00  0.00     0.291 C 
HETATM    2  C   UNL     1     -19.438  -9.684  -5.111  1.00  0.00     0.204 C 
HETATM    3  C   UNL     1     -19.203 -11.198  -4.919  1.00  0.00     0.183 C 
HETATM    4  C   UNL     1     -17.891 -11.474  -4.168  1.00  0.00     0.180 C 
HETATM    5  C   UNL     1     -17.925 -10.700  -2.844  1.00  0.00     0.179 C 
HETATM    6  O   UNL     1     -18.038  -9.289  -3.125  1.00  0.00    -0.348 OA
ENDROOT
BRANCH   1   7
HETATM    7  O   UNL     1     -20.405  -9.301  -2.928  1.00  0.00    -0.359 OA
BRANCH   7   8
HETATM    8  C   UNL     1     -21.400  -8.280  -2.877  1.00  0.00     0.171 C 
BRANCH   8   9
HETATM    9  C   UNL     1     -21.140  -7.414  -1.644  1.00  0.00     0.026 C 
BRANCH   9  10
HETATM   10  C   UNL     1     -22.383  -7.186  -0.772  1.00  0.00     0.002 C 
BRANCH  10  11
HETATM   11  C   UNL     1     -22.551  -8.249   0.312  1.00  0.00     0.000 C 
BRANCH  11  12
HETATM   12  C   UNL     1     -21.265  -8.446   1.112  1.00  0.00     0.000 C 
BRANCH  12  13
HETATM   13  C   UNL     1     -20.852  -9.914   1.112  1.00  0.00     0.000 C 
BRANCH  13  14
HETATM   14  C   UNL     1     -21.618 -10.703   0.053  1.00  0.00     0.000 C 
BRANCH  14  15
HETATM   15  C   UNL     1     -22.062 -12.060   0.595  1.00  0.00    -0.000 C 
BRANCH  15  16
HETATM   16  C   UNL     1     -23.552 -12.281   0.366  1.00  0.00    -0.005 C 
HETATM   17  C   UNL     1     -24.075 -11.416  -0.770  1.00  0.00     0.005 C 
ENDBRANCH  15  16
ENDBRANCH  14  15
ENDBRANCH  13  14
ENDBRANCH  12  13
ENDBRANCH  11  12
ENDBRANCH  10  11
ENDBRANCH   9  10
ENDBRANCH   8   9
ENDBRANCH   7   8
ENDBRANCH   1   7
BRANCH   2  18
HETATM   18  O   UNL     1     -18.513  -9.139  -6.070  1.00  0.00    -0.388 OA
HETATM   19  H   UNL     1     -18.731  -8.195  -6.173  1.00  0.00     0.210 HD
ENDBRANCH   2  18
BRANCH   3  20
HETATM   20  O   UNL     1     -19.177 -11.864  -6.183  1.00  0.00    -0.390 OA
HETATM   21  H   UNL     1     -19.311 -11.166  -6.849  1.00  0.00     0.210 HD
ENDBRANCH   3  20
BRANCH   5  22
HETATM   22  C   UNL     1     -16.675 -10.922  -1.986  1.00  0.00     0.198 C 
BRANCH  22  23
HETATM   23  O   UNL     1     -15.618 -10.071  -2.434  1.00  0.00    -0.398 OA
HETATM   24  H   UNL     1     -15.571  -9.340  -1.786  1.00  0.00     0.209 HD
ENDBRANCH  22  23
ENDBRANCH   5  22
BRANCH   4  25
HETATM   25  O   UNL     1     -16.790 -11.052  -4.999  1.00  0.00    -0.390 OA
HETATM   26  H   UNL     1     -17.110 -10.922  -5.911  1.00  0.00     0.210 HD
ENDBRANCH   4  25
TORSDOF 15
BEGIN_RES ARG D 557
REMARK  4 active torsions:
REMARK  status: ('A' for Active; 'I' for Inactive)
REMARK    1  A    between atoms: CA   and  CB  
REMARK    2  A    between atoms: CB   and  CG  
REMARK    3  A    between atoms: CG   and  CD  
REMARK    4  A    between atoms: CD   and  NE  
REMARK       I    between atoms: NE   and  CZ  
REMARK       I    between atoms: CZ   and  NH1 
REMARK       I    between atoms: CZ   and  NH2 
ROOT
ATOM      1  CA  ARG D 557     -26.217   2.705 -17.014  1.00 35.49     0.159 C 
ENDROOT
BRANCH   1   2
ATOM      2  CB  ARG D 557     -26.789   1.319 -17.183  1.00 35.49     0.034 C 
BRANCH   2   3
ATOM      3  CG  ARG D 557     -28.222   1.158 -16.908  1.00 35.49     0.027 C 
BRANCH   3   4
ATOM      4  CD  ARG D 557     -28.604  -0.261 -16.721  1.00 35.49     0.116 C 
BRANCH   4   5
ATOM      5  NE  ARG D 557     -27.599  -1.004 -16.008  1.00 35.49    -0.212 N 
ATOM      6  CZ  ARG D 557     -27.411  -2.303 -16.077  1.00 35.49     0.666 C 
ATOM      7  NH1 ARG D 557     -28.162  -3.090 -16.826  1.00 35.49    -0.235 N 
ATOM      8  NH2 ARG D 557     -26.436  -2.806 -15.377  1.00 35.49    -0.235 N 
ATOM      9  HH  ARG D 557     -28.807  -2.780 -17.296  1.00 35.49     0.174 HD
ATOM     10  HH  ARG D 557     -27.990  -3.929 -16.833  1.00 35.49     0.174 HD
ATOM     11  HH  ARG D 557     -25.963  -2.273 -14.909  1.00 35.49     0.174 HD
ATOM     12  HH  ARG D 557     -26.281  -3.640 -15.399  1.00 35.49     0.174 HD
ATOM     13  HE  ARG D 557     -27.117  -0.586 -15.446  1.00 35.49     0.178 HD
ENDBRANCH   4   5
ENDBRANCH   3   4
ENDBRANCH   2   3
ENDBRANCH   1   2
END_RES ARG D 557
BEGIN_RES GLU D 570
REMARK  3 active torsions:
REMARK  status: ('A' for Active; 'I' for Inactive)
REMARK    5  A    between atoms: CA   and  CB  
REMARK    6  A    between atoms: CB   and  CG  
REMARK    7  A    between atoms: CG   and  CD  
ROOT
ATOM     14  CA  GLU D 570     -18.033  -6.348 -13.375  1.00 32.92     0.160 C 
ENDROOT
BRANCH  14  15
ATOM     15  CB  GLU D 570     -19.500  -6.345 -13.794  1.00 32.92     0.043 C 
BRANCH  15  16
ATOM     16  CG  GLU D 570     -20.449  -5.567 -12.957  1.00 32.92     0.100 C 
BRANCH  16  17
ATOM     17  CD  GLU D 570     -21.696  -5.158 -13.706  1.00 32.92     0.185 C 
ATOM     18  OE1 GLU D 570     -21.660  -5.088 -14.949  1.00 32.92    -0.647 OA
ATOM     19  OE2 GLU D 570     -22.716  -4.888 -13.040  1.00 32.92    -0.647 OA
ENDBRANCH  16  17
ENDBRANCH  15  16
ENDBRANCH  14  15
END_RES GLU D 570
ENDMDL
MODEL 9
REMARK VINA RESULT:      -5.6     14.297     16.270
REMARK  15 active torsions:
REMARK  status: ('A' for Active; 'I' for Inactive)
REMARK    1  A    between atoms: C_2  and  C_3 
REMARK    2  A    between atoms: C_3  and  C_4 
REMARK    3  A    between atoms: C_4  and  C_5 
REMARK    4  A    between atoms: C_5  and  C_6 
REMARK    5  A    between atoms: C_6  and  C_7 
REMARK    6  A    between atoms: C_7  and  C_8 
REMARK    7  A    between atoms: C_8  and  C_9 
REMARK    8  A    between atoms: C_9  and  C_10 
REMARK    9  A    between atoms: C_10  and  O_11 
REMARK   10  A    between atoms: O_11  and  C_12 
REMARK   11  A    between atoms: C_13  and  O_22 
REMARK   12  A    between atoms: C_14  and  O_21 
REMARK   13  A    between atoms: C_15  and  O_20 
REMARK   14  A    between atoms: C_16  and  C_18 
REMARK   15  A    between atoms: C_18  and  O_19 
ROOT
HETATM    1  C   UNL     1     -17.056   9.991   2.902  1.00  0.00     0.291 C 
HETATM    2  C   UNL     1     -16.028   9.697   1.785  1.00  0.00     0.204 C 
HETATM    3  C   UNL     1     -15.273   8.389   2.105  1.00  0.00     0.183 C 
HETATM    4  C   UNL     1     -14.703   8.402   3.532  1.00  0.00     0.180 C 
HETATM    5  C   UNL     1     -15.855   8.682   4.505  1.00  0.00     0.179 C 
HETATM    6  O   UNL     1     -16.429   9.969   4.198  1.00  0.00    -0.348 OA
ENDROOT
BRANCH   1   7
HETATM    7  O   UNL     1     -18.116   9.039   2.810  1.00  0.00    -0.359 OA
BRANCH   7   8
HETATM    8  C   UNL     1     -19.368   9.546   3.271  1.00  0.00     0.171 C 
BRANCH   8   9
HETATM    9  C   UNL     1     -20.462   8.545   2.896  1.00  0.00     0.026 C 
BRANCH   9  10
HETATM   10  C   UNL     1     -21.793   9.200   2.502  1.00  0.00     0.002 C 
BRANCH  10  11
HETATM   11  C   UNL     1     -22.314   8.718   1.149  1.00  0.00     0.000 C 
BRANCH  11  12
HETATM   12  C   UNL     1     -23.836   8.807   1.067  1.00  0.00     0.000 C 
BRANCH  12  13
HETATM   13  C   UNL     1     -24.360   7.990  -0.110  1.00  0.00     0.000 C 
BRANCH  13  14
HETATM   14  C   UNL     1     -23.241   7.179  -0.760  1.00  0.00     0.000 C 
BRANCH  14  15
HETATM   15  C   UNL     1     -23.367   7.195  -2.282  1.00  0.00    -0.000 C 
BRANCH  15  16
HETATM   16  C   UNL     1     -24.825   7.295  -2.712  1.00  0.00    -0.005 C 
HETATM   17  C   UNL     1     -25.270   6.051  -3.464  1.00  0.00     0.005 C 
ENDBRANCH  15  16
ENDBRANCH  14  15
ENDBRANCH  13  14
ENDBRANCH  12  13
ENDBRANCH  11  12
ENDBRANCH  10  11
ENDBRANCH   9  10
ENDBRANCH   8   9
ENDBRANCH   7   8
ENDBRANCH   1   7
BRANCH   2  18
HETATM   18  O   UNL     1     -15.111  10.798   1.650  1.00  0.00    -0.388 OA
HETATM   19  H   UNL     1     -14.310  10.452   1.219  1.00  0.00     0.210 HD
ENDBRANCH   2  18
BRANCH   3  20
HETATM   20  O   UNL     1     -14.210   8.183   1.171  1.00  0.00    -0.390 OA
HETATM   21  H   UNL     1     -14.561   7.560   0.510  1.00  0.00     0.210 HD
ENDBRANCH   3  20
BRANCH   5  22
HETATM   22  C   UNL     1     -15.414   8.688   5.973  1.00  0.00     0.198 C 
BRANCH  22  23
HETATM   23  O   UNL     1     -14.125   8.085   6.098  1.00  0.00    -0.398 OA
HETATM   24  H   UNL     1     -13.479   8.811   5.990  1.00  0.00     0.209 HD
ENDBRANCH  22  23
ENDBRANCH   5  22
BRANCH   4  25
HETATM   25  O   UNL     1     -13.686   9.421   3.610  1.00  0.00    -0.390 OA
HETATM   26  H   UNL     1     -13.821  10.063   2.889  1.00  0.00     0.210 HD
ENDBRANCH   4  25
TORSDOF 15
BEGIN_RES ARG D 557
REMARK  4 active torsions:
REMARK  status: ('A' for Active; 'I' for Inactive)
REMARK    1  A    between atoms: CA   and  CB  
REMARK    2  A    between atoms: CB   and  CG  
REMARK    3  A    between atoms: CG   and  CD  
REMARK    4  A    between atoms: CD   and  NE  
REMARK       I    between atoms: NE   and  CZ  
REMARK       I    between atoms: CZ   and  NH1 
REMARK       I    between atoms: CZ   and  NH2 
ROOT
ATOM      1  CA  ARG D 557     -26.217   2.705 -17.014  1.00 35.49     0.159 C 
ENDROOT
BRANCH   1   2
ATOM      2  CB  ARG D 557     -26.789   1.319 -17.183  1.00 35.49     0.034 C 
BRANCH   2   3
ATOM      3  CG  ARG D 557     -25.869   0.194 -16.973  1.00 35.49     0.027 C 
BRANCH   3   4
ATOM      4  CD  ARG D 557     -26.296  -0.684 -15.860  1.00 35.49     0.116 C 
BRANCH   4   5
ATOM      5  NE  ARG D 557     -25.233  -0.921 -14.919  1.00 35.49    -0.212 N 
ATOM      6  CZ  ARG D 557     -24.936  -2.079 -14.372  1.00 35.49     0.666 C 
ATOM      7  NH1 ARG D 557     -25.617  -3.180 -14.630  1.00 35.49    -0.235 N 
ATOM      8  NH2 ARG D 557     -23.924  -2.115 -13.554  1.00 35.49    -0.235 N 
ATOM      9  HH  ARG D 557     -26.285  -3.181 -15.166  1.00 35.49     0.174 HD
ATOM     10  HH  ARG D 557     -25.376  -3.907 -14.245  1.00 35.49     0.174 HD
ATOM     11  HH  ARG D 557     -23.498  -1.389 -13.413  1.00 35.49     0.174 HD
ATOM     12  HH  ARG D 557     -23.700  -2.844 -13.185  1.00 35.49     0.174 HD
ATOM     13  HE  ARG D 557     -24.789  -0.252 -14.641  1.00 35.49     0.178 HD
ENDBRANCH   4   5
ENDBRANCH   3   4
ENDBRANCH   2   3
ENDBRANCH   1   2
END_RES ARG D 557
BEGIN_RES GLU D 570
REMARK  3 active torsions:
REMARK  status: ('A' for Active; 'I' for Inactive)
REMARK    5  A    between atoms: CA   and  CB  
REMARK    6  A    between atoms: CB   and  CG  
REMARK    7  A    between atoms: CG   and  CD  
ROOT
ATOM     14  CA  GLU D 570     -18.033  -6.348 -13.375  1.00 32.92     0.160 C 
ENDROOT
BRANCH  14  15
ATOM     15  CB  GLU D 570     -19.500  -6.345 -13.794  1.00 32.92     0.043 C 
BRANCH  15  16
ATOM     16  CG  GLU D 570     -20.444  -5.541 -12.975  1.00 32.92     0.100 C 
BRANCH  16  17
ATOM     17  CD  GLU D 570     -21.694  -5.151 -13.730  1.00 32.92     0.185 C 
ATOM     18  OE1 GLU D 570     -22.746  -4.949 -13.094  1.00 32.92    -0.647 OA
ATOM     19  OE2 GLU D 570     -21.624  -5.064 -14.972  1.00 32.92    -0.647 OA
ENDBRANCH  16  17
ENDBRANCH  15  16
ENDBRANCH  14  15
END_RES GLU D 570
ENDMDL
