MODEL 1
REMARK VINA RESULT:      -7.8      0.000      0.000
REMARK  6 active torsions:
REMARK  status: ('A' for Active; 'I' for Inactive)
REMARK    1  A    between atoms: C_5  and  C_33 
REMARK    2  A    between atoms: C_19  and  O_26 
REMARK    3  A    between atoms: C_20  and  O_25 
REMARK    4  A    between atoms: C_21  and  C_23 
REMARK    5  A    between atoms: C_23  and  O_24 
REMARK    6  A    between atoms: C_33  and  O_35 
ROOT
HETATM    1  C   UNL     1     -22.319  -6.220  -1.902  1.00  0.00     0.010 C 
HETATM    2  C   UNL     1     -21.433  -7.346  -1.351  1.00  0.00    -0.014 C 
HETATM    3  C   UNL     1     -22.345  -8.256  -0.523  1.00  0.00     0.006 C 
HETATM    4  C   UNL     1     -21.498  -9.243   0.265  1.00  0.00     0.021 C 
HETATM    5  C   UNL     1     -20.842 -10.225  -0.713  1.00  0.00     0.053 C 
HETATM    6  C   UNL     1     -20.093 -11.308   0.054  1.00  0.00     0.022 C 
HETATM    7  C   UNL     1     -19.518 -12.304  -0.957  1.00  0.00     0.016 C 
HETATM    8  C   UNL     1     -18.393 -11.665  -1.756  1.00  0.00    -0.013 C 
HETATM    9  C   UNL     1     -18.524 -10.187  -2.190  1.00  0.00    -0.069 C 
HETATM   10  C   UNL     1     -17.464  -9.786  -2.993  1.00  0.00    -0.022 C 
HETATM   11  C   UNL     1     -16.325 -10.817  -3.657  1.00  0.00     0.033 C 
HETATM   12  C   UNL     1     -16.540 -12.325  -3.225  1.00  0.00     0.007 C 
HETATM   13  C   UNL     1     -18.095 -12.441  -3.178  1.00  0.00    -0.028 C 
HETATM   14  C   UNL     1     -18.560 -13.885  -3.504  1.00  0.00     0.011 C 
HETATM   15  C   UNL     1     -17.726 -14.532  -4.671  1.00  0.00     0.007 C 
HETATM   16  C   UNL     1     -16.169 -14.562  -4.519  1.00  0.00     0.007 C 
HETATM   17  C   UNL     1     -15.742 -13.748  -3.285  1.00  0.00    -0.033 C 
HETATM   18  C   UNL     1     -14.199 -13.632  -3.017  1.00  0.00     0.044 C 
HETATM   19  C   UNL     1     -13.289 -14.146  -4.113  1.00  0.00     0.148 C 
HETATM   20  C   UNL     1     -13.869 -13.754  -5.460  1.00  0.00     0.157 C 
HETATM   21  C   UNL     1     -15.253 -14.398  -5.808  1.00  0.00     0.010 C 
HETATM   22  C   UNL     1     -15.060 -15.813  -6.433  1.00  0.00     0.020 C 
HETATM   23  C   UNL     1     -16.122 -14.715  -2.054  1.00  0.00     0.016 C 
HETATM   24  C   UNL     1     -18.883 -11.713  -4.417  1.00  0.00     0.016 C 
HETATM   25  C   UNL     1     -19.791  -9.385  -1.612  1.00  0.00     0.038 C 
HETATM   26  C   UNL     1     -20.525  -8.163  -2.371  1.00  0.00    -0.005 C 
HETATM   27  C   UNL     1     -21.307  -8.506  -3.648  1.00  0.00     0.011 C 
HETATM   28  C   UNL     1     -17.228 -11.608  -0.634  1.00  0.00     0.021 C 
ENDROOT
BRANCH   5  29
HETATM   29  C   UNL     1     -22.061 -11.018  -1.303  1.00  0.00     0.149 C 
HETATM   30  O   UNL     1     -22.254 -11.139  -2.524  1.00  0.00    -0.649 OA
BRANCH  29  31
HETATM   31  O   UNL     1     -22.977 -11.478  -0.436  1.00  0.00    -0.776 OA
HETATM   32  H   UNL     1     -23.016 -12.436  -0.411  1.00  0.00     0.167 HD
ENDBRANCH  29  31
ENDBRANCH   5  29
BRANCH  21  33
HETATM   33  C   UNL     1     -15.876 -13.503  -6.908  1.00  0.00     0.176 C 
BRANCH  33  34
HETATM   34  O   UNL     1     -15.370 -12.168  -6.900  1.00  0.00    -0.400 OA
HETATM   35  H   UNL     1     -15.116 -11.932  -5.981  1.00  0.00     0.209 HD
ENDBRANCH  33  34
ENDBRANCH  21  33
BRANCH  19  36
HETATM   36  O   UNL     1     -13.043 -15.551  -4.048  1.00  0.00    -0.393 OA
HETATM   37  H   UNL     1     -12.130 -15.714  -3.759  1.00  0.00     0.210 HD
ENDBRANCH  19  36
BRANCH  20  38
HETATM   38  O   UNL     1     -12.904 -14.025  -6.484  1.00  0.00    -0.392 OA
HETATM   39  H   UNL     1     -12.025 -13.933  -6.059  1.00  0.00     0.210 HD
ENDBRANCH  20  38
TORSDOF 6
BEGIN_RES ARG D 557
REMARK  4 active torsions:
REMARK  status: ('A' for Active; 'I' for Inactive)
REMARK    1  A    between atoms: CA   and  CB  
REMARK    2  A    between atoms: CB   and  CG  
REMARK    3  A    between atoms: CG   and  CD  
REMARK    4  A    between atoms: CD   and  NE  
REMARK       I    between atoms: NE   and  CZ  
REMARK       I    between atoms: CZ   and  NH1 
REMARK       I    between atoms: CZ   and  NH2 
ROOT
ATOM      1  CA  ARG D 557     -26.217   2.705 -17.014  1.00 35.49     0.159 C 
ENDROOT
BRANCH   1   2
ATOM      2  CB  ARG D 557     -26.789   1.319 -17.183  1.00 35.49     0.034 C 
BRANCH   2   3
ATOM      3  CG  ARG D 557     -25.838   0.202 -17.139  1.00 35.49     0.027 C 
BRANCH   3   4
ATOM      4  CD  ARG D 557     -24.756   0.421 -16.152  1.00 35.49     0.116 C 
BRANCH   4   5
ATOM      5  NE  ARG D 557     -24.891  -0.432 -15.000  1.00 35.49    -0.212 N 
ATOM      6  CZ  ARG D 557     -24.075  -1.405 -14.665  1.00 35.49     0.666 C 
ATOM      7  NH1 ARG D 557     -23.014  -1.721 -15.385  1.00 35.49    -0.235 N 
ATOM      8  NH2 ARG D 557     -24.340  -2.063 -13.573  1.00 35.49    -0.235 N 
ATOM      9  HH  ARG D 557     -22.819  -1.300 -16.105  1.00 35.49     0.174 HD
ATOM     10  HH  ARG D 557     -22.516  -2.364 -15.115  1.00 35.49     0.174 HD
ATOM     11  HH  ARG D 557     -25.028  -1.832 -13.125  1.00 35.49     0.174 HD
ATOM     12  HH  ARG D 557     -23.834  -2.695 -13.323  1.00 35.49     0.174 HD
ATOM     13  HE  ARG D 557     -25.588  -0.346 -14.519  1.00 35.49     0.178 HD
ENDBRANCH   4   5
ENDBRANCH   3   4
ENDBRANCH   2   3
ENDBRANCH   1   2
END_RES ARG D 557
BEGIN_RES GLU D 570
REMARK  3 active torsions:
REMARK  status: ('A' for Active; 'I' for Inactive)
REMARK    5  A    between atoms: CA   and  CB  
REMARK    6  A    between atoms: CB   and  CG  
REMARK    7  A    between atoms: CG   and  CD  
ROOT
ATOM     14  CA  GLU D 570     -18.033  -6.348 -13.375  1.00 32.92     0.160 C 
ENDROOT
BRANCH  14  15
ATOM     15  CB  GLU D 570     -19.500  -6.345 -13.794  1.00 32.92     0.043 C 
BRANCH  15  16
ATOM     16  CG  GLU D 570     -20.445  -5.545 -12.973  1.00 32.92     0.100 C 
BRANCH  16  17
ATOM     17  CD  GLU D 570     -21.726  -5.214 -13.702  1.00 32.92     0.185 C 
ATOM     18  OE1 GLU D 570     -22.288  -4.125 -13.476  1.00 32.92    -0.647 OA
ATOM     19  OE2 GLU D 570     -22.182  -6.061 -14.496  1.00 32.92    -0.647 OA
ENDBRANCH  16  17
ENDBRANCH  15  16
ENDBRANCH  14  15
END_RES GLU D 570
ENDMDL
MODEL 2
REMARK VINA RESULT:      -7.5      1.242      1.460
REMARK  6 active torsions:
REMARK  status: ('A' for Active; 'I' for Inactive)
REMARK    1  A    between atoms: C_5  and  C_33 
REMARK    2  A    between atoms: C_19  and  O_26 
REMARK    3  A    between atoms: C_20  and  O_25 
REMARK    4  A    between atoms: C_21  and  C_23 
REMARK    5  A    between atoms: C_23  and  O_24 
REMARK    6  A    between atoms: C_33  and  O_35 
ROOT
HETATM    1  C   UNL     1     -22.321  -6.187  -1.896  1.00  0.00     0.010 C 
HETATM    2  C   UNL     1     -21.435  -7.315  -1.348  1.00  0.00    -0.014 C 
HETATM    3  C   UNL     1     -22.348  -8.228  -0.525  1.00  0.00     0.006 C 
HETATM    4  C   UNL     1     -21.502  -9.218   0.260  1.00  0.00     0.021 C 
HETATM    5  C   UNL     1     -20.846 -10.196  -0.719  1.00  0.00     0.053 C 
HETATM    6  C   UNL     1     -20.097 -11.282   0.044  1.00  0.00     0.022 C 
HETATM    7  C   UNL     1     -19.521 -12.274  -0.970  1.00  0.00     0.016 C 
HETATM    8  C   UNL     1     -18.396 -11.632  -1.765  1.00  0.00    -0.013 C 
HETATM    9  C   UNL     1     -18.526 -10.153  -2.194  1.00  0.00    -0.069 C 
HETATM   10  C   UNL     1     -17.465  -9.749  -2.994  1.00  0.00    -0.022 C 
HETATM   11  C   UNL     1     -16.325 -10.778  -3.660  1.00  0.00     0.033 C 
HETATM   12  C   UNL     1     -16.541 -12.287  -3.234  1.00  0.00     0.007 C 
HETATM   13  C   UNL     1     -18.095 -12.404  -3.190  1.00  0.00    -0.028 C 
HETATM   14  C   UNL     1     -18.561 -13.846  -3.522  1.00  0.00     0.011 C 
HETATM   15  C   UNL     1     -17.725 -14.490  -4.689  1.00  0.00     0.007 C 
HETATM   16  C   UNL     1     -16.168 -14.519  -4.536  1.00  0.00     0.007 C 
HETATM   17  C   UNL     1     -15.743 -13.710  -3.298  1.00  0.00    -0.033 C 
HETATM   18  C   UNL     1     -14.200 -13.596  -3.028  1.00  0.00     0.044 C 
HETATM   19  C   UNL     1     -13.289 -14.105  -4.125  1.00  0.00     0.148 C 
HETATM   20  C   UNL     1     -13.866 -13.708  -5.471  1.00  0.00     0.157 C 
HETATM   21  C   UNL     1     -15.251 -14.351  -5.823  1.00  0.00     0.010 C 
HETATM   22  C   UNL     1     -15.056 -15.763  -6.453  1.00  0.00     0.020 C 
HETATM   23  C   UNL     1     -16.124 -14.682  -2.071  1.00  0.00     0.016 C 
HETATM   24  C   UNL     1     -18.882 -11.671  -4.427  1.00  0.00     0.016 C 
HETATM   25  C   UNL     1     -19.794  -9.353  -1.614  1.00  0.00     0.038 C 
HETATM   26  C   UNL     1     -20.526  -8.128  -2.370  1.00  0.00    -0.005 C 
HETATM   27  C   UNL     1     -21.307  -8.466  -3.650  1.00  0.00     0.011 C 
HETATM   28  C   UNL     1     -17.232 -11.579  -0.642  1.00  0.00     0.021 C 
ENDROOT
BRANCH   5  29
HETATM   29  C   UNL     1     -22.064 -10.988  -1.315  1.00  0.00     0.149 C 
HETATM   30  O   UNL     1     -22.249 -11.113  -2.537  1.00  0.00    -0.649 OA
BRANCH  29  31
HETATM   31  O   UNL     1     -22.987 -11.440  -0.452  1.00  0.00    -0.776 OA
HETATM   32  H   UNL     1     -22.601 -11.793   0.353  1.00  0.00     0.167 HD
ENDBRANCH  29  31
ENDBRANCH   5  29
BRANCH  21  33
HETATM   33  C   UNL     1     -15.872 -13.452  -6.921  1.00  0.00     0.176 C 
BRANCH  33  34
HETATM   34  O   UNL     1     -15.361 -12.119  -6.911  1.00  0.00    -0.400 OA
HETATM   35  H   UNL     1     -15.943 -11.561  -6.351  1.00  0.00     0.209 HD
ENDBRANCH  33  34
ENDBRANCH  21  33
BRANCH  19  36
HETATM   36  O   UNL     1     -13.043 -15.511  -4.065  1.00  0.00    -0.393 OA
HETATM   37  H   UNL     1     -12.863 -15.776  -3.148  1.00  0.00     0.210 HD
ENDBRANCH  19  36
BRANCH  20  38
HETATM   38  O   UNL     1     -12.900 -13.975  -6.495  1.00  0.00    -0.392 OA
HETATM   39  H   UNL     1     -12.938 -13.212  -7.108  1.00  0.00     0.210 HD
ENDBRANCH  20  38
TORSDOF 6
BEGIN_RES ARG D 557
REMARK  4 active torsions:
REMARK  status: ('A' for Active; 'I' for Inactive)
REMARK    1  A    between atoms: CA   and  CB  
REMARK    2  A    between atoms: CB   and  CG  
REMARK    3  A    between atoms: CG   and  CD  
REMARK    4  A    between atoms: CD   and  NE  
REMARK       I    between atoms: NE   and  CZ  
REMARK       I    between atoms: CZ   and  NH1 
REMARK       I    between atoms: CZ   and  NH2 
ROOT
ATOM      1  CA  ARG D 557     -26.217   2.705 -17.014  1.00 35.49     0.159 C 
ENDROOT
BRANCH   1   2
ATOM      2  CB  ARG D 557     -26.789   1.319 -17.183  1.00 35.49     0.034 C 
BRANCH   2   3
ATOM      3  CG  ARG D 557     -28.221   1.157 -16.903  1.00 35.49     0.027 C 
BRANCH   3   4
ATOM      4  CD  ARG D 557     -28.619  -0.267 -16.808  1.00 35.49     0.116 C 
BRANCH   4   5
ATOM      5  NE  ARG D 557     -27.643  -1.057 -16.105  1.00 35.49    -0.212 N 
ATOM      6  CZ  ARG D 557     -27.516  -2.363 -16.178  1.00 35.49     0.666 C 
ATOM      7  NH1 ARG D 557     -28.310  -3.113 -16.920  1.00 35.49    -0.235 N 
ATOM      8  NH2 ARG D 557     -26.559  -2.912 -15.488  1.00 35.49    -0.235 N 
ATOM      9  HH  ARG D 557     -28.944  -2.772 -17.385  1.00 35.49     0.174 HD
ATOM     10  HH  ARG D 557     -28.177  -3.959 -16.931  1.00 35.49     0.174 HD
ATOM     11  HH  ARG D 557     -26.057  -2.403 -15.023  1.00 35.49     0.174 HD
ATOM     12  HH  ARG D 557     -26.443  -3.752 -15.513  1.00 35.49     0.174 HD
ATOM     13  HE  ARG D 557     -27.136  -0.663 -15.547  1.00 35.49     0.178 HD
ENDBRANCH   4   5
ENDBRANCH   3   4
ENDBRANCH   2   3
ENDBRANCH   1   2
END_RES ARG D 557
BEGIN_RES GLU D 570
REMARK  3 active torsions:
REMARK  status: ('A' for Active; 'I' for Inactive)
REMARK    5  A    between atoms: CA   and  CB  
REMARK    6  A    between atoms: CB   and  CG  
REMARK    7  A    between atoms: CG   and  CD  
ROOT
ATOM     14  CA  GLU D 570     -18.033  -6.348 -13.375  1.00 32.92     0.160 C 
ENDROOT
BRANCH  14  15
ATOM     15  CB  GLU D 570     -19.500  -6.345 -13.794  1.00 32.92     0.043 C 
BRANCH  15  16
ATOM     16  CG  GLU D 570     -20.448  -5.559 -12.963  1.00 32.92     0.100 C 
BRANCH  16  17
ATOM     17  CD  GLU D 570     -21.708  -5.179 -13.705  1.00 32.92     0.185 C 
ATOM     18  OE1 GLU D 570     -21.706  -5.201 -14.951  1.00 32.92    -0.647 OA
ATOM     19  OE2 GLU D 570     -22.702  -4.840 -13.033  1.00 32.92    -0.647 OA
ENDBRANCH  16  17
ENDBRANCH  15  16
ENDBRANCH  14  15
END_RES GLU D 570
ENDMDL
MODEL 3
REMARK VINA RESULT:      -7.0      1.419      1.968
REMARK  6 active torsions:
REMARK  status: ('A' for Active; 'I' for Inactive)
REMARK    1  A    between atoms: C_5  and  C_33 
REMARK    2  A    between atoms: C_19  and  O_26 
REMARK    3  A    between atoms: C_20  and  O_25 
REMARK    4  A    between atoms: C_21  and  C_23 
REMARK    5  A    between atoms: C_23  and  O_24 
REMARK    6  A    between atoms: C_33  and  O_35 
ROOT
HETATM    1  C   UNL     1     -22.356  -5.975  -5.684  1.00  0.00     0.010 C 
HETATM    2  C   UNL     1     -21.280  -6.592  -4.779  1.00  0.00    -0.014 C 
HETATM    3  C   UNL     1     -21.924  -6.785  -3.402  1.00  0.00     0.006 C 
HETATM    4  C   UNL     1     -20.852  -7.148  -2.387  1.00  0.00     0.021 C 
HETATM    5  C   UNL     1     -20.320  -8.549  -2.707  1.00  0.00     0.053 C 
HETATM    6  C   UNL     1     -19.339  -8.997  -1.630  1.00  0.00     0.022 C 
HETATM    7  C   UNL     1     -18.891 -10.426  -1.951  1.00  0.00     0.016 C 
HETATM    8  C   UNL     1     -18.010 -10.444  -3.190  1.00  0.00    -0.013 C 
HETATM    9  C   UNL     1     -18.356  -9.512  -4.373  1.00  0.00    -0.069 C 
HETATM   10  C   UNL     1     -17.518  -9.720  -5.460  1.00  0.00    -0.022 C 
HETATM   11  C   UNL     1     -16.447 -10.997  -5.611  1.00  0.00     0.033 C 
HETATM   12  C   UNL     1     -16.437 -11.938  -4.338  1.00  0.00     0.007 C 
HETATM   13  C   UNL     1     -17.934 -11.929  -3.901  1.00  0.00    -0.028 C 
HETATM   14  C   UNL     1     -18.325 -13.257  -3.203  1.00  0.00     0.011 C 
HETATM   15  C   UNL     1     -17.686 -14.512  -3.905  1.00  0.00     0.007 C 
HETATM   16  C   UNL     1     -16.133 -14.521  -4.102  1.00  0.00     0.007 C 
HETATM   17  C   UNL     1     -15.543 -13.154  -3.714  1.00  0.00    -0.033 C 
HETATM   18  C   UNL     1     -13.994 -12.977  -3.903  1.00  0.00     0.044 C 
HETATM   19  C   UNL     1     -13.279 -14.086  -4.646  1.00  0.00     0.148 C 
HETATM   20  C   UNL     1     -14.148 -14.546  -5.802  1.00  0.00     0.157 C 
HETATM   21  C   UNL     1     -15.512 -15.202  -5.397  1.00  0.00     0.010 C 
HETATM   22  C   UNL     1     -15.321 -16.718  -5.088  1.00  0.00     0.020 C 
HETATM   23  C   UNL     1     -15.581 -13.178  -2.103  1.00  0.00     0.016 C 
HETATM   24  C   UNL     1     -19.015 -12.044  -5.128  1.00  0.00     0.016 C 
HETATM   25  C   UNL     1     -19.549  -8.462  -4.127  1.00  0.00     0.038 C 
HETATM   26  C   UNL     1     -20.525  -7.899  -5.283  1.00  0.00    -0.005 C 
HETATM   27  C   UNL     1     -21.513  -8.897  -5.908  1.00  0.00     0.011 C 
HETATM   28  C   UNL     1     -16.654  -9.787  -2.599  1.00  0.00     0.021 C 
ENDROOT
BRANCH   5  29
HETATM   29  C   UNL     1     -21.557  -9.478  -2.437  1.00  0.00     0.149 C 
HETATM   30  O   UNL     1     -21.981 -10.288  -3.277  1.00  0.00    -0.649 OA
BRANCH  29  31
HETATM   31  O   UNL     1     -22.231  -9.290  -1.293  1.00  0.00    -0.776 OA
HETATM   32  H   UNL     1     -21.793  -8.675  -0.701  1.00  0.00     0.167 HD
ENDBRANCH  29  31
ENDBRANCH   5  29
BRANCH  21  33
HETATM   33  C   UNL     1     -16.419 -15.109  -6.649  1.00  0.00     0.176 C 
BRANCH  33  34
HETATM   34  O   UNL     1     -16.227 -16.189  -7.563  1.00  0.00    -0.400 OA
HETATM   35  H   UNL     1     -15.272 -16.252  -7.782  1.00  0.00     0.209 HD
ENDBRANCH  33  34
ENDBRANCH  21  33
BRANCH  19  36
HETATM   36  O   UNL     1     -12.901 -15.186  -3.818  1.00  0.00    -0.393 OA
HETATM   37  H   UNL     1     -13.689 -15.689  -3.555  1.00  0.00     0.210 HD
ENDBRANCH  19  36
BRANCH  20  38
HETATM   38  O   UNL     1     -13.387 -15.419  -6.644  1.00  0.00    -0.392 OA
HETATM   39  H   UNL     1     -13.964 -15.627  -7.409  1.00  0.00     0.210 HD
ENDBRANCH  20  38
TORSDOF 6
BEGIN_RES ARG D 557
REMARK  4 active torsions:
REMARK  status: ('A' for Active; 'I' for Inactive)
REMARK    1  A    between atoms: CA   and  CB  
REMARK    2  A    between atoms: CB   and  CG  
REMARK    3  A    between atoms: CG   and  CD  
REMARK    4  A    between atoms: CD   and  NE  
REMARK       I    between atoms: NE   and  CZ  
REMARK       I    between atoms: CZ   and  NH1 
REMARK       I    between atoms: CZ   and  NH2 
ROOT
ATOM      1  CA  ARG D 557     -26.217   2.705 -17.014  1.00 35.49     0.159 C 
ENDROOT
BRANCH   1   2
ATOM      2  CB  ARG D 557     -26.789   1.319 -17.183  1.00 35.49     0.034 C 
BRANCH   2   3
ATOM      3  CG  ARG D 557     -25.837   0.202 -17.148  1.00 35.49     0.027 C 
BRANCH   3   4
ATOM      4  CD  ARG D 557     -24.758   0.412 -16.156  1.00 35.49     0.116 C 
BRANCH   4   5
ATOM      5  NE  ARG D 557     -24.902  -0.447 -15.009  1.00 35.49    -0.212 N 
ATOM      6  CZ  ARG D 557     -24.079  -1.411 -14.664  1.00 35.49     0.666 C 
ATOM      7  NH1 ARG D 557     -23.003  -1.712 -15.368  1.00 35.49    -0.235 N 
ATOM      8  NH2 ARG D 557     -24.354  -2.076 -13.579  1.00 35.49    -0.235 N 
ATOM      9  HH  ARG D 557     -22.801  -1.286 -16.083  1.00 35.49     0.174 HD
ATOM     10  HH  ARG D 557     -22.501  -2.349 -15.092  1.00 35.49     0.174 HD
ATOM     11  HH  ARG D 557     -25.052  -1.855 -13.141  1.00 35.49     0.174 HD
ATOM     12  HH  ARG D 557     -23.844  -2.703 -13.322  1.00 35.49     0.174 HD
ATOM     13  HE  ARG D 557     -25.607  -0.371 -14.540  1.00 35.49     0.178 HD
ENDBRANCH   4   5
ENDBRANCH   3   4
ENDBRANCH   2   3
ENDBRANCH   1   2
END_RES ARG D 557
BEGIN_RES GLU D 570
REMARK  3 active torsions:
REMARK  status: ('A' for Active; 'I' for Inactive)
REMARK    5  A    between atoms: CA   and  CB  
REMARK    6  A    between atoms: CB   and  CG  
REMARK    7  A    between atoms: CG   and  CD  
ROOT
ATOM     14  CA  GLU D 570     -18.033  -6.348 -13.375  1.00 32.92     0.160 C 
ENDROOT
BRANCH  14  15
ATOM     15  CB  GLU D 570     -19.500  -6.345 -13.794  1.00 32.92     0.043 C 
BRANCH  15  16
ATOM     16  CG  GLU D 570     -20.440  -5.524 -12.989  1.00 32.92     0.100 C 
BRANCH  16  17
ATOM     17  CD  GLU D 570     -21.708  -5.177 -13.734  1.00 32.92     0.185 C 
ATOM     18  OE1 GLU D 570     -22.111  -5.943 -14.631  1.00 32.92    -0.647 OA
ATOM     19  OE2 GLU D 570     -22.295  -4.120 -13.430  1.00 32.92    -0.647 OA
ENDBRANCH  16  17
ENDBRANCH  15  16
ENDBRANCH  14  15
END_RES GLU D 570
ENDMDL
MODEL 4
REMARK VINA RESULT:      -7.0      1.605      3.606
REMARK  6 active torsions:
REMARK  status: ('A' for Active; 'I' for Inactive)
REMARK    1  A    between atoms: C_5  and  C_33 
REMARK    2  A    between atoms: C_19  and  O_26 
REMARK    3  A    between atoms: C_20  and  O_25 
REMARK    4  A    between atoms: C_21  and  C_23 
REMARK    5  A    between atoms: C_23  and  O_24 
REMARK    6  A    between atoms: C_33  and  O_35 
ROOT
HETATM    1  C   UNL     1     -23.907 -13.765   1.610  1.00  0.00     0.010 C 
HETATM    2  C   UNL     1     -23.459 -13.054   0.326  1.00  0.00    -0.014 C 
HETATM    3  C   UNL     1     -23.773 -11.567   0.515  1.00  0.00     0.006 C 
HETATM    4  C   UNL     1     -23.600 -10.838  -0.808  1.00  0.00     0.021 C 
HETATM    5  C   UNL     1     -22.111 -10.822  -1.173  1.00  0.00     0.053 C 
HETATM    6  C   UNL     1     -21.887  -9.984  -2.427  1.00  0.00     0.022 C 
HETATM    7  C   UNL     1     -20.383  -9.936  -2.711  1.00  0.00     0.016 C 
HETATM    8  C   UNL     1     -19.881 -11.297  -3.162  1.00  0.00    -0.013 C 
HETATM    9  C   UNL     1     -20.449 -12.569  -2.493  1.00  0.00    -0.069 C 
HETATM   10  C   UNL     1     -19.818 -13.721  -2.946  1.00  0.00    -0.022 C 
HETATM   11  C   UNL     1     -18.429 -13.745  -3.879  1.00  0.00     0.033 C 
HETATM   12  C   UNL     1     -17.922 -12.294  -4.257  1.00  0.00     0.007 C 
HETATM   13  C   UNL     1     -18.254 -11.477  -2.971  1.00  0.00    -0.028 C 
HETATM   14  C   UNL     1     -17.258 -10.303  -2.778  1.00  0.00     0.011 C 
HETATM   15  C   UNL     1     -15.779 -10.710  -3.130  1.00  0.00     0.007 C 
HETATM   16  C   UNL     1     -15.514 -11.327  -4.543  1.00  0.00     0.007 C 
HETATM   17  C   UNL     1     -16.848 -11.590  -5.265  1.00  0.00    -0.033 C 
HETATM   18  C   UNL     1     -16.760 -12.259  -6.683  1.00  0.00     0.044 C 
HETATM   19  C   UNL     1     -15.398 -12.771  -7.098  1.00  0.00     0.148 C 
HETATM   20  C   UNL     1     -14.726 -13.416  -5.900  1.00  0.00     0.157 C 
HETATM   21  C   UNL     1     -14.401 -12.449  -4.712  1.00  0.00     0.010 C 
HETATM   22  C   UNL     1     -13.037 -11.731  -4.944  1.00  0.00     0.020 C 
HETATM   23  C   UNL     1     -17.315 -10.119  -5.728  1.00  0.00     0.016 C 
HETATM   24  C   UNL     1     -17.913 -12.237  -1.559  1.00  0.00     0.016 C 
HETATM   25  C   UNL     1     -21.667 -12.350  -1.467  1.00  0.00     0.038 C 
HETATM   26  C   UNL     1     -21.976 -13.297  -0.197  1.00  0.00    -0.005 C 
HETATM   27  C   UNL     1     -20.971 -13.255   0.964  1.00  0.00     0.011 C 
HETATM   28  C   UNL     1     -20.507 -11.365  -4.653  1.00  0.00     0.021 C 
ENDROOT
BRANCH   5  29
HETATM   29  C   UNL     1     -21.472  -9.924  -0.055  1.00  0.00     0.149 C 
HETATM   30  O   UNL     1     -20.513 -10.300   0.639  1.00  0.00    -0.649 OA
BRANCH  29  31
HETATM   31  O   UNL     1     -22.075  -8.757   0.218  1.00  0.00    -0.776 OA
HETATM   32  H   UNL     1     -21.455  -8.027   0.290  1.00  0.00     0.167 HD
ENDBRANCH  29  31
ENDBRANCH   5  29
BRANCH  21  33
HETATM   33  C   UNL     1     -14.227 -13.350  -3.464  1.00  0.00     0.176 C 
BRANCH  33  34
HETATM   34  O   UNL     1     -12.932 -13.942  -3.375  1.00  0.00    -0.400 OA
HETATM   35  H   UNL     1     -12.887 -14.700  -3.998  1.00  0.00     0.209 HD
ENDBRANCH  33  34
ENDBRANCH  21  33
BRANCH  19  36
HETATM   36  O   UNL     1     -14.559 -11.774  -7.684  1.00  0.00    -0.393 OA
HETATM   37  H   UNL     1     -13.681 -12.146  -7.868  1.00  0.00     0.210 HD
ENDBRANCH  19  36
BRANCH  20  38
HETATM   38  O   UNL     1     -13.549 -14.108  -6.336  1.00  0.00    -0.392 OA
HETATM   39  H   UNL     1     -13.825 -15.034  -6.499  1.00  0.00     0.210 HD
ENDBRANCH  20  38
TORSDOF 6
BEGIN_RES ARG D 557
REMARK  4 active torsions:
REMARK  status: ('A' for Active; 'I' for Inactive)
REMARK    1  A    between atoms: CA   and  CB  
REMARK    2  A    between atoms: CB   and  CG  
REMARK    3  A    between atoms: CG   and  CD  
REMARK    4  A    between atoms: CD   and  NE  
REMARK       I    between atoms: NE   and  CZ  
REMARK       I    between atoms: CZ   and  NH1 
REMARK       I    between atoms: CZ   and  NH2 
ROOT
ATOM      1  CA  ARG D 557     -26.217   2.705 -17.014  1.00 35.49     0.159 C 
ENDROOT
BRANCH   1   2
ATOM      2  CB  ARG D 557     -26.789   1.319 -17.183  1.00 35.49     0.034 C 
BRANCH   2   3
ATOM      3  CG  ARG D 557     -25.834   0.204 -17.169  1.00 35.49     0.027 C 
BRANCH   3   4
ATOM      4  CD  ARG D 557     -24.748   0.403 -16.182  1.00 35.49     0.116 C 
BRANCH   4   5
ATOM      5  NE  ARG D 557     -24.900  -0.446 -15.030  1.00 35.49    -0.212 N 
ATOM      6  CZ  ARG D 557     -24.086  -1.417 -14.680  1.00 35.49     0.666 C 
ATOM      7  NH1 ARG D 557     -23.014  -1.732 -15.383  1.00 35.49    -0.235 N 
ATOM      8  NH2 ARG D 557     -24.367  -2.072 -13.591  1.00 35.49    -0.235 N 
ATOM      9  HH  ARG D 557     -22.809  -1.313 -16.101  1.00 35.49     0.174 HD
ATOM     10  HH  ARG D 557     -22.518  -2.373 -15.104  1.00 35.49     0.174 HD
ATOM     11  HH  ARG D 557     -25.062  -1.841 -13.153  1.00 35.49     0.174 HD
ATOM     12  HH  ARG D 557     -23.863  -2.702 -13.330  1.00 35.49     0.174 HD
ATOM     13  HE  ARG D 557     -25.603  -0.360 -14.560  1.00 35.49     0.178 HD
ENDBRANCH   4   5
ENDBRANCH   3   4
ENDBRANCH   2   3
ENDBRANCH   1   2
END_RES ARG D 557
BEGIN_RES GLU D 570
REMARK  3 active torsions:
REMARK  status: ('A' for Active; 'I' for Inactive)
REMARK    5  A    between atoms: CA   and  CB  
REMARK    6  A    between atoms: CB   and  CG  
REMARK    7  A    between atoms: CG   and  CD  
ROOT
ATOM     14  CA  GLU D 570     -18.033  -6.348 -13.375  1.00 32.92     0.160 C 
ENDROOT
BRANCH  14  15
ATOM     15  CB  GLU D 570     -19.500  -6.345 -13.794  1.00 32.92     0.043 C 
BRANCH  15  16
ATOM     16  CG  GLU D 570     -20.442  -5.531 -12.983  1.00 32.92     0.100 C 
BRANCH  16  17
ATOM     17  CD  GLU D 570     -21.746  -5.255 -13.694  1.00 32.92     0.185 C 
ATOM     18  OE1 GLU D 570     -22.310  -4.158 -13.520  1.00 32.92    -0.647 OA
ATOM     19  OE2 GLU D 570     -22.217  -6.152 -14.421  1.00 32.92    -0.647 OA
ENDBRANCH  16  17
ENDBRANCH  15  16
ENDBRANCH  14  15
END_RES GLU D 570
ENDMDL
MODEL 5
REMARK VINA RESULT:      -7.0      2.246      7.376
REMARK  6 active torsions:
REMARK  status: ('A' for Active; 'I' for Inactive)
REMARK    1  A    between atoms: C_5  and  C_33 
REMARK    2  A    between atoms: C_19  and  O_26 
REMARK    3  A    between atoms: C_20  and  O_25 
REMARK    4  A    between atoms: C_21  and  C_23 
REMARK    5  A    between atoms: C_23  and  O_24 
REMARK    6  A    between atoms: C_33  and  O_35 
ROOT
HETATM    1  C   UNL     1     -14.710 -16.279  -5.911  1.00  0.00     0.010 C 
HETATM    2  C   UNL     1     -15.544 -15.012  -6.144  1.00  0.00    -0.014 C 
HETATM    3  C   UNL     1     -16.401 -15.274  -7.386  1.00  0.00     0.006 C 
HETATM    4  C   UNL     1     -17.058 -13.978  -7.832  1.00  0.00     0.021 C 
HETATM    5  C   UNL     1     -18.101 -13.565  -6.787  1.00  0.00     0.053 C 
HETATM    6  C   UNL     1     -18.872 -12.342  -7.268  1.00  0.00     0.022 C 
HETATM    7  C   UNL     1     -19.947 -12.012  -6.230  1.00  0.00     0.016 C 
HETATM    8  C   UNL     1     -19.313 -11.487  -4.952  1.00  0.00    -0.013 C 
HETATM    9  C   UNL     1     -17.995 -12.120  -4.451  1.00  0.00    -0.069 C 
HETATM   10  C   UNL     1     -17.601 -11.599  -3.226  1.00  0.00    -0.022 C 
HETATM   11  C   UNL     1     -18.549 -10.620  -2.254  1.00  0.00     0.033 C 
HETATM   12  C   UNL     1     -19.953 -10.288  -2.907  1.00  0.00     0.007 C 
HETATM   13  C   UNL     1     -20.304 -11.618  -3.642  1.00  0.00    -0.028 C 
HETATM   14  C   UNL     1     -21.839 -11.828  -3.721  1.00  0.00     0.011 C 
HETATM   15  C   UNL     1     -22.569 -11.411  -2.391  1.00  0.00     0.007 C 
HETATM   16  C   UNL     1     -22.317  -9.965  -1.848  1.00  0.00     0.007 C 
HETATM   17  C   UNL     1     -21.212  -9.276  -2.669  1.00  0.00    -0.033 C 
HETATM   18  C   UNL     1     -20.800  -7.829  -2.219  1.00  0.00     0.044 C 
HETATM   19  C   UNL     1     -21.373  -7.348  -0.903  1.00  0.00     0.148 C 
HETATM   20  C   UNL     1     -21.361  -8.496   0.090  1.00  0.00     0.157 C 
HETATM   21  C   UNL     1     -22.274  -9.713  -0.279  1.00  0.00     0.010 C 
HETATM   22  C   UNL     1     -23.737  -9.467   0.199  1.00  0.00     0.020 C 
HETATM   23  C   UNL     1     -21.958  -8.891  -4.044  1.00  0.00     0.016 C 
HETATM   24  C   UNL     1     -19.978 -12.984  -2.797  1.00  0.00     0.016 C 
HETATM   25  C   UNL     1     -17.304 -13.193  -5.429  1.00  0.00     0.038 C 
HETATM   26  C   UNL     1     -16.395 -14.432  -4.932  1.00  0.00    -0.005 C 
HETATM   27  C   UNL     1     -17.111 -15.560  -4.174  1.00  0.00     0.011 C 
HETATM   28  C   UNL     1     -18.844 -10.016  -5.436  1.00  0.00     0.021 C 
ENDROOT
BRANCH   5  29
HETATM   29  C   UNL     1     -19.182 -14.700  -6.885  1.00  0.00     0.149 C 
HETATM   30  O   UNL     1     -19.609 -15.127  -7.970  1.00  0.00    -0.649 OA
BRANCH  29  31
HETATM   31  O   UNL     1     -19.732 -15.128  -5.738  1.00  0.00    -0.776 OA
HETATM   32  H   UNL     1     -20.691 -15.141  -5.769  1.00  0.00     0.167 HD
ENDBRANCH  29  31
ENDBRANCH   5  29
BRANCH  21  33
HETATM   33  C   UNL     1     -21.733 -10.916   0.533  1.00  0.00     0.176 C 
BRANCH  33  34
HETATM   34  O   UNL     1     -20.416 -10.703   1.040  1.00  0.00    -0.400 OA
HETATM   35  H   UNL     1     -20.482 -10.329   1.945  1.00  0.00     0.209 HD
ENDBRANCH  33  34
ENDBRANCH  21  33
BRANCH  19  36
HETATM   36  O   UNL     1     -22.678  -6.779  -1.015  1.00  0.00    -0.393 OA
HETATM   37  H   UNL     1     -22.672  -5.869  -0.675  1.00  0.00     0.210 HD
ENDBRANCH  19  36
BRANCH  20  38
HETATM   38  O   UNL     1     -21.676  -7.993   1.394  1.00  0.00    -0.392 OA
HETATM   39  H   UNL     1     -22.544  -7.546   1.309  1.00  0.00     0.210 HD
ENDBRANCH  20  38
TORSDOF 6
BEGIN_RES ARG D 557
REMARK  4 active torsions:
REMARK  status: ('A' for Active; 'I' for Inactive)
REMARK    1  A    between atoms: CA   and  CB  
REMARK    2  A    between atoms: CB   and  CG  
REMARK    3  A    between atoms: CG   and  CD  
REMARK    4  A    between atoms: CD   and  NE  
REMARK       I    between atoms: NE   and  CZ  
REMARK       I    between atoms: CZ   and  NH1 
REMARK       I    between atoms: CZ   and  NH2 
ROOT
ATOM      1  CA  ARG D 557     -26.217   2.705 -17.014  1.00 35.49     0.159 C 
ENDROOT
BRANCH   1   2
ATOM      2  CB  ARG D 557     -26.789   1.319 -17.183  1.00 35.49     0.034 C 
BRANCH   2   3
ATOM      3  CG  ARG D 557     -25.839   0.201 -17.129  1.00 35.49     0.027 C 
BRANCH   3   4
ATOM      4  CD  ARG D 557     -24.759   0.426 -16.141  1.00 35.49     0.116 C 
BRANCH   4   5
ATOM      5  NE  ARG D 557     -24.884  -0.434 -14.994  1.00 35.49    -0.212 N 
ATOM      6  CZ  ARG D 557     -24.064  -1.409 -14.672  1.00 35.49     0.666 C 
ATOM      7  NH1 ARG D 557     -23.009  -1.719 -15.402  1.00 35.49    -0.235 N 
ATOM      8  NH2 ARG D 557     -24.320  -2.073 -13.583  1.00 35.49    -0.235 N 
ATOM      9  HH  ARG D 557     -22.820  -1.293 -16.122  1.00 35.49     0.174 HD
ATOM     10  HH  ARG D 557     -22.508  -2.363 -15.141  1.00 35.49     0.174 HD
ATOM     11  HH  ARG D 557     -25.005  -1.846 -13.127  1.00 35.49     0.174 HD
ATOM     12  HH  ARG D 557     -23.812  -2.707 -13.340  1.00 35.49     0.174 HD
ATOM     13  HE  ARG D 557     -25.577  -0.352 -14.507  1.00 35.49     0.178 HD
ENDBRANCH   4   5
ENDBRANCH   3   4
ENDBRANCH   2   3
ENDBRANCH   1   2
END_RES ARG D 557
BEGIN_RES GLU D 570
REMARK  3 active torsions:
REMARK  status: ('A' for Active; 'I' for Inactive)
REMARK    5  A    between atoms: CA   and  CB  
REMARK    6  A    between atoms: CB   and  CG  
REMARK    7  A    between atoms: CG   and  CD  
ROOT
ATOM     14  CA  GLU D 570     -18.033  -6.348 -13.375  1.00 32.92     0.160 C 
ENDROOT
BRANCH  14  15
ATOM     15  CB  GLU D 570     -19.500  -6.345 -13.794  1.00 32.92     0.043 C 
BRANCH  15  16
ATOM     16  CG  GLU D 570     -20.446  -5.549 -12.970  1.00 32.92     0.100 C 
BRANCH  16  17
ATOM     17  CD  GLU D 570     -21.728  -5.219 -13.697  1.00 32.92     0.185 C 
ATOM     18  OE1 GLU D 570     -22.190  -6.041 -14.513  1.00 32.92    -0.647 OA
ATOM     19  OE2 GLU D 570     -22.268  -4.120 -13.462  1.00 32.92    -0.647 OA
ENDBRANCH  16  17
ENDBRANCH  15  16
ENDBRANCH  14  15
END_RES GLU D 570
ENDMDL
MODEL 6
REMARK VINA RESULT:      -6.1      1.741      7.297
REMARK  6 active torsions:
REMARK  status: ('A' for Active; 'I' for Inactive)
REMARK    1  A    between atoms: C_5  and  C_33 
REMARK    2  A    between atoms: C_19  and  O_26 
REMARK    3  A    between atoms: C_20  and  O_25 
REMARK    4  A    between atoms: C_21  and  C_23 
REMARK    5  A    between atoms: C_23  and  O_24 
REMARK    6  A    between atoms: C_33  and  O_35 
ROOT
HETATM    1  C   UNL     1     -12.277 -16.526   0.367  1.00  0.00     0.010 C 
HETATM    2  C   UNL     1     -12.767 -15.261  -0.352  1.00  0.00    -0.014 C 
HETATM    3  C   UNL     1     -12.304 -15.378  -1.807  1.00  0.00     0.006 C 
HETATM    4  C   UNL     1     -12.523 -14.052  -2.518  1.00  0.00     0.021 C 
HETATM    5  C   UNL     1     -14.030 -13.810  -2.664  1.00  0.00     0.053 C 
HETATM    6  C   UNL     1     -14.283 -12.554  -3.489  1.00  0.00     0.022 C 
HETATM    7  C   UNL     1     -15.796 -12.395  -3.670  1.00  0.00     0.016 C 
HETATM    8  C   UNL     1     -16.455 -12.028  -2.351  1.00  0.00    -0.013 C 
HETATM    9  C   UNL     1     -15.949 -12.687  -1.048  1.00  0.00    -0.069 C 
HETATM   10  C   UNL     1     -16.718 -12.324   0.051  1.00  0.00    -0.022 C 
HETATM   11  C   UNL     1     -18.178 -11.510  -0.032  1.00  0.00     0.033 C 
HETATM   12  C   UNL     1     -18.582 -11.131  -1.515  1.00  0.00     0.007 C 
HETATM   13  C   UNL     1     -18.070 -12.359  -2.327  1.00  0.00    -0.028 C 
HETATM   14  C   UNL     1     -18.935 -12.598  -3.592  1.00  0.00     0.011 C 
HETATM   15  C   UNL     1     -20.469 -12.382  -3.316  1.00  0.00     0.007 C 
HETATM   16  C   UNL     1     -20.909 -11.015  -2.694  1.00  0.00     0.007 C 
HETATM   17  C   UNL     1     -19.671 -10.194  -2.292  1.00  0.00    -0.033 C 
HETATM   18  C   UNL     1     -19.939  -8.809  -1.601  1.00  0.00     0.044 C 
HETATM   19  C   UNL     1     -21.373  -8.524  -1.208  1.00  0.00     0.148 C 
HETATM   20  C   UNL     1     -21.995  -9.793  -0.656  1.00  0.00     0.157 C 
HETATM   21  C   UNL     1     -22.129 -10.974  -1.676  1.00  0.00     0.010 C 
HETATM   22  C   UNL     1     -23.437 -10.833  -2.512  1.00  0.00     0.020 C 
HETATM   23  C   UNL     1     -19.114  -9.649  -3.702  1.00  0.00     0.016 C 
HETATM   24  C   UNL     1     -18.357 -13.817  -1.635  1.00  0.00     0.016 C 
HETATM   25  C   UNL     1     -14.634 -13.601  -1.177  1.00  0.00     0.038 C 
HETATM   26  C   UNL     1     -14.305 -14.871  -0.235  1.00  0.00    -0.005 C 
HETATM   27  C   UNL     1     -15.199 -16.109  -0.397  1.00  0.00     0.011 C 
HETATM   28  C   UNL     1     -15.968 -10.494  -2.191  1.00  0.00     0.021 C 
ENDROOT
BRANCH   5  29
HETATM   29  C   UNL     1     -14.488 -14.950  -3.642  1.00  0.00     0.149 C 
HETATM   30  O   UNL     1     -13.881 -15.213  -4.694  1.00  0.00    -0.649 OA
BRANCH  29  31
HETATM   31  O   UNL     1     -15.645 -15.571  -3.367  1.00  0.00    -0.776 OA
HETATM   32  H   UNL     1     -16.345 -15.340  -3.980  1.00  0.00     0.167 HD
ENDBRANCH  29  31
ENDBRANCH   5  29
BRANCH  21  33
HETATM   33  C   UNL     1     -22.276 -12.259  -0.824  1.00  0.00     0.176 C 
BRANCH  33  34
HETATM   34  O   UNL     1     -21.903 -12.075   0.541  1.00  0.00    -0.400 OA
HETATM   35  H   UNL     1     -21.564 -12.926   0.894  1.00  0.00     0.209 HD
ENDBRANCH  33  34
ENDBRANCH  21  33
BRANCH  19  36
HETATM   36  O   UNL     1     -22.164  -7.980  -2.264  1.00  0.00    -0.393 OA
HETATM   37  H   UNL     1     -22.161  -8.584  -3.025  1.00  0.00     0.210 HD
ENDBRANCH  19  36
BRANCH  20  38
HETATM   38  O   UNL     1     -23.262  -9.477  -0.066  1.00  0.00    -0.392 OA
HETATM   39  H   UNL     1     -23.067  -8.901   0.702  1.00  0.00     0.210 HD
ENDBRANCH  20  38
TORSDOF 6
BEGIN_RES ARG D 557
REMARK  4 active torsions:
REMARK  status: ('A' for Active; 'I' for Inactive)
REMARK    1  A    between atoms: CA   and  CB  
REMARK    2  A    between atoms: CB   and  CG  
REMARK    3  A    between atoms: CG   and  CD  
REMARK    4  A    between atoms: CD   and  NE  
REMARK       I    between atoms: NE   and  CZ  
REMARK       I    between atoms: CZ   and  NH1 
REMARK       I    between atoms: CZ   and  NH2 
ROOT
ATOM      1  CA  ARG D 557     -26.217   2.705 -17.014  1.00 35.49     0.159 C 
ENDROOT
BRANCH   1   2
ATOM      2  CB  ARG D 557     -26.789   1.319 -17.183  1.00 35.49     0.034 C 
BRANCH   2   3
ATOM      3  CG  ARG D 557     -25.865   0.195 -16.989  1.00 35.49     0.027 C 
BRANCH   3   4
ATOM      4  CD  ARG D 557     -26.271  -0.682 -15.866  1.00 35.49     0.116 C 
BRANCH   4   5
ATOM      5  NE  ARG D 557     -25.202  -0.889 -14.925  1.00 35.49    -0.212 N 
ATOM      6  CZ  ARG D 557     -24.889  -2.032 -14.358  1.00 35.49     0.666 C 
ATOM      7  NH1 ARG D 557     -25.557  -3.146 -14.591  1.00 35.49    -0.235 N 
ATOM      8  NH2 ARG D 557     -23.873  -2.040 -13.544  1.00 35.49    -0.235 N 
ATOM      9  HH  ARG D 557     -26.228  -3.164 -15.125  1.00 35.49     0.174 HD
ATOM     10  HH  ARG D 557     -25.306  -3.862 -14.194  1.00 35.49     0.174 HD
ATOM     11  HH  ARG D 557     -23.455  -1.307 -13.418  1.00 35.49     0.174 HD
ATOM     12  HH  ARG D 557     -23.638  -2.759 -13.162  1.00 35.49     0.174 HD
ATOM     13  HE  ARG D 557     -24.765  -0.208 -14.662  1.00 35.49     0.178 HD
ENDBRANCH   4   5
ENDBRANCH   3   4
ENDBRANCH   2   3
ENDBRANCH   1   2
END_RES ARG D 557
BEGIN_RES GLU D 570
REMARK  3 active torsions:
REMARK  status: ('A' for Active; 'I' for Inactive)
REMARK    5  A    between atoms: CA   and  CB  
REMARK    6  A    between atoms: CB   and  CG  
REMARK    7  A    between atoms: CG   and  CD  
ROOT
ATOM     14  CA  GLU D 570     -18.033  -6.348 -13.375  1.00 32.92     0.160 C 
ENDROOT
BRANCH  14  15
ATOM     15  CB  GLU D 570     -19.500  -6.345 -13.794  1.00 32.92     0.043 C 
BRANCH  15  16
ATOM     16  CG  GLU D 570     -20.446  -5.551 -12.969  1.00 32.92     0.100 C 
BRANCH  16  17
ATOM     17  CD  GLU D 570     -21.690  -5.145 -13.724  1.00 32.92     0.185 C 
ATOM     18  OE1 GLU D 570     -22.722  -4.865 -13.085  1.00 32.92    -0.647 OA
ATOM     19  OE2 GLU D 570     -21.636  -5.122 -14.970  1.00 32.92    -0.647 OA
ENDBRANCH  16  17
ENDBRANCH  15  16
ENDBRANCH  14  15
END_RES GLU D 570
ENDMDL
MODEL 7
REMARK VINA RESULT:      -6.0      2.065      3.067
REMARK  6 active torsions:
REMARK  status: ('A' for Active; 'I' for Inactive)
REMARK    1  A    between atoms: C_5  and  C_33 
REMARK    2  A    between atoms: C_19  and  O_26 
REMARK    3  A    between atoms: C_20  and  O_25 
REMARK    4  A    between atoms: C_21  and  C_23 
REMARK    5  A    between atoms: C_23  and  O_24 
REMARK    6  A    between atoms: C_33  and  O_35 
ROOT
HETATM    1  C   UNL     1     -20.442  -6.690  -6.015  1.00  0.00     0.010 C 
HETATM    2  C   UNL     1     -20.359  -7.592  -4.775  1.00  0.00    -0.014 C 
HETATM    3  C   UNL     1     -21.686  -8.351  -4.696  1.00  0.00     0.006 C 
HETATM    4  C   UNL     1     -21.783  -9.066  -3.357  1.00  0.00     0.021 C 
HETATM    5  C   UNL     1     -20.748 -10.196  -3.322  1.00  0.00     0.053 C 
HETATM    6  C   UNL     1     -20.909 -11.017  -2.048  1.00  0.00     0.022 C 
HETATM    7  C   UNL     1     -19.907 -12.174  -2.091  1.00  0.00     0.016 C 
HETATM    8  C   UNL     1     -18.486 -11.655  -1.941  1.00  0.00    -0.013 C 
HETATM    9  C   UNL     1     -18.091 -10.331  -2.632  1.00  0.00    -0.069 C 
HETATM   10  C   UNL     1     -16.739 -10.049  -2.481  1.00  0.00    -0.022 C 
HETATM   11  C   UNL     1     -15.601 -11.119  -1.880  1.00  0.00     0.033 C 
HETATM   12  C   UNL     1     -16.237 -12.499  -1.434  1.00  0.00     0.007 C 
HETATM   13  C   UNL     1     -17.354 -12.715  -2.500  1.00  0.00    -0.028 C 
HETATM   14  C   UNL     1     -17.611 -14.224  -2.748  1.00  0.00     0.011 C 
HETATM   15  C   UNL     1     -16.279 -15.060  -2.779  1.00  0.00     0.007 C 
HETATM   16  C   UNL     1     -15.318 -14.940  -1.550  1.00  0.00     0.007 C 
HETATM   17  C   UNL     1     -15.812 -13.836  -0.598  1.00  0.00    -0.033 C 
HETATM   18  C   UNL     1     -14.927 -13.550   0.667  1.00  0.00     0.044 C 
HETATM   19  C   UNL     1     -13.577 -14.234   0.709  1.00  0.00     0.148 C 
HETATM   20  C   UNL     1     -12.966 -14.206  -0.680  1.00  0.00     0.157 C 
HETATM   21  C   UNL     1     -13.746 -15.011  -1.774  1.00  0.00     0.010 C 
HETATM   22  C   UNL     1     -13.333 -16.514  -1.749  1.00  0.00     0.020 C 
HETATM   23  C   UNL     1     -17.068 -14.520   0.143  1.00  0.00     0.016 C 
HETATM   24  C   UNL     1     -16.924 -12.350  -4.039  1.00  0.00     0.016 C 
HETATM   25  C   UNL     1     -19.283  -9.511  -3.334  1.00  0.00     0.038 C 
HETATM   26  C   UNL     1     -19.101  -8.553  -4.621  1.00  0.00    -0.005 C 
HETATM   27  C   UNL     1     -18.765  -9.236  -5.956  1.00  0.00     0.011 C 
HETATM   28  C   UNL     1     -18.479 -11.258  -0.372  1.00  0.00     0.021 C 
ENDROOT
BRANCH   5  29
HETATM   29  C   UNL     1     -21.259 -11.191  -4.425  1.00  0.00     0.149 C 
HETATM   30  O   UNL     1     -22.430 -11.601  -4.467  1.00  0.00    -0.649 OA
BRANCH  29  31
HETATM   31  O   UNL     1     -20.347 -11.689  -5.275  1.00  0.00    -0.776 OA
HETATM   32  H   UNL     1     -20.229 -12.637  -5.178  1.00  0.00     0.167 HD
ENDBRANCH  29  31
ENDBRANCH   5  29
BRANCH  21  33
HETATM   33  C   UNL     1     -13.282 -14.440  -3.137  1.00  0.00     0.176 C 
BRANCH  33  34
HETATM   34  O   UNL     1     -12.905 -13.065  -3.071  1.00  0.00    -0.400 OA
HETATM   35  H   UNL     1     -12.727 -12.830  -2.134  1.00  0.00     0.209 HD
ENDBRANCH  33  34
ENDBRANCH  21  33
BRANCH  19  36
HETATM   36  O   UNL     1     -13.620 -15.565   1.225  1.00  0.00    -0.393 OA
HETATM   37  H   UNL     1     -13.762 -15.543   2.185  1.00  0.00     0.210 HD
ENDBRANCH  19  36
BRANCH  20  38
HETATM   38  O   UNL     1     -11.601 -14.633  -0.602  1.00  0.00    -0.392 OA
HETATM   39  H   UNL     1     -11.482 -15.289  -1.321  1.00  0.00     0.210 HD
ENDBRANCH  20  38
TORSDOF 6
BEGIN_RES ARG D 557
REMARK  4 active torsions:
REMARK  status: ('A' for Active; 'I' for Inactive)
REMARK    1  A    between atoms: CA   and  CB  
REMARK    2  A    between atoms: CB   and  CG  
REMARK    3  A    between atoms: CG   and  CD  
REMARK    4  A    between atoms: CD   and  NE  
REMARK       I    between atoms: NE   and  CZ  
REMARK       I    between atoms: CZ   and  NH1 
REMARK       I    between atoms: CZ   and  NH2 
ROOT
ATOM      1  CA  ARG D 557     -26.217   2.705 -17.014  1.00 35.49     0.159 C 
ENDROOT
BRANCH   1   2
ATOM      2  CB  ARG D 557     -26.789   1.319 -17.183  1.00 35.49     0.034 C 
BRANCH   2   3
ATOM      3  CG  ARG D 557     -25.874   0.194 -16.953  1.00 35.49     0.027 C 
BRANCH   3   4
ATOM      4  CD  ARG D 557     -26.330  -0.688 -15.854  1.00 35.49     0.116 C 
BRANCH   4   5
ATOM      5  NE  ARG D 557     -25.287  -0.946 -14.897  1.00 35.49    -0.212 N 
ATOM      6  CZ  ARG D 557     -25.008  -2.113 -14.361  1.00 35.49     0.666 C 
ATOM      7  NH1 ARG D 557     -25.690  -3.206 -14.647  1.00 35.49    -0.235 N 
ATOM      8  NH2 ARG D 557     -24.011  -2.167 -13.526  1.00 35.49    -0.235 N 
ATOM      9  HH  ARG D 557     -26.349  -3.194 -15.196  1.00 35.49     0.174 HD
ATOM     10  HH  ARG D 557     -25.461  -3.940 -14.269  1.00 35.49     0.174 HD
ATOM     11  HH  ARG D 557     -23.584  -1.446 -13.366  1.00 35.49     0.174 HD
ATOM     12  HH  ARG D 557     -23.799  -2.903 -13.163  1.00 35.49     0.174 HD
ATOM     13  HE  ARG D 557     -24.844  -0.283 -14.601  1.00 35.49     0.178 HD
ENDBRANCH   4   5
ENDBRANCH   3   4
ENDBRANCH   2   3
ENDBRANCH   1   2
END_RES ARG D 557
BEGIN_RES GLU D 570
REMARK  3 active torsions:
REMARK  status: ('A' for Active; 'I' for Inactive)
REMARK    5  A    between atoms: CA   and  CB  
REMARK    6  A    between atoms: CB   and  CG  
REMARK    7  A    between atoms: CG   and  CD  
ROOT
ATOM     14  CA  GLU D 570     -18.033  -6.348 -13.375  1.00 32.92     0.160 C 
ENDROOT
BRANCH  14  15
ATOM     15  CB  GLU D 570     -19.500  -6.345 -13.794  1.00 32.92     0.043 C 
BRANCH  15  16
ATOM     16  CG  GLU D 570     -20.442  -5.533 -12.982  1.00 32.92     0.100 C 
BRANCH  16  17
ATOM     17  CD  GLU D 570     -21.699  -5.161 -13.733  1.00 32.92     0.185 C 
ATOM     18  OE1 GLU D 570     -22.720  -4.853 -13.090  1.00 32.92    -0.647 OA
ATOM     19  OE2 GLU D 570     -21.667  -5.194 -14.979  1.00 32.92    -0.647 OA
ENDBRANCH  16  17
ENDBRANCH  15  16
ENDBRANCH  14  15
END_RES GLU D 570
ENDMDL
MODEL 8
REMARK VINA RESULT:      -5.7     15.777     21.950
REMARK  6 active torsions:
REMARK  status: ('A' for Active; 'I' for Inactive)
REMARK    1  A    between atoms: C_5  and  C_33 
REMARK    2  A    between atoms: C_19  and  O_26 
REMARK    3  A    between atoms: C_20  and  O_25 
REMARK    4  A    between atoms: C_21  and  C_23 
REMARK    5  A    between atoms: C_23  and  O_24 
REMARK    6  A    between atoms: C_33  and  O_35 
ROOT
HETATM    1  C   UNL     1     -21.429   8.594  -4.061  1.00  0.00     0.010 C 
HETATM    2  C   UNL     1     -22.763   9.254  -3.687  1.00  0.00    -0.014 C 
HETATM    3  C   UNL     1     -23.831   8.624  -4.585  1.00  0.00     0.006 C 
HETATM    4  C   UNL     1     -25.129   9.406  -4.457  1.00  0.00     0.021 C 
HETATM    5  C   UNL     1     -25.702   9.189  -3.052  1.00  0.00     0.053 C 
HETATM    6  C   UNL     1     -27.069   9.852  -2.935  1.00  0.00     0.022 C 
HETATM    7  C   UNL     1     -27.634   9.547  -1.544  1.00  0.00     0.016 C 
HETATM    8  C   UNL     1     -26.846  10.286  -0.474  1.00  0.00    -0.013 C 
HETATM    9  C   UNL     1     -25.312  10.411  -0.621  1.00  0.00    -0.069 C 
HETATM   10  C   UNL     1     -24.733  11.023   0.483  1.00  0.00    -0.022 C 
HETATM   11  C   UNL     1     -25.524  11.341   1.924  1.00  0.00     0.033 C 
HETATM   12  C   UNL     1     -27.050  10.920   1.889  1.00  0.00     0.007 C 
HETATM   13  C   UNL     1     -27.020   9.622   1.024  1.00  0.00    -0.028 C 
HETATM   14  C   UNL     1     -28.161   8.652   1.427  1.00  0.00     0.011 C 
HETATM   15  C   UNL     1     -28.372   8.591   2.985  1.00  0.00     0.007 C 
HETATM   16  C   UNL     1     -28.614   9.942   3.737  1.00  0.00     0.007 C 
HETATM   17  C   UNL     1     -28.404  11.127   2.777  1.00  0.00    -0.033 C 
HETATM   18  C   UNL     1     -28.558  12.565   3.390  1.00  0.00     0.044 C 
HETATM   19  C   UNL     1     -28.683  12.640   4.897  1.00  0.00     0.148 C 
HETATM   20  C   UNL     1     -27.733  11.635   5.522  1.00  0.00     0.157 C 
HETATM   21  C   UNL     1     -28.044  10.132   5.208  1.00  0.00     0.010 C 
HETATM   22  C   UNL     1     -29.106   9.572   6.202  1.00  0.00     0.020 C 
HETATM   23  C   UNL     1     -29.738  11.112   1.873  1.00  0.00     0.016 C 
HETATM   24  C   UNL     1     -25.785   8.596   1.355  1.00  0.00     0.016 C 
HETATM   25  C   UNL     1     -24.684   9.879  -2.001  1.00  0.00     0.038 C 
HETATM   26  C   UNL     1     -23.194   9.274  -2.155  1.00  0.00    -0.005 C 
HETATM   27  C   UNL     1     -22.922   7.916  -1.491  1.00  0.00     0.011 C 
HETATM   28  C   UNL     1     -27.355  11.802  -0.724  1.00  0.00     0.021 C 
ENDROOT
BRANCH   5  29
HETATM   29  C   UNL     1     -26.070   7.663  -3.042  1.00  0.00     0.149 C 
HETATM   30  O   UNL     1     -25.583   6.862  -2.227  1.00  0.00    -0.649 OA
BRANCH  29  31
HETATM   31  O   UNL     1     -26.856   7.211  -4.031  1.00  0.00    -0.776 OA
HETATM   32  H   UNL     1     -27.658   7.729  -4.134  1.00  0.00     0.167 HD
ENDBRANCH  29  31
ENDBRANCH   5  29
BRANCH  21  33
HETATM   33  C   UNL     1     -26.729   9.359   5.475  1.00  0.00     0.176 C 
BRANCH  33  34
HETATM   34  O   UNL     1     -25.566  10.182   5.389  1.00  0.00    -0.400 OA
HETATM   35  H   UNL     1     -24.769   9.610   5.428  1.00  0.00     0.209 HD
ENDBRANCH  33  34
ENDBRANCH  21  33
BRANCH  19  36
HETATM   36  O   UNL     1     -30.015  12.456   5.377  1.00  0.00    -0.393 OA
HETATM   37  H   UNL     1     -30.438  11.720   4.905  1.00  0.00     0.210 HD
ENDBRANCH  19  36
BRANCH  20  38
HETATM   38  O   UNL     1     -27.669  11.863   6.935  1.00  0.00    -0.392 OA
HETATM   39  H   UNL     1     -27.879  11.004   7.357  1.00  0.00     0.210 HD
ENDBRANCH  20  38
TORSDOF 6
BEGIN_RES ARG D 557
REMARK  4 active torsions:
REMARK  status: ('A' for Active; 'I' for Inactive)
REMARK    1  A    between atoms: CA   and  CB  
REMARK    2  A    between atoms: CB   and  CG  
REMARK    3  A    between atoms: CG   and  CD  
REMARK    4  A    between atoms: CD   and  NE  
REMARK       I    between atoms: NE   and  CZ  
REMARK       I    between atoms: CZ   and  NH1 
REMARK       I    between atoms: CZ   and  NH2 
ROOT
ATOM      1  CA  ARG D 557     -26.217   2.705 -17.014  1.00 35.49     0.159 C 
ENDROOT
BRANCH   1   2
ATOM      2  CB  ARG D 557     -26.789   1.319 -17.183  1.00 35.49     0.034 C 
BRANCH   2   3
ATOM      3  CG  ARG D 557     -25.835   0.203 -17.161  1.00 35.49     0.027 C 
BRANCH   3   4
ATOM      4  CD  ARG D 557     -24.747   0.411 -16.178  1.00 35.49     0.116 C 
BRANCH   4   5
ATOM      5  NE  ARG D 557     -24.893  -0.432 -15.021  1.00 35.49    -0.212 N 
ATOM      6  CZ  ARG D 557     -24.080  -1.403 -14.670  1.00 35.49     0.666 C 
ATOM      7  NH1 ARG D 557     -23.013  -1.726 -15.379  1.00 35.49    -0.235 N 
ATOM      8  NH2 ARG D 557     -24.355  -2.052 -13.576  1.00 35.49    -0.235 N 
ATOM      9  HH  ARG D 557     -22.812  -1.311 -16.101  1.00 35.49     0.174 HD
ATOM     10  HH  ARG D 557     -22.518  -2.367 -15.100  1.00 35.49     0.174 HD
ATOM     11  HH  ARG D 557     -25.046  -1.817 -13.135  1.00 35.49     0.174 HD
ATOM     12  HH  ARG D 557     -23.852  -2.682 -13.316  1.00 35.49     0.174 HD
ATOM     13  HE  ARG D 557     -25.593  -0.342 -14.546  1.00 35.49     0.178 HD
ENDBRANCH   4   5
ENDBRANCH   3   4
ENDBRANCH   2   3
ENDBRANCH   1   2
END_RES ARG D 557
BEGIN_RES GLU D 570
REMARK  3 active torsions:
REMARK  status: ('A' for Active; 'I' for Inactive)
REMARK    5  A    between atoms: CA   and  CB  
REMARK    6  A    between atoms: CB   and  CG  
REMARK    7  A    between atoms: CG   and  CD  
ROOT
ATOM     14  CA  GLU D 570     -18.033  -6.348 -13.375  1.00 32.92     0.160 C 
ENDROOT
BRANCH  14  15
ATOM     15  CB  GLU D 570     -19.500  -6.345 -13.794  1.00 32.92     0.043 C 
BRANCH  15  16
ATOM     16  CG  GLU D 570     -20.442  -5.530 -12.984  1.00 32.92     0.100 C 
BRANCH  16  17
ATOM     17  CD  GLU D 570     -21.741  -5.244 -13.700  1.00 32.92     0.185 C 
ATOM     18  OE1 GLU D 570     -22.308  -4.151 -13.512  1.00 32.92    -0.647 OA
ATOM     19  OE2 GLU D 570     -22.205  -6.130 -14.445  1.00 32.92    -0.647 OA
ENDBRANCH  16  17
ENDBRANCH  15  16
ENDBRANCH  14  15
END_RES GLU D 570
ENDMDL
MODEL 9
REMARK VINA RESULT:      -5.7      2.199      3.134
REMARK  6 active torsions:
REMARK  status: ('A' for Active; 'I' for Inactive)
REMARK    1  A    between atoms: C_5  and  C_33 
REMARK    2  A    between atoms: C_19  and  O_26 
REMARK    3  A    between atoms: C_20  and  O_25 
REMARK    4  A    between atoms: C_21  and  C_23 
REMARK    5  A    between atoms: C_23  and  O_24 
REMARK    6  A    between atoms: C_33  and  O_35 
ROOT
HETATM    1  C   UNL     1     -22.802  -7.853   0.245  1.00  0.00     0.010 C 
HETATM    2  C   UNL     1     -22.375  -9.322   0.379  1.00  0.00    -0.014 C 
HETATM    3  C   UNL     1     -23.472 -10.160  -0.284  1.00  0.00     0.006 C 
HETATM    4  C   UNL     1     -23.252 -11.629   0.036  1.00  0.00     0.021 C 
HETATM    5  C   UNL     1     -21.985 -12.109  -0.682  1.00  0.00     0.053 C 
HETATM    6  C   UNL     1     -21.808 -13.610  -0.490  1.00  0.00     0.022 C 
HETATM    7  C   UNL     1     -20.575 -14.055  -1.282  1.00  0.00     0.016 C 
HETATM    8  C   UNL     1     -19.306 -13.516  -0.642  1.00  0.00    -0.013 C 
HETATM    9  C   UNL     1     -19.309 -12.089  -0.051  1.00  0.00    -0.069 C 
HETATM   10  C   UNL     1     -18.052 -11.712   0.404  1.00  0.00    -0.022 C 
HETATM   11  C   UNL     1     -16.637 -12.556   0.110  1.00  0.00     0.033 C 
HETATM   12  C   UNL     1     -16.881 -13.890  -0.707  1.00  0.00     0.007 C 
HETATM   13  C   UNL     1     -18.028 -13.482  -1.681  1.00  0.00    -0.028 C 
HETATM   14  C   UNL     1     -17.953 -14.284  -3.007  1.00  0.00     0.011 C 
HETATM   15  C   UNL     1     -16.474 -14.463  -3.514  1.00  0.00     0.007 C 
HETATM   16  C   UNL     1     -15.438 -15.090  -2.523  1.00  0.00     0.007 C 
HETATM   17  C   UNL     1     -16.067 -15.242  -1.126  1.00  0.00    -0.033 C 
HETATM   18  C   UNL     1     -15.139 -15.812   0.005  1.00  0.00     0.044 C 
HETATM   19  C   UNL     1     -13.671 -15.948  -0.339  1.00  0.00     0.148 C 
HETATM   20  C   UNL     1     -13.240 -14.742  -1.153  1.00  0.00     0.157 C 
HETATM   21  C   UNL     1     -13.927 -14.596  -2.553  1.00  0.00     0.010 C 
HETATM   22  C   UNL     1     -13.175 -15.443  -3.624  1.00  0.00     0.020 C 
HETATM   23  C   UNL     1     -17.040 -16.515  -1.295  1.00  0.00     0.016 C 
HETATM   24  C   UNL     1     -17.867 -11.998  -2.359  1.00  0.00     0.016 C 
HETATM   25  C   UNL     1     -20.729 -11.335  -0.016  1.00  0.00     0.038 C 
HETATM   26  C   UNL     1     -20.918  -9.735  -0.110  1.00  0.00    -0.005 C 
HETATM   27  C   UNL     1     -20.582  -9.071  -1.455  1.00  0.00     0.011 C 
HETATM   28  C   UNL     1     -19.219 -14.451   0.676  1.00  0.00     0.021 C 
ENDROOT
BRANCH   5  29
HETATM   29  C   UNL     1     -22.368 -12.010  -2.201  1.00  0.00     0.149 C 
HETATM   30  O   UNL     1     -23.408 -12.507  -2.664  1.00  0.00    -0.649 OA
BRANCH  29  31
HETATM   31  O   UNL     1     -21.466 -11.462  -3.030  1.00  0.00    -0.776 OA
HETATM   32  H   UNL     1     -20.706 -11.103  -2.567  1.00  0.00     0.167 HD
ENDBRANCH  29  31
ENDBRANCH   5  29
BRANCH  21  33
HETATM   33  C   UNL     1     -13.762 -13.111  -2.958  1.00  0.00     0.176 C 
BRANCH  33  34
HETATM   34  O   UNL     1     -13.334 -12.941  -4.309  1.00  0.00    -0.400 OA
HETATM   35  H   UNL     1     -12.479 -13.408  -4.431  1.00  0.00     0.209 HD
ENDBRANCH  33  34
ENDBRANCH  21  33
BRANCH  19  36
HETATM   36  O   UNL     1     -13.345 -17.165  -1.011  1.00  0.00    -0.393 OA
HETATM   37  H   UNL     1     -12.380 -17.277  -1.043  1.00  0.00     0.210 HD
ENDBRANCH  19  36
BRANCH  20  38
HETATM   38  O   UNL     1     -11.813 -14.743  -1.278  1.00  0.00    -0.392 OA
HETATM   39  H   UNL     1     -11.584 -13.929  -1.774  1.00  0.00     0.210 HD
ENDBRANCH  20  38
TORSDOF 6
BEGIN_RES ARG D 557
REMARK  4 active torsions:
REMARK  status: ('A' for Active; 'I' for Inactive)
REMARK    1  A    between atoms: CA   and  CB  
REMARK    2  A    between atoms: CB   and  CG  
REMARK    3  A    between atoms: CG   and  CD  
REMARK    4  A    between atoms: CD   and  NE  
REMARK       I    between atoms: NE   and  CZ  
REMARK       I    between atoms: CZ   and  NH1 
REMARK       I    between atoms: CZ   and  NH2 
ROOT
ATOM      1  CA  ARG D 557     -26.217   2.705 -17.014  1.00 35.49     0.159 C 
ENDROOT
BRANCH   1   2
ATOM      2  CB  ARG D 557     -26.789   1.319 -17.183  1.00 35.49     0.034 C 
BRANCH   2   3
ATOM      3  CG  ARG D 557     -28.224   1.228 -17.480  1.00 35.49     0.027 C 
BRANCH   3   4
ATOM      4  CD  ARG D 557     -28.917   0.244 -16.617  1.00 35.49     0.116 C 
BRANCH   4   5
ATOM      5  NE  ARG D 557     -28.043  -0.819 -16.196  1.00 35.49    -0.212 N 
ATOM      6  CZ  ARG D 557     -28.120  -2.074 -16.579  1.00 35.49     0.666 C 
ATOM      7  NH1 ARG D 557     -29.051  -2.506 -17.409  1.00 35.49    -0.235 N 
ATOM      8  NH2 ARG D 557     -27.229  -2.899 -16.112  1.00 35.49    -0.235 N 
ATOM      9  HH  ARG D 557     -29.646  -1.979 -17.730  1.00 35.49     0.174 HD
ATOM     10  HH  ARG D 557     -29.050  -3.335 -17.626  1.00 35.49     0.174 HD
ATOM     11  HH  ARG D 557     -26.635  -2.591 -15.583  1.00 35.49     0.174 HD
ATOM     12  HH  ARG D 557     -27.244  -3.716 -16.339  1.00 35.49     0.174 HD
ATOM     13  HE  ARG D 557     -27.458  -0.644 -15.604  1.00 35.49     0.178 HD
ENDBRANCH   4   5
ENDBRANCH   3   4
ENDBRANCH   2   3
ENDBRANCH   1   2
END_RES ARG D 557
BEGIN_RES GLU D 570
REMARK  3 active torsions:
REMARK  status: ('A' for Active; 'I' for Inactive)
REMARK    5  A    between atoms: CA   and  CB  
REMARK    6  A    between atoms: CB   and  CG  
REMARK    7  A    between atoms: CG   and  CD  
ROOT
ATOM     14  CA  GLU D 570     -18.033  -6.348 -13.375  1.00 32.92     0.160 C 
ENDROOT
BRANCH  14  15
ATOM     15  CB  GLU D 570     -19.500  -6.345 -13.794  1.00 32.92     0.043 C 
BRANCH  15  16
ATOM     16  CG  GLU D 570     -20.444  -5.541 -12.975  1.00 32.92     0.100 C 
BRANCH  16  17
ATOM     17  CD  GLU D 570     -21.727  -5.216 -13.704  1.00 32.92     0.185 C 
ATOM     18  OE1 GLU D 570     -22.320  -4.152 -13.441  1.00 32.92    -0.647 OA
ATOM     19  OE2 GLU D 570     -22.152  -6.042 -14.536  1.00 32.92    -0.647 OA
ENDBRANCH  16  17
ENDBRANCH  15  16
ENDBRANCH  14  15
END_RES GLU D 570
ENDMDL
