MODEL 1
REMARK VINA RESULT:      -9.5      0.000      0.000
REMARK  8 active torsions:
REMARK  status: ('A' for Active; 'I' for Inactive)
REMARK    1  A    between atoms: C_1  and  N_2 
REMARK    2  A    between atoms: C_1  and  N_15 
REMARK       I    between atoms: N_2  and  C_3 
REMARK       I    between atoms: C_3  and  N_5 
REMARK    3  A    between atoms: N_5  and  C_6 
REMARK    4  A    between atoms: N_12  and  C_13 
REMARK    5  A    between atoms: C_13  and  O_14 
REMARK       I    between atoms: N_15  and  C_16 
REMARK       I    between atoms: C_16  and  N_18 
REMARK    6  A    between atoms: N_18  and  C_19 
REMARK    7  A    between atoms: N_25  and  C_26 
REMARK    8  A    between atoms: C_26  and  O_27 
ROOT
HETATM    1  C   UNL     1     -23.431  -6.217 -15.038  1.00  0.00     0.252 C 
ENDROOT
BRANCH   1   2
HETATM    2  N   UNL     1     -23.720  -6.093 -13.642  1.00  0.00    -0.327 N 
HETATM    3  C   UNL     1     -23.385  -4.936 -12.999  1.00  0.00     0.319 C 
HETATM    4  O   UNL     1     -22.713  -4.047 -13.504  1.00  0.00    -0.247 OA
HETATM    5  N   UNL     1     -23.810  -4.909 -11.704  1.00  0.00    -0.313 N 
HETATM    6  H   UNL     1     -24.424  -5.629 -11.358  1.00  0.00     0.166 HD
HETATM    7  H   UNL     1     -24.541  -6.582 -13.326  1.00  0.00     0.165 HD
BRANCH   5   8
HETATM    8  C   UNL     1     -23.414  -3.846 -10.827  1.00  0.00     0.288 C 
HETATM    9  C   UNL     1     -24.480  -3.484  -9.775  1.00  0.00     0.268 C 
HETATM   10  O   UNL     1     -25.670  -3.278  -9.977  1.00  0.00    -0.269 OA
HETATM   11  N   UNL     1     -23.870  -3.401  -8.563  1.00  0.00    -0.276 N 
HETATM   12  C   UNL     1     -22.573  -3.772  -8.663  1.00  0.00     0.328 C 
HETATM   13  H   UNL     1     -24.316  -3.123  -7.706  1.00  0.00     0.173 HD
HETATM   14  O   UNL     1     -21.753  -3.728  -7.760  1.00  0.00    -0.247 OA
HETATM   15  N   UNL     1     -22.324  -4.203  -9.955  1.00  0.00    -0.282 N 
BRANCH  15  16
HETATM   16  C   UNL     1     -20.988  -4.336 -10.461  1.00  0.00     0.297 C 
BRANCH  16  17
HETATM   17  O   UNL     1     -20.800  -3.362 -11.467  1.00  0.00    -0.382 OA
HETATM   18  H   UNL     1     -21.641  -3.343 -11.962  1.00  0.00     0.211 HD
ENDBRANCH  16  17
ENDBRANCH  15  16
ENDBRANCH   5   8
ENDBRANCH   1   2
BRANCH   1  19
HETATM   19  N   UNL     1     -24.534  -6.816 -15.741  1.00  0.00    -0.327 N 
HETATM   20  C   UNL     1     -25.566  -6.029 -16.167  1.00  0.00     0.319 C 
HETATM   21  O   UNL     1     -25.693  -4.848 -15.878  1.00  0.00    -0.247 OA
HETATM   22  N   UNL     1     -26.476  -6.722 -16.907  1.00  0.00    -0.313 N 
HETATM   23  H   UNL     1     -26.499  -7.724 -16.792  1.00  0.00     0.166 HD
HETATM   24  H   UNL     1     -24.285  -7.565 -16.370  1.00  0.00     0.165 HD
BRANCH  22  25
HETATM   25  C   UNL     1     -27.698  -6.083 -17.308  1.00  0.00     0.288 C 
HETATM   26  C   UNL     1     -28.091  -6.416 -18.761  1.00  0.00     0.268 C 
HETATM   27  O   UNL     1     -27.402  -6.280 -19.760  1.00  0.00    -0.269 OA
HETATM   28  N   UNL     1     -29.366  -6.883 -18.758  1.00  0.00    -0.276 N 
HETATM   29  C   UNL     1     -29.858  -6.914 -17.496  1.00  0.00     0.328 C 
HETATM   30  H   UNL     1     -29.902  -7.108 -19.578  1.00  0.00     0.173 HD
HETATM   31  O   UNL     1     -31.013  -7.163 -17.195  1.00  0.00    -0.247 OA
HETATM   32  N   UNL     1     -28.847  -6.598 -16.607  1.00  0.00    -0.282 N 
BRANCH  32  33
HETATM   33  C   UNL     1     -29.144  -6.165 -15.272  1.00  0.00     0.297 C 
BRANCH  33  34
HETATM   34  O   UNL     1     -28.534  -4.908 -15.075  1.00  0.00    -0.382 OA
HETATM   35  H   UNL     1     -29.043  -4.288 -15.634  1.00  0.00     0.211 HD
ENDBRANCH  33  34
ENDBRANCH  32  33
ENDBRANCH  22  25
ENDBRANCH   1  19
TORSDOF 8
BEGIN_RES ARG D 557
REMARK  4 active torsions:
REMARK  status: ('A' for Active; 'I' for Inactive)
REMARK    1  A    between atoms: CA   and  CB  
REMARK    2  A    between atoms: CB   and  CG  
REMARK    3  A    between atoms: CG   and  CD  
REMARK    4  A    between atoms: CD   and  NE  
REMARK       I    between atoms: NE   and  CZ  
REMARK       I    between atoms: CZ   and  NH1 
REMARK       I    between atoms: CZ   and  NH2 
ROOT
ATOM      1  CA  ARG D 557     -26.217   2.705 -17.014  1.00 35.49     0.159 C 
ENDROOT
BRANCH   1   2
ATOM      2  CB  ARG D 557     -26.789   1.319 -17.183  1.00 35.49     0.034 C 
BRANCH   2   3
ATOM      3  CG  ARG D 557     -28.238   1.224 -17.401  1.00 35.49     0.027 C 
BRANCH   3   4
ATOM      4  CD  ARG D 557     -28.889   0.285 -16.460  1.00 35.49     0.116 C 
BRANCH   4   5
ATOM      5  NE  ARG D 557     -29.320  -0.924 -17.112  1.00 35.49    -0.212 N 
ATOM      6  CZ  ARG D 557     -28.718  -2.091 -17.042  1.00 35.49     0.666 C 
ATOM      7  NH1 ARG D 557     -27.607  -2.275 -16.352  1.00 35.49    -0.235 N 
ATOM      8  NH2 ARG D 557     -29.261  -3.086 -17.681  1.00 35.49    -0.235 N 
ATOM      9  HH  ARG D 557     -27.234  -1.635 -15.922  1.00 35.49     0.174 HD
ATOM     10  HH  ARG D 557     -27.261  -3.059 -16.341  1.00 35.49     0.174 HD
ATOM     11  HH  ARG D 557     -29.982  -2.939 -18.112  1.00 35.49     0.174 HD
ATOM     12  HH  ARG D 557     -28.904  -3.854 -17.656  1.00 35.49     0.174 HD
ATOM     13  HE  ARG D 557     -29.987  -0.879 -17.637  1.00 35.49     0.178 HD
ENDBRANCH   4   5
ENDBRANCH   3   4
ENDBRANCH   2   3
ENDBRANCH   1   2
END_RES ARG D 557
BEGIN_RES GLU D 570
REMARK  3 active torsions:
REMARK  status: ('A' for Active; 'I' for Inactive)
REMARK    5  A    between atoms: CA   and  CB  
REMARK    6  A    between atoms: CB   and  CG  
REMARK    7  A    between atoms: CG   and  CD  
ROOT
ATOM     14  CA  GLU D 570     -18.033  -6.348 -13.375  1.00 32.92     0.160 C 
ENDROOT
BRANCH  14  15
ATOM     15  CB  GLU D 570     -19.500  -6.345 -13.794  1.00 32.92     0.043 C 
BRANCH  15  16
ATOM     16  CG  GLU D 570     -20.084  -7.632 -14.252  1.00 32.92     0.100 C 
BRANCH  16  17
ATOM     17  CD  GLU D 570     -20.435  -7.630 -15.722  1.00 32.92     0.185 C 
ATOM     18  OE1 GLU D 570     -20.828  -8.687 -16.251  1.00 32.92    -0.647 OA
ATOM     19  OE2 GLU D 570     -20.298  -6.564 -16.354  1.00 32.92    -0.647 OA
ENDBRANCH  16  17
ENDBRANCH  15  16
ENDBRANCH  14  15
END_RES GLU D 570
ENDMDL
MODEL 2
REMARK VINA RESULT:      -9.5      1.837      7.812
REMARK  8 active torsions:
REMARK  status: ('A' for Active; 'I' for Inactive)
REMARK    1  A    between atoms: C_1  and  N_2 
REMARK    2  A    between atoms: C_1  and  N_15 
REMARK       I    between atoms: N_2  and  C_3 
REMARK       I    between atoms: C_3  and  N_5 
REMARK    3  A    between atoms: N_5  and  C_6 
REMARK    4  A    between atoms: N_12  and  C_13 
REMARK    5  A    between atoms: C_13  and  O_14 
REMARK       I    between atoms: N_15  and  C_16 
REMARK       I    between atoms: C_16  and  N_18 
REMARK    6  A    between atoms: N_18  and  C_19 
REMARK    7  A    between atoms: N_25  and  C_26 
REMARK    8  A    between atoms: C_26  and  O_27 
ROOT
HETATM    1  C   UNL     1     -23.677  -6.409 -15.040  1.00  0.00     0.252 C 
ENDROOT
BRANCH   1   2
HETATM    2  N   UNL     1     -24.771  -5.707 -15.637  1.00  0.00    -0.327 N 
HETATM    3  C   UNL     1     -26.004  -6.292 -15.649  1.00  0.00     0.319 C 
HETATM    4  O   UNL     1     -26.210  -7.452 -15.314  1.00  0.00    -0.247 OA
HETATM    5  N   UNL     1     -26.973  -5.476 -16.150  1.00  0.00    -0.313 N 
HETATM    6  H   UNL     1     -26.769  -4.507 -16.340  1.00  0.00     0.166 HD
HETATM    7  H   UNL     1     -24.731  -4.704 -15.564  1.00  0.00     0.165 HD
BRANCH   5   8
HETATM    8  C   UNL     1     -28.297  -5.971 -16.388  1.00  0.00     0.288 C 
HETATM    9  C   UNL     1     -29.274  -5.707 -15.226  1.00  0.00     0.268 C 
HETATM   10  O   UNL     1     -29.078  -5.931 -14.038  1.00  0.00    -0.269 OA
HETATM   11  N   UNL     1     -30.423  -5.199 -15.743  1.00  0.00    -0.276 N 
HETATM   12  C   UNL     1     -30.287  -4.989 -17.072  1.00  0.00     0.328 C 
HETATM   13  H   UNL     1     -31.253  -4.988 -15.217  1.00  0.00     0.173 HD
HETATM   14  O   UNL     1     -31.172  -4.611 -17.823  1.00  0.00    -0.247 OA
HETATM   15  N   UNL     1     -28.985  -5.275 -17.446  1.00  0.00    -0.282 N 
BRANCH  15  16
HETATM   16  C   UNL     1     -28.621  -5.476 -18.818  1.00  0.00     0.297 C 
BRANCH  16  17
HETATM   17  O   UNL     1     -27.789  -6.616 -18.890  1.00  0.00    -0.382 OA
HETATM   18  H   UNL     1     -27.232  -6.575 -18.090  1.00  0.00     0.211 HD
ENDBRANCH  16  17
ENDBRANCH  15  16
ENDBRANCH   5   8
ENDBRANCH   1   2
BRANCH   1  19
HETATM   19  N   UNL     1     -23.699  -6.275 -13.608  1.00  0.00    -0.327 N 
HETATM   20  C   UNL     1     -23.323  -5.091 -13.038  1.00  0.00     0.319 C 
HETATM   21  O   UNL     1     -22.835  -4.156 -13.656  1.00  0.00    -0.247 OA
HETATM   22  N   UNL     1     -23.501  -5.085 -11.687  1.00  0.00    -0.313 N 
HETATM   23  H   UNL     1     -23.551  -5.980 -11.224  1.00  0.00     0.166 HD
HETATM   24  H   UNL     1     -24.463  -6.744 -13.145  1.00  0.00     0.165 HD
BRANCH  22  25
HETATM   25  C   UNL     1     -23.020  -3.975 -10.914  1.00  0.00     0.288 C 
HETATM   26  C   UNL     1     -24.048  -3.489  -9.873  1.00  0.00     0.268 C 
HETATM   27  O   UNL     1     -25.206  -3.163 -10.079  1.00  0.00    -0.269 OA
HETATM   28  N   UNL     1     -23.442  -3.465  -8.658  1.00  0.00    -0.276 N 
HETATM   29  C   UNL     1     -22.157  -3.884  -8.760  1.00  0.00     0.328 C 
HETATM   30  H   UNL     1     -23.858  -3.119  -7.811  1.00  0.00     0.173 HD
HETATM   31  O   UNL     1     -21.331  -3.847  -7.864  1.00  0.00    -0.247 OA
HETATM   32  N   UNL     1     -21.929  -4.339 -10.046  1.00  0.00    -0.282 N 
BRANCH  32  33
HETATM   33  C   UNL     1     -20.595  -4.465 -10.560  1.00  0.00     0.297 C 
BRANCH  33  34
HETATM   34  O   UNL     1     -20.495  -3.659 -11.714  1.00  0.00    -0.382 OA
HETATM   35  H   UNL     1     -21.059  -4.098 -12.380  1.00  0.00     0.211 HD
ENDBRANCH  33  34
ENDBRANCH  32  33
ENDBRANCH  22  25
ENDBRANCH   1  19
TORSDOF 8
BEGIN_RES ARG D 557
REMARK  4 active torsions:
REMARK  status: ('A' for Active; 'I' for Inactive)
REMARK    1  A    between atoms: CA   and  CB  
REMARK    2  A    between atoms: CB   and  CG  
REMARK    3  A    between atoms: CG   and  CD  
REMARK    4  A    between atoms: CD   and  NE  
REMARK       I    between atoms: NE   and  CZ  
REMARK       I    between atoms: CZ   and  NH1 
REMARK       I    between atoms: CZ   and  NH2 
ROOT
ATOM      1  CA  ARG D 557     -26.217   2.705 -17.014  1.00 35.49     0.159 C 
ENDROOT
BRANCH   1   2
ATOM      2  CB  ARG D 557     -26.789   1.319 -17.183  1.00 35.49     0.034 C 
BRANCH   2   3
ATOM      3  CG  ARG D 557     -25.828   0.211 -17.251  1.00 35.49     0.027 C 
BRANCH   3   4
ATOM      4  CD  ARG D 557     -24.674   0.409 -16.345  1.00 35.49     0.116 C 
BRANCH   4   5
ATOM      5  NE  ARG D 557     -24.830  -0.302 -15.104  1.00 35.49    -0.212 N 
ATOM      6  CZ  ARG D 557     -24.068  -1.286 -14.681  1.00 35.49     0.666 C 
ATOM      7  NH1 ARG D 557     -23.051  -1.748 -15.385  1.00 35.49    -0.235 N 
ATOM      8  NH2 ARG D 557     -24.344  -1.802 -13.518  1.00 35.49    -0.235 N 
ATOM      9  HH  ARG D 557     -22.851  -1.422 -16.152  1.00 35.49     0.174 HD
ATOM     10  HH  ARG D 557     -22.588  -2.390 -15.057  1.00 35.49     0.174 HD
ATOM     11  HH  ARG D 557     -25.002  -1.478 -13.083  1.00 35.49     0.174 HD
ATOM     12  HH  ARG D 557     -23.872  -2.435 -13.210  1.00 35.49     0.174 HD
ATOM     13  HE  ARG D 557     -25.505  -0.118 -14.620  1.00 35.49     0.178 HD
ENDBRANCH   4   5
ENDBRANCH   3   4
ENDBRANCH   2   3
ENDBRANCH   1   2
END_RES ARG D 557
BEGIN_RES GLU D 570
REMARK  3 active torsions:
REMARK  status: ('A' for Active; 'I' for Inactive)
REMARK    5  A    between atoms: CA   and  CB  
REMARK    6  A    between atoms: CB   and  CG  
REMARK    7  A    between atoms: CG   and  CD  
ROOT
ATOM     14  CA  GLU D 570     -18.033  -6.348 -13.375  1.00 32.92     0.160 C 
ENDROOT
BRANCH  14  15
ATOM     15  CB  GLU D 570     -19.500  -6.345 -13.794  1.00 32.92     0.043 C 
BRANCH  15  16
ATOM     16  CG  GLU D 570     -20.086  -7.634 -14.244  1.00 32.92     0.100 C 
BRANCH  16  17
ATOM     17  CD  GLU D 570     -20.473  -7.628 -15.704  1.00 32.92     0.185 C 
ATOM     18  OE1 GLU D 570     -20.474  -6.548 -16.325  1.00 32.92    -0.647 OA
ATOM     19  OE2 GLU D 570     -20.795  -8.713 -16.228  1.00 32.92    -0.647 OA
ENDBRANCH  16  17
ENDBRANCH  15  16
ENDBRANCH  14  15
END_RES GLU D 570
ENDMDL
MODEL 3
REMARK VINA RESULT:      -9.4      0.334      7.748
REMARK  8 active torsions:
REMARK  status: ('A' for Active; 'I' for Inactive)
REMARK    1  A    between atoms: C_1  and  N_2 
REMARK    2  A    between atoms: C_1  and  N_15 
REMARK       I    between atoms: N_2  and  C_3 
REMARK       I    between atoms: C_3  and  N_5 
REMARK    3  A    between atoms: N_5  and  C_6 
REMARK    4  A    between atoms: N_12  and  C_13 
REMARK    5  A    between atoms: C_13  and  O_14 
REMARK       I    between atoms: N_15  and  C_16 
REMARK       I    between atoms: C_16  and  N_18 
REMARK    6  A    between atoms: N_18  and  C_19 
REMARK    7  A    between atoms: N_25  and  C_26 
REMARK    8  A    between atoms: C_26  and  O_27 
ROOT
HETATM    1  C   UNL     1     -23.439  -6.052 -14.922  1.00  0.00     0.252 C 
ENDROOT
BRANCH   1   2
HETATM    2  N   UNL     1     -24.513  -6.689 -15.621  1.00  0.00    -0.327 N 
HETATM    3  C   UNL     1     -25.548  -5.925 -16.079  1.00  0.00     0.319 C 
HETATM    4  O   UNL     1     -25.696  -4.743 -15.798  1.00  0.00    -0.247 OA
HETATM    5  N   UNL     1     -26.446  -6.637 -16.816  1.00  0.00    -0.313 N 
HETATM    6  H   UNL     1     -26.241  -7.588 -17.082  1.00  0.00     0.166 HD
HETATM    7  H   UNL     1     -24.256  -7.499 -16.161  1.00  0.00     0.165 HD
BRANCH   5   8
HETATM    8  C   UNL     1     -27.677  -6.041 -17.245  1.00  0.00     0.288 C 
HETATM    9  C   UNL     1     -28.054  -6.381 -18.699  1.00  0.00     0.268 C 
HETATM   10  O   UNL     1     -27.327  -6.308 -19.682  1.00  0.00    -0.269 OA
HETATM   11  N   UNL     1     -29.360  -6.758 -18.723  1.00  0.00    -0.276 N 
HETATM   12  C   UNL     1     -29.854  -6.821 -17.465  1.00  0.00     0.328 C 
HETATM   13  H   UNL     1     -29.885  -6.980 -19.551  1.00  0.00     0.173 HD
HETATM   14  O   UNL     1     -31.014  -7.057 -17.172  1.00  0.00    -0.247 OA
HETATM   15  N   UNL     1     -28.833  -6.569 -16.565  1.00  0.00    -0.282 N 
BRANCH  15  16
HETATM   16  C   UNL     1     -29.100  -6.231 -15.197  1.00  0.00     0.297 C 
BRANCH  16  17
HETATM   17  O   UNL     1     -30.169  -5.308 -15.172  1.00  0.00    -0.382 OA
HETATM   18  H   UNL     1     -29.862  -4.551 -15.707  1.00  0.00     0.211 HD
ENDBRANCH  16  17
ENDBRANCH  15  16
ENDBRANCH   5   8
ENDBRANCH   1   2
BRANCH   1  19
HETATM   19  N   UNL     1     -23.712  -5.984 -13.511  1.00  0.00    -0.327 N 
HETATM   20  C   UNL     1     -23.371  -4.859 -12.814  1.00  0.00     0.319 C 
HETATM   21  O   UNL     1     -22.720  -3.935 -13.279  1.00  0.00    -0.247 OA
HETATM   22  N   UNL     1     -23.791  -4.904 -11.518  1.00  0.00    -0.313 N 
HETATM   23  H   UNL     1     -23.981  -5.813 -11.126  1.00  0.00     0.166 HD
HETATM   24  H   UNL     1     -24.576  -6.417 -13.221  1.00  0.00     0.165 HD
BRANCH  22  25
HETATM   25  C   UNL     1     -23.388  -3.870 -10.607  1.00  0.00     0.288 C 
HETATM   26  C   UNL     1     -24.502  -3.491  -9.612  1.00  0.00     0.268 C 
HETATM   27  O   UNL     1     -25.645  -3.153  -9.880  1.00  0.00    -0.269 OA
HETATM   28  N   UNL     1     -23.996  -3.580  -8.355  1.00  0.00    -0.276 N 
HETATM   29  C   UNL     1     -22.702  -3.979  -8.391  1.00  0.00     0.328 C 
HETATM   30  H   UNL     1     -24.483  -3.318  -7.516  1.00  0.00     0.173 HD
HETATM   31  O   UNL     1     -21.951  -4.024  -7.432  1.00  0.00    -0.247 OA
HETATM   32  N   UNL     1     -22.365  -4.309  -9.691  1.00  0.00    -0.282 N 
BRANCH  32  33
HETATM   33  C   UNL     1     -20.993  -4.377 -10.105  1.00  0.00     0.297 C 
BRANCH  33  34
HETATM   34  O   UNL     1     -20.795  -3.419 -11.122  1.00  0.00    -0.382 OA
HETATM   35  H   UNL     1     -21.693  -3.155 -11.401  1.00  0.00     0.211 HD
ENDBRANCH  33  34
ENDBRANCH  32  33
ENDBRANCH  22  25
ENDBRANCH   1  19
TORSDOF 8
BEGIN_RES ARG D 557
REMARK  4 active torsions:
REMARK  status: ('A' for Active; 'I' for Inactive)
REMARK    1  A    between atoms: CA   and  CB  
REMARK    2  A    between atoms: CB   and  CG  
REMARK    3  A    between atoms: CG   and  CD  
REMARK    4  A    between atoms: CD   and  NE  
REMARK       I    between atoms: NE   and  CZ  
REMARK       I    between atoms: CZ   and  NH1 
REMARK       I    between atoms: CZ   and  NH2 
ROOT
ATOM      1  CA  ARG D 557     -26.217   2.705 -17.014  1.00 35.49     0.159 C 
ENDROOT
BRANCH   1   2
ATOM      2  CB  ARG D 557     -26.789   1.319 -17.183  1.00 35.49     0.034 C 
BRANCH   2   3
ATOM      3  CG  ARG D 557     -28.242   1.222 -17.371  1.00 35.49     0.027 C 
BRANCH   3   4
ATOM      4  CD  ARG D 557     -28.870   0.269 -16.428  1.00 35.49     0.116 C 
BRANCH   4   5
ATOM      5  NE  ARG D 557     -29.331  -0.923 -17.089  1.00 35.49    -0.212 N 
ATOM      6  CZ  ARG D 557     -28.752  -2.102 -17.038  1.00 35.49     0.666 C 
ATOM      7  NH1 ARG D 557     -27.639  -2.317 -16.361  1.00 35.49    -0.235 N 
ATOM      8  NH2 ARG D 557     -29.321  -3.079 -17.682  1.00 35.49    -0.235 N 
ATOM      9  HH  ARG D 557     -27.248  -1.689 -15.928  1.00 35.49     0.174 HD
ATOM     10  HH  ARG D 557     -27.308  -3.107 -16.362  1.00 35.49     0.174 HD
ATOM     11  HH  ARG D 557     -30.044  -2.913 -18.105  1.00 35.49     0.174 HD
ATOM     12  HH  ARG D 557     -28.980  -3.855 -17.669  1.00 35.49     0.174 HD
ATOM     13  HE  ARG D 557     -30.003  -0.859 -17.606  1.00 35.49     0.178 HD
ENDBRANCH   4   5
ENDBRANCH   3   4
ENDBRANCH   2   3
ENDBRANCH   1   2
END_RES ARG D 557
BEGIN_RES GLU D 570
REMARK  3 active torsions:
REMARK  status: ('A' for Active; 'I' for Inactive)
REMARK    5  A    between atoms: CA   and  CB  
REMARK    6  A    between atoms: CB   and  CG  
REMARK    7  A    between atoms: CG   and  CD  
ROOT
ATOM     14  CA  GLU D 570     -18.033  -6.348 -13.375  1.00 32.92     0.160 C 
ENDROOT
BRANCH  14  15
ATOM     15  CB  GLU D 570     -19.500  -6.345 -13.794  1.00 32.92     0.043 C 
BRANCH  15  16
ATOM     16  CG  GLU D 570     -20.084  -7.632 -14.252  1.00 32.92     0.100 C 
BRANCH  16  17
ATOM     17  CD  GLU D 570     -20.445  -7.627 -15.719  1.00 32.92     0.185 C 
ATOM     18  OE1 GLU D 570     -20.384  -6.557 -16.353  1.00 32.92    -0.647 OA
ATOM     19  OE2 GLU D 570     -20.808  -8.703 -16.235  1.00 32.92    -0.647 OA
ENDBRANCH  16  17
ENDBRANCH  15  16
ENDBRANCH  14  15
END_RES GLU D 570
ENDMDL
MODEL 4
REMARK VINA RESULT:      -8.3      3.770      6.451
REMARK  8 active torsions:
REMARK  status: ('A' for Active; 'I' for Inactive)
REMARK    1  A    between atoms: C_1  and  N_2 
REMARK    2  A    between atoms: C_1  and  N_15 
REMARK       I    between atoms: N_2  and  C_3 
REMARK       I    between atoms: C_3  and  N_5 
REMARK    3  A    between atoms: N_5  and  C_6 
REMARK    4  A    between atoms: N_12  and  C_13 
REMARK    5  A    between atoms: C_13  and  O_14 
REMARK       I    between atoms: N_15  and  C_16 
REMARK       I    between atoms: C_16  and  N_18 
REMARK    6  A    between atoms: N_18  and  C_19 
REMARK    7  A    between atoms: N_25  and  C_26 
REMARK    8  A    between atoms: C_26  and  O_27 
ROOT
HETATM    1  C   UNL     1     -19.994  -4.068  -8.593  1.00  0.00     0.252 C 
ENDROOT
BRANCH   1   2
HETATM    2  N   UNL     1     -20.180  -5.404  -8.116  1.00  0.00    -0.327 N 
HETATM    3  C   UNL     1     -20.099  -5.645  -6.775  1.00  0.00     0.319 C 
HETATM    4  O   UNL     1     -19.724  -4.814  -5.957  1.00  0.00    -0.247 OA
HETATM    5  N   UNL     1     -20.400  -6.933  -6.449  1.00  0.00    -0.313 N 
HETATM    6  H   UNL     1     -20.775  -7.557  -7.147  1.00  0.00     0.166 HD
HETATM    7  H   UNL     1     -20.817  -5.969  -8.654  1.00  0.00     0.165 HD
BRANCH   5   8
HETATM    8  C   UNL     1     -20.214  -7.412  -5.111  1.00  0.00     0.288 C 
HETATM    9  C   UNL     1     -21.491  -7.351  -4.250  1.00  0.00     0.268 C 
HETATM   10  O   UNL     1     -22.246  -6.396  -4.125  1.00  0.00    -0.269 OA
HETATM   11  N   UNL     1     -21.633  -8.545  -3.617  1.00  0.00    -0.276 N 
HETATM   12  C   UNL     1     -20.687  -9.416  -4.036  1.00  0.00     0.328 C 
HETATM   13  H   UNL     1     -22.349  -8.765  -2.946  1.00  0.00     0.173 HD
HETATM   14  O   UNL     1     -20.514 -10.539  -3.593  1.00  0.00    -0.247 OA
HETATM   15  N   UNL     1     -19.943  -8.825  -5.043  1.00  0.00    -0.282 N 
BRANCH  15  16
HETATM   16  C   UNL     1     -18.672  -9.352  -5.450  1.00  0.00     0.297 C 
BRANCH  16  17
HETATM   17  O   UNL     1     -18.902 -10.540  -6.179  1.00  0.00    -0.382 OA
HETATM   18  H   UNL     1     -19.689 -10.943  -5.766  1.00  0.00     0.211 HD
ENDBRANCH  16  17
ENDBRANCH  15  16
ENDBRANCH   5   8
ENDBRANCH   1   2
BRANCH   1  19
HETATM   19  N   UNL     1     -20.483  -3.927  -9.938  1.00  0.00    -0.327 N 
HETATM   20  C   UNL     1     -21.791  -4.213 -10.210  1.00  0.00     0.319 C 
HETATM   21  O   UNL     1     -22.565  -4.715  -9.408  1.00  0.00    -0.247 OA
HETATM   22  N   UNL     1     -22.127  -3.928 -11.500  1.00  0.00    -0.313 N 
HETATM   23  H   UNL     1     -21.377  -3.874 -12.171  1.00  0.00     0.166 HD
HETATM   24  H   UNL     1     -20.105  -3.146 -10.451  1.00  0.00     0.165 HD
BRANCH  22  25
HETATM   25  C   UNL     1     -23.421  -4.306 -11.995  1.00  0.00     0.288 C 
HETATM   26  C   UNL     1     -24.522  -3.302 -11.601  1.00  0.00     0.268 C 
HETATM   27  O   UNL     1     -24.792  -2.909 -10.477  1.00  0.00    -0.269 OA
HETATM   28  N   UNL     1     -25.172  -2.922 -12.731  1.00  0.00    -0.276 N 
HETATM   29  C   UNL     1     -24.637  -3.533 -13.816  1.00  0.00     0.328 C 
HETATM   30  H   UNL     1     -25.983  -2.329 -12.760  1.00  0.00     0.173 HD
HETATM   31  O   UNL     1     -25.092  -3.488 -14.946  1.00  0.00    -0.247 OA
HETATM   32  N   UNL     1     -23.506  -4.230 -13.432  1.00  0.00    -0.282 N 
BRANCH  32  33
HETATM   33  C   UNL     1     -22.968  -5.275 -14.253  1.00  0.00     0.297 C 
BRANCH  33  34
HETATM   34  O   UNL     1     -22.386  -4.679 -15.393  1.00  0.00    -0.382 OA
HETATM   35  H   UNL     1     -21.712  -5.318 -15.697  1.00  0.00     0.211 HD
ENDBRANCH  33  34
ENDBRANCH  32  33
ENDBRANCH  22  25
ENDBRANCH   1  19
TORSDOF 8
BEGIN_RES ARG D 557
REMARK  4 active torsions:
REMARK  status: ('A' for Active; 'I' for Inactive)
REMARK    1  A    between atoms: CA   and  CB  
REMARK    2  A    between atoms: CB   and  CG  
REMARK    3  A    between atoms: CG   and  CD  
REMARK    4  A    between atoms: CD   and  NE  
REMARK       I    between atoms: NE   and  CZ  
REMARK       I    between atoms: CZ   and  NH1 
REMARK       I    between atoms: CZ   and  NH2 
ROOT
ATOM      1  CA  ARG D 557     -26.217   2.705 -17.014  1.00 35.49     0.159 C 
ENDROOT
BRANCH   1   2
ATOM      2  CB  ARG D 557     -26.789   1.319 -17.183  1.00 35.49     0.034 C 
BRANCH   2   3
ATOM      3  CG  ARG D 557     -28.238   1.224 -17.401  1.00 35.49     0.027 C 
BRANCH   3   4
ATOM      4  CD  ARG D 557     -28.888   0.278 -16.466  1.00 35.49     0.116 C 
BRANCH   4   5
ATOM      5  NE  ARG D 557     -29.260  -0.953 -17.112  1.00 35.49    -0.212 N 
ATOM      6  CZ  ARG D 557     -28.620  -2.097 -17.010  1.00 35.49     0.666 C 
ATOM      7  NH1 ARG D 557     -27.522  -2.234 -16.290  1.00 35.49    -0.235 N 
ATOM      8  NH2 ARG D 557     -29.112  -3.119 -17.649  1.00 35.49    -0.235 N 
ATOM      9  HH  ARG D 557     -27.182  -1.575 -15.860  1.00 35.49     0.174 HD
ATOM     10  HH  ARG D 557     -27.149  -3.005 -16.259  1.00 35.49     0.174 HD
ATOM     11  HH  ARG D 557     -29.826  -3.002 -18.100  1.00 35.49     0.174 HD
ATOM     12  HH  ARG D 557     -28.729  -3.874 -17.604  1.00 35.49     0.174 HD
ATOM     13  HE  ARG D 557     -29.915  -0.938 -17.654  1.00 35.49     0.178 HD
ENDBRANCH   4   5
ENDBRANCH   3   4
ENDBRANCH   2   3
ENDBRANCH   1   2
END_RES ARG D 557
BEGIN_RES GLU D 570
REMARK  3 active torsions:
REMARK  status: ('A' for Active; 'I' for Inactive)
REMARK    5  A    between atoms: CA   and  CB  
REMARK    6  A    between atoms: CB   and  CG  
REMARK    7  A    between atoms: CG   and  CD  
ROOT
ATOM     14  CA  GLU D 570     -18.033  -6.348 -13.375  1.00 32.92     0.160 C 
ENDROOT
BRANCH  14  15
ATOM     15  CB  GLU D 570     -19.500  -6.345 -13.794  1.00 32.92     0.043 C 
BRANCH  15  16
ATOM     16  CG  GLU D 570     -20.091  -7.637 -14.228  1.00 32.92     0.100 C 
BRANCH  16  17
ATOM     17  CD  GLU D 570     -20.593  -7.607 -15.653  1.00 32.92     0.185 C 
ATOM     18  OE1 GLU D 570     -21.172  -8.610 -16.112  1.00 32.92    -0.647 OA
ATOM     19  OE2 GLU D 570     -20.389  -6.575 -16.322  1.00 32.92    -0.647 OA
ENDBRANCH  16  17
ENDBRANCH  15  16
ENDBRANCH  14  15
END_RES GLU D 570
ENDMDL
MODEL 5
REMARK VINA RESULT:      -8.2      1.263      2.052
REMARK  8 active torsions:
REMARK  status: ('A' for Active; 'I' for Inactive)
REMARK    1  A    between atoms: C_1  and  N_2 
REMARK    2  A    between atoms: C_1  and  N_15 
REMARK       I    between atoms: N_2  and  C_3 
REMARK       I    between atoms: C_3  and  N_5 
REMARK    3  A    between atoms: N_5  and  C_6 
REMARK    4  A    between atoms: N_12  and  C_13 
REMARK    5  A    between atoms: C_13  and  O_14 
REMARK       I    between atoms: N_15  and  C_16 
REMARK       I    between atoms: C_16  and  N_18 
REMARK    6  A    between atoms: N_18  and  C_19 
REMARK    7  A    between atoms: N_25  and  C_26 
REMARK    8  A    between atoms: C_26  and  O_27 
ROOT
HETATM    1  C   UNL     1     -24.183  -6.084 -15.360  1.00  0.00     0.252 C 
ENDROOT
BRANCH   1   2
HETATM    2  N   UNL     1     -23.607  -6.083 -14.050  1.00  0.00    -0.327 N 
HETATM    3  C   UNL     1     -23.584  -4.917 -13.340  1.00  0.00     0.319 C 
HETATM    4  O   UNL     1     -23.890  -3.828 -13.810  1.00  0.00    -0.247 OA
HETATM    5  N   UNL     1     -23.107  -5.077 -12.074  1.00  0.00    -0.313 N 
HETATM    6  H   UNL     1     -22.941  -6.002 -11.710  1.00  0.00     0.166 HD
HETATM    7  H   UNL     1     -23.705  -6.942 -13.535  1.00  0.00     0.165 HD
BRANCH   5   8
HETATM    8  C   UNL     1     -22.861  -3.941 -11.235  1.00  0.00     0.288 C 
HETATM    9  C   UNL     1     -24.077  -3.525 -10.386  1.00  0.00     0.268 C 
HETATM   10  O   UNL     1     -25.225  -3.365 -10.778  1.00  0.00    -0.269 OA
HETATM   11  N   UNL     1     -23.657  -3.334  -9.108  1.00  0.00    -0.276 N 
HETATM   12  C   UNL     1     -22.355  -3.679  -8.984  1.00  0.00     0.328 C 
HETATM   13  H   UNL     1     -24.230  -3.002  -8.351  1.00  0.00     0.173 HD
HETATM   14  O   UNL     1     -21.681  -3.546  -7.975  1.00  0.00    -0.247 OA
HETATM   15  N   UNL     1     -21.909  -4.203 -10.185  1.00  0.00    -0.282 N 
BRANCH  15  16
HETATM   16  C   UNL     1     -20.512  -4.342 -10.475  1.00  0.00     0.297 C 
BRANCH  16  17
HETATM   17  O   UNL     1     -20.271  -3.791 -11.754  1.00  0.00    -0.382 OA
HETATM   18  H   UNL     1     -20.754  -2.943 -11.760  1.00  0.00     0.211 HD
ENDBRANCH  16  17
ENDBRANCH  15  16
ENDBRANCH   5   8
ENDBRANCH   1   2
BRANCH   1  19
HETATM   19  N   UNL     1     -25.303  -6.985 -15.429  1.00  0.00    -0.327 N 
HETATM   20  C   UNL     1     -26.527  -6.507 -15.803  1.00  0.00     0.319 C 
HETATM   21  O   UNL     1     -26.782  -5.322 -15.962  1.00  0.00    -0.247 OA
HETATM   22  N   UNL     1     -27.456  -7.497 -15.925  1.00  0.00    -0.313 N 
HETATM   23  H   UNL     1     -27.277  -8.361 -15.436  1.00  0.00     0.166 HD
HETATM   24  H   UNL     1     -25.088  -7.910 -15.768  1.00  0.00     0.165 HD
BRANCH  22  25
HETATM   25  C   UNL     1     -28.829  -7.155 -16.167  1.00  0.00     0.288 C 
HETATM   26  C   UNL     1     -29.327  -6.023 -15.247  1.00  0.00     0.268 C 
HETATM   27  O   UNL     1     -29.274  -5.988 -14.027  1.00  0.00    -0.269 OA
HETATM   28  N   UNL     1     -29.862  -5.048 -16.026  1.00  0.00    -0.276 N 
HETATM   29  C   UNL     1     -29.770  -5.382 -17.336  1.00  0.00     0.328 C 
HETATM   30  H   UNL     1     -30.327  -4.225 -15.685  1.00  0.00     0.173 HD
HETATM   31  O   UNL     1     -30.277  -4.767 -18.258  1.00  0.00    -0.247 OA
HETATM   32  N   UNL     1     -29.026  -6.542 -17.456  1.00  0.00    -0.282 N 
BRANCH  32  33
HETATM   33  C   UNL     1     -29.094  -7.343 -18.644  1.00  0.00     0.297 C 
BRANCH  33  34
HETATM   34  O   UNL     1     -30.329  -8.027 -18.640  1.00  0.00    -0.382 OA
HETATM   35  H   UNL     1     -30.134  -8.902 -18.253  1.00  0.00     0.211 HD
ENDBRANCH  33  34
ENDBRANCH  32  33
ENDBRANCH  22  25
ENDBRANCH   1  19
TORSDOF 8
BEGIN_RES ARG D 557
REMARK  4 active torsions:
REMARK  status: ('A' for Active; 'I' for Inactive)
REMARK    1  A    between atoms: CA   and  CB  
REMARK    2  A    between atoms: CB   and  CG  
REMARK    3  A    between atoms: CG   and  CD  
REMARK    4  A    between atoms: CD   and  NE  
REMARK       I    between atoms: NE   and  CZ  
REMARK       I    between atoms: CZ   and  NH1 
REMARK       I    between atoms: CZ   and  NH2 
ROOT
ATOM      1  CA  ARG D 557     -26.217   2.705 -17.014  1.00 35.49     0.159 C 
ENDROOT
BRANCH   1   2
ATOM      2  CB  ARG D 557     -26.789   1.319 -17.183  1.00 35.49     0.034 C 
BRANCH   2   3
ATOM      3  CG  ARG D 557     -28.251   1.212 -17.254  1.00 35.49     0.027 C 
BRANCH   3   4
ATOM      4  CD  ARG D 557     -28.762   0.000 -16.573  1.00 35.49     0.116 C 
BRANCH   4   5
ATOM      5  NE  ARG D 557     -27.721  -0.711 -15.879  1.00 35.49    -0.212 N 
ATOM      6  CZ  ARG D 557     -27.396  -1.971 -16.066  1.00 35.49     0.666 C 
ATOM      7  NH1 ARG D 557     -28.024  -2.745 -16.932  1.00 35.49    -0.235 N 
ATOM      8  NH2 ARG D 557     -26.409  -2.447 -15.363  1.00 35.49    -0.235 N 
ATOM      9  HH  ARG D 557     -28.674  -2.452 -17.407  1.00 35.49     0.174 HD
ATOM     10  HH  ARG D 557     -27.766  -3.558 -17.013  1.00 35.49     0.174 HD
ATOM     11  HH  ARG D 557     -26.017  -1.922 -14.817  1.00 35.49     0.174 HD
ATOM     12  HH  ARG D 557     -26.168  -3.254 -15.459  1.00 35.49     0.174 HD
ATOM     13  HE  ARG D 557     -27.312  -0.309 -15.251  1.00 35.49     0.178 HD
ENDBRANCH   4   5
ENDBRANCH   3   4
ENDBRANCH   2   3
ENDBRANCH   1   2
END_RES ARG D 557
BEGIN_RES GLU D 570
REMARK  3 active torsions:
REMARK  status: ('A' for Active; 'I' for Inactive)
REMARK    5  A    between atoms: CA   and  CB  
REMARK    6  A    between atoms: CB   and  CG  
REMARK    7  A    between atoms: CG   and  CD  
ROOT
ATOM     14  CA  GLU D 570     -18.033  -6.348 -13.375  1.00 32.92     0.160 C 
ENDROOT
BRANCH  14  15
ATOM     15  CB  GLU D 570     -19.500  -6.345 -13.794  1.00 32.92     0.043 C 
BRANCH  15  16
ATOM     16  CG  GLU D 570     -19.815  -5.912 -15.180  1.00 32.92     0.100 C 
BRANCH  16  17
ATOM     17  CD  GLU D 570     -20.732  -6.871 -15.903  1.00 32.92     0.185 C 
ATOM     18  OE1 GLU D 570     -21.138  -7.887 -15.306  1.00 32.92    -0.647 OA
ATOM     19  OE2 GLU D 570     -21.035  -6.612 -17.084  1.00 32.92    -0.647 OA
ENDBRANCH  16  17
ENDBRANCH  15  16
ENDBRANCH  14  15
END_RES GLU D 570
ENDMDL
MODEL 6
REMARK VINA RESULT:      -8.2      3.761      9.013
REMARK  8 active torsions:
REMARK  status: ('A' for Active; 'I' for Inactive)
REMARK    1  A    between atoms: C_1  and  N_2 
REMARK    2  A    between atoms: C_1  and  N_15 
REMARK       I    between atoms: N_2  and  C_3 
REMARK       I    between atoms: C_3  and  N_5 
REMARK    3  A    between atoms: N_5  and  C_6 
REMARK    4  A    between atoms: N_12  and  C_13 
REMARK    5  A    between atoms: C_13  and  O_14 
REMARK       I    between atoms: N_15  and  C_16 
REMARK       I    between atoms: C_16  and  N_18 
REMARK    6  A    between atoms: N_18  and  C_19 
REMARK    7  A    between atoms: N_25  and  C_26 
REMARK    8  A    between atoms: C_26  and  O_27 
ROOT
HETATM    1  C   UNL     1     -19.944  -4.123  -8.633  1.00  0.00     0.252 C 
ENDROOT
BRANCH   1   2
HETATM    2  N   UNL     1     -20.430  -3.998  -9.973  1.00  0.00    -0.327 N 
HETATM    3  C   UNL     1     -21.751  -4.235 -10.220  1.00  0.00     0.319 C 
HETATM    4  O   UNL     1     -22.526  -4.699  -9.393  1.00  0.00    -0.247 OA
HETATM    5  N   UNL     1     -22.103  -3.978 -11.512  1.00  0.00    -0.313 N 
HETATM    6  H   UNL     1     -21.450  -3.527 -12.133  1.00  0.00     0.166 HD
HETATM    7  H   UNL     1     -19.966  -3.305 -10.537  1.00  0.00     0.165 HD
BRANCH   5   8
HETATM    8  C   UNL     1     -23.408  -4.319 -11.997  1.00  0.00     0.288 C 
HETATM    9  C   UNL     1     -24.494  -3.293 -11.620  1.00  0.00     0.268 C 
HETATM   10  O   UNL     1     -24.701  -2.818 -10.511  1.00  0.00    -0.269 OA
HETATM   11  N   UNL     1     -25.220  -3.015 -12.735  1.00  0.00    -0.276 N 
HETATM   12  C   UNL     1     -24.683  -3.631 -13.812  1.00  0.00     0.328 C 
HETATM   13  H   UNL     1     -26.030  -2.420 -12.767  1.00  0.00     0.173 HD
HETATM   14  O   UNL     1     -25.156  -3.630 -14.937  1.00  0.00    -0.247 OA
HETATM   15  N   UNL     1     -23.514  -4.268 -13.433  1.00  0.00    -0.282 N 
BRANCH  15  16
HETATM   16  C   UNL     1     -22.903  -5.274 -14.253  1.00  0.00     0.297 C 
BRANCH  16  17
HETATM   17  O   UNL     1     -22.371  -4.644 -15.400  1.00  0.00    -0.382 OA
HETATM   18  H   UNL     1     -22.532  -3.691 -15.263  1.00  0.00     0.211 HD
ENDBRANCH  16  17
ENDBRANCH  15  16
ENDBRANCH   5   8
ENDBRANCH   1   2
BRANCH   1  19
HETATM   19  N   UNL     1     -20.132  -5.461  -8.140  1.00  0.00    -0.327 N 
HETATM   20  C   UNL     1     -20.083  -5.694  -6.794  1.00  0.00     0.319 C 
HETATM   21  O   UNL     1     -19.756  -4.858  -5.964  1.00  0.00    -0.247 OA
HETATM   22  N   UNL     1     -20.387  -6.985  -6.480  1.00  0.00    -0.313 N 
HETATM   23  H   UNL     1     -20.282  -7.675  -7.208  1.00  0.00     0.166 HD
HETATM   24  H   UNL     1     -20.814  -6.010  -8.640  1.00  0.00     0.165 HD
BRANCH  22  25
HETATM   25  C   UNL     1     -20.239  -7.437  -5.125  1.00  0.00     0.288 C 
HETATM   26  C   UNL     1     -21.556  -7.364  -4.329  1.00  0.00     0.268 C 
HETATM   27  O   UNL     1     -22.277  -6.388  -4.187  1.00  0.00    -0.269 OA
HETATM   28  N   UNL     1     -21.791  -8.585  -3.783  1.00  0.00    -0.276 N 
HETATM   29  C   UNL     1     -20.810  -9.454  -4.125  1.00  0.00     0.328 C 
HETATM   30  H   UNL     1     -22.544  -8.802  -3.154  1.00  0.00     0.173 HD
HETATM   31  O   UNL     1     -20.681 -10.582  -3.681  1.00  0.00    -0.247 OA
HETATM   32  N   UNL     1     -19.968  -8.850  -5.041  1.00  0.00    -0.282 N 
BRANCH  32  33
HETATM   33  C   UNL     1     -18.646  -9.357  -5.277  1.00  0.00     0.297 C 
BRANCH  33  34
HETATM   34  O   UNL     1     -18.234  -8.923  -6.555  1.00  0.00    -0.382 OA
HETATM   35  H   UNL     1     -17.298  -9.194  -6.626  1.00  0.00     0.211 HD
ENDBRANCH  33  34
ENDBRANCH  32  33
ENDBRANCH  22  25
ENDBRANCH   1  19
TORSDOF 8
BEGIN_RES ARG D 557
REMARK  4 active torsions:
REMARK  status: ('A' for Active; 'I' for Inactive)
REMARK    1  A    between atoms: CA   and  CB  
REMARK    2  A    between atoms: CB   and  CG  
REMARK    3  A    between atoms: CG   and  CD  
REMARK    4  A    between atoms: CD   and  NE  
REMARK       I    between atoms: NE   and  CZ  
REMARK       I    between atoms: CZ   and  NH1 
REMARK       I    between atoms: CZ   and  NH2 
ROOT
ATOM      1  CA  ARG D 557     -26.217   2.705 -17.014  1.00 35.49     0.159 C 
ENDROOT
BRANCH   1   2
ATOM      2  CB  ARG D 557     -26.789   1.319 -17.183  1.00 35.49     0.034 C 
BRANCH   2   3
ATOM      3  CG  ARG D 557     -25.958   0.200 -16.722  1.00 35.49     0.027 C 
BRANCH   3   4
ATOM      4  CD  ARG D 557     -26.747  -0.835 -16.016  1.00 35.49     0.116 C 
BRANCH   4   5
ATOM      5  NE  ARG D 557     -27.969  -1.150 -16.708  1.00 35.49    -0.212 N 
ATOM      6  CZ  ARG D 557     -28.443  -2.358 -16.920  1.00 35.49     0.666 C 
ATOM      7  NH1 ARG D 557     -27.814  -3.447 -16.517  1.00 35.49    -0.235 N 
ATOM      8  NH2 ARG D 557     -29.579  -2.455 -17.547  1.00 35.49    -0.235 N 
ATOM      9  HH  ARG D 557     -27.067  -3.406 -16.101  1.00 35.49     0.174 HD
ATOM     10  HH  ARG D 557     -28.173  -4.207 -16.681  1.00 35.49     0.174 HD
ATOM     11  HH  ARG D 557     -29.966  -1.735 -17.788  1.00 35.49     0.174 HD
ATOM     12  HH  ARG D 557     -29.918  -3.217 -17.698  1.00 35.49     0.174 HD
ATOM     13  HE  ARG D 557     -28.402  -0.511 -17.065  1.00 35.49     0.178 HD
ENDBRANCH   4   5
ENDBRANCH   3   4
ENDBRANCH   2   3
ENDBRANCH   1   2
END_RES ARG D 557
BEGIN_RES GLU D 570
REMARK  3 active torsions:
REMARK  status: ('A' for Active; 'I' for Inactive)
REMARK    5  A    between atoms: CA   and  CB  
REMARK    6  A    between atoms: CB   and  CG  
REMARK    7  A    between atoms: CG   and  CD  
ROOT
ATOM     14  CA  GLU D 570     -18.033  -6.348 -13.375  1.00 32.92     0.160 C 
ENDROOT
BRANCH  14  15
ATOM     15  CB  GLU D 570     -19.500  -6.345 -13.794  1.00 32.92     0.043 C 
BRANCH  15  16
ATOM     16  CG  GLU D 570     -20.097  -7.642 -14.204  1.00 32.92     0.100 C 
BRANCH  16  17
ATOM     17  CD  GLU D 570     -20.584  -7.641 -15.635  1.00 32.92     0.185 C 
ATOM     18  OE1 GLU D 570     -20.430  -6.615 -16.325  1.00 32.92    -0.647 OA
ATOM     19  OE2 GLU D 570     -21.139  -8.671 -16.064  1.00 32.92    -0.647 OA
ENDBRANCH  16  17
ENDBRANCH  15  16
ENDBRANCH  14  15
END_RES GLU D 570
ENDMDL
MODEL 7
REMARK VINA RESULT:      -7.9      1.570      2.335
REMARK  8 active torsions:
REMARK  status: ('A' for Active; 'I' for Inactive)
REMARK    1  A    between atoms: C_1  and  N_2 
REMARK    2  A    between atoms: C_1  and  N_15 
REMARK       I    between atoms: N_2  and  C_3 
REMARK       I    between atoms: C_3  and  N_5 
REMARK    3  A    between atoms: N_5  and  C_6 
REMARK    4  A    between atoms: N_12  and  C_13 
REMARK    5  A    between atoms: C_13  and  O_14 
REMARK       I    between atoms: N_15  and  C_16 
REMARK       I    between atoms: C_16  and  N_18 
REMARK    6  A    between atoms: N_18  and  C_19 
REMARK    7  A    between atoms: N_25  and  C_26 
REMARK    8  A    between atoms: C_26  and  O_27 
ROOT
HETATM    1  C   UNL     1     -22.615  -4.400 -14.268  1.00  0.00     0.252 C 
ENDROOT
BRANCH   1   2
HETATM    2  N   UNL     1     -22.461  -4.939 -12.951  1.00  0.00    -0.327 N 
HETATM    3  C   UNL     1     -22.580  -4.104 -11.878  1.00  0.00     0.319 C 
HETATM    4  O   UNL     1     -22.660  -2.885 -11.970  1.00  0.00    -0.247 OA
HETATM    5  N   UNL     1     -22.518  -4.761 -10.686  1.00  0.00    -0.313 N 
HETATM    6  H   UNL     1     -22.528  -5.769 -10.664  1.00  0.00     0.166 HD
HETATM    7  H   UNL     1     -22.764  -5.892 -12.838  1.00  0.00     0.165 HD
BRANCH   5   8
HETATM    8  C   UNL     1     -22.464  -4.035  -9.452  1.00  0.00     0.288 C 
HETATM    9  C   UNL     1     -23.852  -3.713  -8.864  1.00  0.00     0.268 C 
HETATM   10  O   UNL     1     -24.805  -3.225  -9.458  1.00  0.00    -0.269 OA
HETATM   11  N   UNL     1     -23.840  -4.038  -7.545  1.00  0.00    -0.276 N 
HETATM   12  C   UNL     1     -22.672  -4.636  -7.218  1.00  0.00     0.328 C 
HETATM   13  H   UNL     1     -24.596  -3.879  -6.901  1.00  0.00     0.173 HD
HETATM   14  O   UNL     1     -22.340  -4.972  -6.093  1.00  0.00    -0.247 OA
HETATM   15  N   UNL     1     -21.912  -4.800  -8.363  1.00  0.00    -0.282 N 
BRANCH  15  16
HETATM   16  C   UNL     1     -20.508  -5.086  -8.301  1.00  0.00     0.297 C 
BRANCH  16  17
HETATM   17  O   UNL     1     -19.937  -4.761  -9.553  1.00  0.00    -0.382 OA
HETATM   18  H   UNL     1     -19.161  -4.209  -9.342  1.00  0.00     0.211 HD
ENDBRANCH  16  17
ENDBRANCH  15  16
ENDBRANCH   5   8
ENDBRANCH   1   2
BRANCH   1  19
HETATM   19  N   UNL     1     -23.977  -4.513 -14.715  1.00  0.00    -0.327 N 
HETATM   20  C   UNL     1     -24.407  -5.683 -15.274  1.00  0.00     0.319 C 
HETATM   21  O   UNL     1     -23.673  -6.622 -15.548  1.00  0.00    -0.247 OA
HETATM   22  N   UNL     1     -25.742  -5.670 -15.545  1.00  0.00    -0.313 N 
HETATM   23  H   UNL     1     -26.186  -4.770 -15.635  1.00  0.00     0.166 HD
HETATM   24  H   UNL     1     -24.658  -4.045 -14.136  1.00  0.00     0.165 HD
BRANCH  22  25
HETATM   25  C   UNL     1     -26.328  -6.763 -16.268  1.00  0.00     0.288 C 
HETATM   26  C   UNL     1     -27.774  -7.060 -15.824  1.00  0.00     0.268 C 
HETATM   27  O   UNL     1     -28.165  -7.278 -14.687  1.00  0.00    -0.269 OA
HETATM   28  N   UNL     1     -28.566  -7.055 -16.926  1.00  0.00    -0.276 N 
HETATM   29  C   UNL     1     -27.836  -6.782 -18.035  1.00  0.00     0.328 C 
HETATM   30  H   UNL     1     -29.543  -7.291 -16.938  1.00  0.00     0.173 HD
HETATM   31  O   UNL     1     -28.247  -6.837 -19.181  1.00  0.00    -0.247 OA
HETATM   32  N   UNL     1     -26.547  -6.451 -17.658  1.00  0.00    -0.282 N 
BRANCH  32  33
HETATM   33  C   UNL     1     -25.465  -6.505 -18.599  1.00  0.00     0.297 C 
BRANCH  33  34
HETATM   34  O   UNL     1     -24.537  -7.465 -18.143  1.00  0.00    -0.382 OA
HETATM   35  H   UNL     1     -23.879  -6.958 -17.629  1.00  0.00     0.211 HD
ENDBRANCH  33  34
ENDBRANCH  32  33
ENDBRANCH  22  25
ENDBRANCH   1  19
TORSDOF 8
BEGIN_RES ARG D 557
REMARK  4 active torsions:
REMARK  status: ('A' for Active; 'I' for Inactive)
REMARK    1  A    between atoms: CA   and  CB  
REMARK    2  A    between atoms: CB   and  CG  
REMARK    3  A    between atoms: CG   and  CD  
REMARK    4  A    between atoms: CD   and  NE  
REMARK       I    between atoms: NE   and  CZ  
REMARK       I    between atoms: CZ   and  NH1 
REMARK       I    between atoms: CZ   and  NH2 
ROOT
ATOM      1  CA  ARG D 557     -26.217   2.705 -17.014  1.00 35.49     0.159 C 
ENDROOT
BRANCH   1   2
ATOM      2  CB  ARG D 557     -26.789   1.319 -17.183  1.00 35.49     0.034 C 
BRANCH   2   3
ATOM      3  CG  ARG D 557     -28.173   1.116 -16.737  1.00 35.49     0.027 C 
BRANCH   3   4
ATOM      4  CD  ARG D 557     -28.800  -0.069 -17.364  1.00 35.49     0.116 C 
BRANCH   4   5
ATOM      5  NE  ARG D 557     -28.222  -1.301 -16.894  1.00 35.49    -0.212 N 
ATOM      6  CZ  ARG D 557     -28.733  -2.500 -17.057  1.00 35.49     0.666 C 
ATOM      7  NH1 ARG D 557     -29.880  -2.704 -17.678  1.00 35.49    -0.235 N 
ATOM      8  NH2 ARG D 557     -28.061  -3.509 -16.583  1.00 35.49    -0.235 N 
ATOM      9  HH  ARG D 557     -30.338  -2.056 -18.000  1.00 35.49     0.174 HD
ATOM     10  HH  ARG D 557     -30.163  -3.509 -17.757  1.00 35.49     0.174 HD
ATOM     11  HH  ARG D 557     -27.320  -3.348 -16.192  1.00 35.49     0.174 HD
ATOM     12  HH  ARG D 557     -28.357  -4.298 -16.672  1.00 35.49     0.174 HD
ATOM     13  HE  ARG D 557     -27.518  -1.256 -16.419  1.00 35.49     0.178 HD
ENDBRANCH   4   5
ENDBRANCH   3   4
ENDBRANCH   2   3
ENDBRANCH   1   2
END_RES ARG D 557
BEGIN_RES GLU D 570
REMARK  3 active torsions:
REMARK  status: ('A' for Active; 'I' for Inactive)
REMARK    5  A    between atoms: CA   and  CB  
REMARK    6  A    between atoms: CB   and  CG  
REMARK    7  A    between atoms: CG   and  CD  
ROOT
ATOM     14  CA  GLU D 570     -18.033  -6.348 -13.375  1.00 32.92     0.160 C 
ENDROOT
BRANCH  14  15
ATOM     15  CB  GLU D 570     -19.500  -6.345 -13.794  1.00 32.92     0.043 C 
BRANCH  15  16
ATOM     16  CG  GLU D 570     -20.082  -7.631 -14.257  1.00 32.92     0.100 C 
BRANCH  16  17
ATOM     17  CD  GLU D 570     -20.503  -7.599 -15.708  1.00 32.92     0.185 C 
ATOM     18  OE1 GLU D 570     -20.836  -8.662 -16.266  1.00 32.92    -0.647 OA
ATOM     19  OE2 GLU D 570     -20.483  -6.501 -16.298  1.00 32.92    -0.647 OA
ENDBRANCH  16  17
ENDBRANCH  15  16
ENDBRANCH  14  15
END_RES GLU D 570
ENDMDL
MODEL 8
REMARK VINA RESULT:      -7.8      5.102     10.233
REMARK  8 active torsions:
REMARK  status: ('A' for Active; 'I' for Inactive)
REMARK    1  A    between atoms: C_1  and  N_2 
REMARK    2  A    between atoms: C_1  and  N_15 
REMARK       I    between atoms: N_2  and  C_3 
REMARK       I    between atoms: C_3  and  N_5 
REMARK    3  A    between atoms: N_5  and  C_6 
REMARK    4  A    between atoms: N_12  and  C_13 
REMARK    5  A    between atoms: C_13  and  O_14 
REMARK       I    between atoms: N_15  and  C_16 
REMARK       I    between atoms: C_16  and  N_18 
REMARK    6  A    between atoms: N_18  and  C_19 
REMARK    7  A    between atoms: N_25  and  C_26 
REMARK    8  A    between atoms: C_26  and  O_27 
ROOT
HETATM    1  C   UNL     1     -20.580  -5.163  -5.584  1.00  0.00     0.252 C 
ENDROOT
BRANCH   1   2
HETATM    2  N   UNL     1     -21.364  -5.340  -6.767  1.00  0.00    -0.327 N 
HETATM    3  C   UNL     1     -21.259  -4.423  -7.773  1.00  0.00     0.319 C 
HETATM    4  O   UNL     1     -20.646  -3.368  -7.669  1.00  0.00    -0.247 OA
HETATM    5  N   UNL     1     -21.976  -4.765  -8.879  1.00  0.00    -0.313 N 
HETATM    6  H   UNL     1     -22.401  -5.677  -8.944  1.00  0.00     0.166 HD
HETATM    7  H   UNL     1     -21.548  -6.295  -7.024  1.00  0.00     0.165 HD
BRANCH   5   8
HETATM    8  C   UNL     1     -22.115  -3.850  -9.974  1.00  0.00     0.288 C 
HETATM    9  C   UNL     1     -21.214  -4.186 -11.178  1.00  0.00     0.268 C 
HETATM   10  O   UNL     1     -20.017  -4.441 -11.150  1.00  0.00    -0.269 OA
HETATM   11  N   UNL     1     -21.972  -4.127 -12.305  1.00  0.00    -0.276 N 
HETATM   12  C   UNL     1     -23.269  -3.910 -11.989  1.00  0.00     0.328 C 
HETATM   13  H   UNL     1     -21.628  -4.245 -13.242  1.00  0.00     0.173 HD
HETATM   14  O   UNL     1     -24.172  -3.734 -12.790  1.00  0.00    -0.247 OA
HETATM   15  N   UNL     1     -23.406  -3.914 -10.611  1.00  0.00    -0.282 N 
BRANCH  15  16
HETATM   16  C   UNL     1     -24.572  -3.383  -9.968  1.00  0.00     0.297 C 
BRANCH  16  17
HETATM   17  O   UNL     1     -24.488  -3.679  -8.589  1.00  0.00    -0.382 OA
HETATM   18  H   UNL     1     -25.338  -3.382  -8.213  1.00  0.00     0.211 HD
ENDBRANCH  16  17
ENDBRANCH  15  16
ENDBRANCH   5   8
ENDBRANCH   1   2
BRANCH   1  19
HETATM   19  N   UNL     1     -20.381  -6.416  -4.906  1.00  0.00    -0.327 N 
HETATM   20  C   UNL     1     -21.390  -6.936  -4.146  1.00  0.00     0.319 C 
HETATM   21  O   UNL     1     -22.428  -6.345  -3.885  1.00  0.00    -0.247 OA
HETATM   22  N   UNL     1     -21.089  -8.173  -3.659  1.00  0.00    -0.313 N 
HETATM   23  H   UNL     1     -20.114  -8.424  -3.607  1.00  0.00     0.166 HD
HETATM   24  H   UNL     1     -19.841  -7.098  -5.416  1.00  0.00     0.165 HD
BRANCH  22  25
HETATM   25  C   UNL     1     -21.977  -8.800  -2.722  1.00  0.00     0.288 C 
HETATM   26  C   UNL     1     -22.101 -10.320  -2.948  1.00  0.00     0.268 C 
HETATM   27  O   UNL     1     -22.400 -10.887  -3.988  1.00  0.00    -0.269 OA
HETATM   28  N   UNL     1     -21.833 -10.947  -1.775  1.00  0.00    -0.276 N 
HETATM   29  C   UNL     1     -21.536 -10.044  -0.810  1.00  0.00     0.328 C 
HETATM   30  H   UNL     1     -21.912 -11.937  -1.617  1.00  0.00     0.173 HD
HETATM   31  O   UNL     1     -21.380 -10.300   0.372  1.00  0.00    -0.247 OA
HETATM   32  N   UNL     1     -21.459  -8.784  -1.376  1.00  0.00    -0.282 N 
BRANCH  32  33
HETATM   33  C   UNL     1     -21.558  -7.603  -0.568  1.00  0.00     0.297 C 
BRANCH  33  34
HETATM   34  O   UNL     1     -22.688  -6.874  -0.998  1.00  0.00    -0.382 OA
HETATM   35  H   UNL     1     -22.987  -6.381  -0.209  1.00  0.00     0.211 HD
ENDBRANCH  33  34
ENDBRANCH  32  33
ENDBRANCH  22  25
ENDBRANCH   1  19
TORSDOF 8
BEGIN_RES ARG D 557
REMARK  4 active torsions:
REMARK  status: ('A' for Active; 'I' for Inactive)
REMARK    1  A    between atoms: CA   and  CB  
REMARK    2  A    between atoms: CB   and  CG  
REMARK    3  A    between atoms: CG   and  CD  
REMARK    4  A    between atoms: CD   and  NE  
REMARK       I    between atoms: NE   and  CZ  
REMARK       I    between atoms: CZ   and  NH1 
REMARK       I    between atoms: CZ   and  NH2 
ROOT
ATOM      1  CA  ARG D 557     -26.217   2.705 -17.014  1.00 35.49     0.159 C 
ENDROOT
BRANCH   1   2
ATOM      2  CB  ARG D 557     -26.789   1.319 -17.183  1.00 35.49     0.034 C 
BRANCH   2   3
ATOM      3  CG  ARG D 557     -28.204   1.141 -16.836  1.00 35.49     0.027 C 
BRANCH   3   4
ATOM      4  CD  ARG D 557     -28.536  -0.268 -16.524  1.00 35.49     0.116 C 
BRANCH   4   5
ATOM      5  NE  ARG D 557     -27.476  -0.929 -15.810  1.00 35.49    -0.212 N 
ATOM      6  CZ  ARG D 557     -27.195  -2.212 -15.869  1.00 35.49     0.666 C 
ATOM      7  NH1 ARG D 557     -27.891  -3.058 -16.606  1.00 35.49    -0.235 N 
ATOM      8  NH2 ARG D 557     -26.183  -2.637 -15.170  1.00 35.49    -0.235 N 
ATOM      9  HH  ARG D 557     -28.559  -2.800 -17.076  1.00 35.49     0.174 HD
ATOM     10  HH  ARG D 557     -27.659  -3.883 -16.607  1.00 35.49     0.174 HD
ATOM     11  HH  ARG D 557     -25.747  -2.066 -14.709  1.00 35.49     0.174 HD
ATOM     12  HH  ARG D 557     -25.968  -3.457 -15.185  1.00 35.49     0.174 HD
ATOM     13  HE  ARG D 557     -27.022  -0.472 -15.255  1.00 35.49     0.178 HD
ENDBRANCH   4   5
ENDBRANCH   3   4
ENDBRANCH   2   3
ENDBRANCH   1   2
END_RES ARG D 557
BEGIN_RES GLU D 570
REMARK  3 active torsions:
REMARK  status: ('A' for Active; 'I' for Inactive)
REMARK    5  A    between atoms: CA   and  CB  
REMARK    6  A    between atoms: CB   and  CG  
REMARK    7  A    between atoms: CG   and  CD  
ROOT
ATOM     14  CA  GLU D 570     -18.033  -6.348 -13.375  1.00 32.92     0.160 C 
ENDROOT
BRANCH  14  15
ATOM     15  CB  GLU D 570     -19.500  -6.345 -13.794  1.00 32.92     0.043 C 
BRANCH  15  16
ATOM     16  CG  GLU D 570     -19.807  -6.650 -15.216  1.00 32.92     0.100 C 
BRANCH  16  17
ATOM     17  CD  GLU D 570     -20.780  -5.672 -15.831  1.00 32.92     0.185 C 
ATOM     18  OE1 GLU D 570     -20.842  -5.579 -17.072  1.00 32.92    -0.647 OA
ATOM     19  OE2 GLU D 570     -21.478  -4.980 -15.063  1.00 32.92    -0.647 OA
ENDBRANCH  16  17
ENDBRANCH  15  16
ENDBRANCH  14  15
END_RES GLU D 570
ENDMDL
MODEL 9
REMARK VINA RESULT:      -7.8      5.225      8.352
REMARK  8 active torsions:
REMARK  status: ('A' for Active; 'I' for Inactive)
REMARK    1  A    between atoms: C_1  and  N_2 
REMARK    2  A    between atoms: C_1  and  N_15 
REMARK       I    between atoms: N_2  and  C_3 
REMARK       I    between atoms: C_3  and  N_5 
REMARK    3  A    between atoms: N_5  and  C_6 
REMARK    4  A    between atoms: N_12  and  C_13 
REMARK    5  A    between atoms: C_13  and  O_14 
REMARK       I    between atoms: N_15  and  C_16 
REMARK       I    between atoms: C_16  and  N_18 
REMARK    6  A    between atoms: N_18  and  C_19 
REMARK    7  A    between atoms: N_25  and  C_26 
REMARK    8  A    between atoms: C_26  and  O_27 
ROOT
HETATM    1  C   UNL     1     -21.509  -5.356  -5.738  1.00  0.00     0.252 C 
ENDROOT
BRANCH   1   2
HETATM    2  N   UNL     1     -21.549  -6.607  -5.043  1.00  0.00    -0.327 N 
HETATM    3  C   UNL     1     -21.267  -6.629  -3.708  1.00  0.00     0.319 C 
HETATM    4  O   UNL     1     -20.830  -5.667  -3.088  1.00  0.00    -0.247 OA
HETATM    5  N   UNL     1     -21.444  -7.859  -3.150  1.00  0.00    -0.313 N 
HETATM    6  H   UNL     1     -21.877  -8.598  -3.682  1.00  0.00     0.166 HD
HETATM    7  H   UNL     1     -22.221  -7.271  -5.390  1.00  0.00     0.165 HD
BRANCH   5   8
HETATM    8  C   UNL     1     -21.046  -8.113  -1.796  1.00  0.00     0.288 C 
HETATM    9  C   UNL     1     -22.166  -7.869  -0.767  1.00  0.00     0.268 C 
HETATM   10  O   UNL     1     -22.886  -6.882  -0.687  1.00  0.00    -0.269 OA
HETATM   11  N   UNL     1     -22.209  -8.935   0.075  1.00  0.00    -0.276 N 
HETATM   12  C   UNL     1     -21.348  -9.893  -0.335  1.00  0.00     0.328 C 
HETATM   13  H   UNL     1     -22.808  -9.016   0.879  1.00  0.00     0.173 HD
HETATM   14  O   UNL     1     -21.110 -10.932   0.259  1.00  0.00    -0.247 OA
HETATM   15  N   UNL     1     -20.774  -9.504  -1.533  1.00  0.00    -0.282 N 
BRANCH  15  16
HETATM   16  C   UNL     1     -19.590 -10.132  -2.041  1.00  0.00     0.297 C 
BRANCH  16  17
HETATM   17  O   UNL     1     -18.761  -9.129  -2.591  1.00  0.00    -0.382 OA
HETATM   18  H   UNL     1     -19.357  -8.377  -2.771  1.00  0.00     0.211 HD
ENDBRANCH  16  17
ENDBRANCH  15  16
ENDBRANCH   5   8
ENDBRANCH   1   2
BRANCH   1  19
HETATM   19  N   UNL     1     -21.823  -5.531  -7.131  1.00  0.00    -0.327 N 
HETATM   20  C   UNL     1     -21.794  -4.450  -7.967  1.00  0.00     0.319 C 
HETATM   21  O   UNL     1     -21.646  -3.296  -7.592  1.00  0.00    -0.247 OA
HETATM   22  N   UNL     1     -22.007  -4.795  -9.268  1.00  0.00    -0.313 N 
HETATM   23  H   UNL     1     -22.474  -5.671  -9.443  1.00  0.00     0.166 HD
HETATM   24  H   UNL     1     -21.491  -6.391  -7.540  1.00  0.00     0.165 HD
BRANCH  22  25
HETATM   25  C   UNL     1     -22.157  -3.765 -10.257  1.00  0.00     0.288 C 
HETATM   26  C   UNL     1     -21.154  -3.909 -11.419  1.00  0.00     0.268 C 
HETATM   27  O   UNL     1     -19.939  -3.997 -11.335  1.00  0.00    -0.269 OA
HETATM   28  N   UNL     1     -21.852  -3.910 -12.584  1.00  0.00    -0.276 N 
HETATM   29  C   UNL     1     -23.180  -3.798 -12.342  1.00  0.00     0.328 C 
HETATM   30  H   UNL     1     -21.443  -3.918 -13.502  1.00  0.00     0.173 HD
HETATM   31  O   UNL     1     -24.040  -3.642 -13.192  1.00  0.00    -0.247 OA
HETATM   32  N   UNL     1     -23.401  -3.870 -10.979  1.00  0.00    -0.282 N 
BRANCH  32  33
HETATM   33  C   UNL     1     -24.624  -3.391 -10.402  1.00  0.00     0.297 C 
BRANCH  33  34
HETATM   34  O   UNL     1     -25.153  -4.416  -9.587  1.00  0.00    -0.382 OA
HETATM   35  H   UNL     1     -25.521  -5.071 -10.210  1.00  0.00     0.211 HD
ENDBRANCH  33  34
ENDBRANCH  32  33
ENDBRANCH  22  25
ENDBRANCH   1  19
TORSDOF 8
BEGIN_RES ARG D 557
REMARK  4 active torsions:
REMARK  status: ('A' for Active; 'I' for Inactive)
REMARK    1  A    between atoms: CA   and  CB  
REMARK    2  A    between atoms: CB   and  CG  
REMARK    3  A    between atoms: CG   and  CD  
REMARK    4  A    between atoms: CD   and  NE  
REMARK       I    between atoms: NE   and  CZ  
REMARK       I    between atoms: CZ   and  NH1 
REMARK       I    between atoms: CZ   and  NH2 
ROOT
ATOM      1  CA  ARG D 557     -26.217   2.705 -17.014  1.00 35.49     0.159 C 
ENDROOT
BRANCH   1   2
ATOM      2  CB  ARG D 557     -26.789   1.319 -17.183  1.00 35.49     0.034 C 
BRANCH   2   3
ATOM      3  CG  ARG D 557     -28.207   1.144 -16.846  1.00 35.49     0.027 C 
BRANCH   3   4
ATOM      4  CD  ARG D 557     -28.554  -0.272 -16.584  1.00 35.49     0.116 C 
BRANCH   4   5
ATOM      5  NE  ARG D 557     -27.517  -0.959 -15.860  1.00 35.49    -0.212 N 
ATOM      6  CZ  ARG D 557     -27.254  -2.245 -15.930  1.00 35.49     0.666 C 
ATOM      7  NH1 ARG D 557     -27.950  -3.070 -16.690  1.00 35.49    -0.235 N 
ATOM      8  NH2 ARG D 557     -26.261  -2.694 -15.219  1.00 35.49    -0.235 N 
ATOM      9  HH  ARG D 557     -28.606  -2.796 -17.168  1.00 35.49     0.174 HD
ATOM     10  HH  ARG D 557     -27.731  -3.899 -16.697  1.00 35.49     0.174 HD
ATOM     11  HH  ARG D 557     -25.825  -2.137 -14.743  1.00 35.49     0.174 HD
ATOM     12  HH  ARG D 557     -26.059  -3.517 -15.241  1.00 35.49     0.174 HD
ATOM     13  HE  ARG D 557     -27.066  -0.516 -15.291  1.00 35.49     0.178 HD
ENDBRANCH   4   5
ENDBRANCH   3   4
ENDBRANCH   2   3
ENDBRANCH   1   2
END_RES ARG D 557
BEGIN_RES GLU D 570
REMARK  3 active torsions:
REMARK  status: ('A' for Active; 'I' for Inactive)
REMARK    5  A    between atoms: CA   and  CB  
REMARK    6  A    between atoms: CB   and  CG  
REMARK    7  A    between atoms: CG   and  CD  
ROOT
ATOM     14  CA  GLU D 570     -18.033  -6.348 -13.375  1.00 32.92     0.160 C 
ENDROOT
BRANCH  14  15
ATOM     15  CB  GLU D 570     -19.500  -6.345 -13.794  1.00 32.92     0.043 C 
BRANCH  15  16
ATOM     16  CG  GLU D 570     -19.805  -6.049 -15.218  1.00 32.92     0.100 C 
BRANCH  16  17
ATOM     17  CD  GLU D 570     -21.270  -5.770 -15.461  1.00 32.92     0.185 C 
ATOM     18  OE1 GLU D 570     -21.592  -4.765 -16.123  1.00 32.92    -0.647 OA
ATOM     19  OE2 GLU D 570     -22.104  -6.556 -14.971  1.00 32.92    -0.647 OA
ENDBRANCH  16  17
ENDBRANCH  15  16
ENDBRANCH  14  15
END_RES GLU D 570
ENDMDL
