MODEL 1
REMARK VINA RESULT:      -7.0      0.000      0.000
REMARK  6 active torsions:
REMARK  status: ('A' for Active; 'I' for Inactive)
REMARK    1  A    between atoms: C_6  and  O_7 
REMARK    2  A    between atoms: O_7  and  C_8 
REMARK    3  A    between atoms: C_8  and  C_9 
REMARK    4  A    between atoms: C_9  and  C_10 
REMARK    5  A    between atoms: C_9  and  O_12 
REMARK    6  A    between atoms: C_10  and  O_11 
ROOT
HETATM    1  O   UNL     1     -23.036  -2.579 -12.356  1.00  0.00    -0.349 OA
ENDROOT
BRANCH   1   2
HETATM    2  C   UNL     1     -22.384  -3.232 -11.345  1.00  0.00     0.069 A 
HETATM    3  C   UNL     1     -21.013  -3.497 -11.311  1.00  0.00     0.038 A 
HETATM    4  C   UNL     1     -20.453  -4.147 -10.205  1.00  0.00     0.026 A 
HETATM    5  C   UNL     1     -21.262  -4.528  -9.136  1.00  0.00     0.034 A 
HETATM    6  C   UNL     1     -22.627  -4.253  -9.157  1.00  0.00     0.026 A 
HETATM    7 CL   UNL     1     -20.569  -5.329  -7.782  1.00  0.00    -0.084 Cl
HETATM    8  C   UNL     1     -23.184  -3.597 -10.258  1.00  0.00     0.038 A 
ENDBRANCH   1   2
BRANCH   1   9
HETATM    9  C   UNL     1     -24.387  -2.994 -12.595  1.00  0.00     0.209 C 
BRANCH   9  10
HETATM   10  C   UNL     1     -24.718  -2.774 -14.075  1.00  0.00     0.166 C 
BRANCH  10  11
HETATM   11  C   UNL     1     -23.847  -1.706 -14.739  1.00  0.00     0.198 C 
BRANCH  11  12
HETATM   12  O   UNL     1     -22.775  -2.343 -15.438  1.00  0.00    -0.398 OA
HETATM   13  H   UNL     1     -22.920  -3.305 -15.323  1.00  0.00     0.209 HD
ENDBRANCH  11  12
ENDBRANCH  10  11
BRANCH  10  14
HETATM   14  O   UNL     1     -24.540  -4.000 -14.808  1.00  0.00    -0.391 OA
HETATM   15  H   UNL     1     -24.739  -3.793 -15.741  1.00  0.00     0.210 HD
ENDBRANCH  10  14
ENDBRANCH   9  10
ENDBRANCH   1   9
TORSDOF 6
BEGIN_RES ARG D 557
REMARK  4 active torsions:
REMARK  status: ('A' for Active; 'I' for Inactive)
REMARK    1  A    between atoms: CA   and  CB  
REMARK    2  A    between atoms: CB   and  CG  
REMARK    3  A    between atoms: CG   and  CD  
REMARK    4  A    between atoms: CD   and  NE  
REMARK       I    between atoms: NE   and  CZ  
REMARK       I    between atoms: CZ   and  NH1 
REMARK       I    between atoms: CZ   and  NH2 
ROOT
ATOM      1  CA  ARG D 557     -26.217   2.705 -17.014  1.00 35.49     0.159 C 
ENDROOT
BRANCH   1   2
ATOM      2  CB  ARG D 557     -26.789   1.319 -17.183  1.00 35.49     0.034 C 
BRANCH   2   3
ATOM      3  CG  ARG D 557     -28.231   1.226 -17.440  1.00 35.49     0.027 C 
BRANCH   3   4
ATOM      4  CD  ARG D 557     -28.913   0.305 -16.502  1.00 35.49     0.116 C 
BRANCH   4   5
ATOM      5  NE  ARG D 557     -29.291  -0.931 -17.135  1.00 35.49    -0.212 N 
ATOM      6  CZ  ARG D 557     -28.650  -2.074 -17.031  1.00 35.49     0.666 C 
ATOM      7  NH1 ARG D 557     -27.546  -2.206 -16.319  1.00 35.49    -0.235 N 
ATOM      8  NH2 ARG D 557     -29.148  -3.101 -17.657  1.00 35.49    -0.235 N 
ATOM      9  HH  ARG D 557     -27.202  -1.545 -15.897  1.00 35.49     0.174 HD
ATOM     10  HH  ARG D 557     -27.173  -2.977 -16.286  1.00 35.49     0.174 HD
ATOM     11  HH  ARG D 557     -29.867  -2.987 -18.103  1.00 35.49     0.174 HD
ATOM     12  HH  ARG D 557     -28.766  -3.856 -17.610  1.00 35.49     0.174 HD
ATOM     13  HE  ARG D 557     -29.951  -0.920 -17.671  1.00 35.49     0.178 HD
ENDBRANCH   4   5
ENDBRANCH   3   4
ENDBRANCH   2   3
ENDBRANCH   1   2
END_RES ARG D 557
BEGIN_RES GLU D 570
REMARK  3 active torsions:
REMARK  status: ('A' for Active; 'I' for Inactive)
REMARK    5  A    between atoms: CA   and  CB  
REMARK    6  A    between atoms: CB   and  CG  
REMARK    7  A    between atoms: CG   and  CD  
ROOT
ATOM     14  CA  GLU D 570     -18.033  -6.348 -13.375  1.00 32.92     0.160 C 
ENDROOT
BRANCH  14  15
ATOM     15  CB  GLU D 570     -19.500  -6.345 -13.794  1.00 32.92     0.043 C 
BRANCH  15  16
ATOM     16  CG  GLU D 570     -19.806  -6.033 -15.214  1.00 32.92     0.100 C 
BRANCH  16  17
ATOM     17  CD  GLU D 570     -21.126  -5.319 -15.390  1.00 32.92     0.185 C 
ATOM     18  OE1 GLU D 570     -21.489  -4.993 -16.536  1.00 32.92    -0.647 OA
ATOM     19  OE2 GLU D 570     -21.796  -5.069 -14.368  1.00 32.92    -0.647 OA
ENDBRANCH  16  17
ENDBRANCH  15  16
ENDBRANCH  14  15
END_RES GLU D 570
ENDMDL
MODEL 2
REMARK VINA RESULT:      -6.9      0.487      1.430
REMARK  6 active torsions:
REMARK  status: ('A' for Active; 'I' for Inactive)
REMARK    1  A    between atoms: C_6  and  O_7 
REMARK    2  A    between atoms: O_7  and  C_8 
REMARK    3  A    between atoms: C_8  and  C_9 
REMARK    4  A    between atoms: C_9  and  C_10 
REMARK    5  A    between atoms: C_9  and  O_12 
REMARK    6  A    between atoms: C_10  and  O_11 
ROOT
HETATM    1  O   UNL     1     -23.088  -2.612 -12.318  1.00  0.00    -0.349 OA
ENDROOT
BRANCH   1   2
HETATM    2  C   UNL     1     -22.479  -3.210 -11.249  1.00  0.00     0.069 A 
HETATM    3  C   UNL     1     -23.119  -3.597 -10.070  1.00  0.00     0.038 A 
HETATM    4  C   UNL     1     -22.396  -4.231  -9.054  1.00  0.00     0.026 A 
HETATM    5  C   UNL     1     -21.034  -4.479  -9.218  1.00  0.00     0.034 A 
HETATM    6  C   UNL     1     -20.392  -4.109 -10.397  1.00  0.00     0.026 A 
HETATM    7 CL   UNL     1     -20.149  -5.254  -7.965  1.00  0.00    -0.084 Cl
HETATM    8  C   UNL     1     -21.117  -3.483 -11.414  1.00  0.00     0.038 A 
ENDBRANCH   1   2
BRANCH   1   9
HETATM    9  C   UNL     1     -24.418  -3.062 -12.608  1.00  0.00     0.209 C 
BRANCH   9  10
HETATM   10  C   UNL     1     -24.742  -2.742 -14.071  1.00  0.00     0.166 C 
BRANCH  10  11
HETATM   11  C   UNL     1     -23.804  -1.701 -14.685  1.00  0.00     0.198 C 
BRANCH  11  12
HETATM   12  O   UNL     1     -22.774  -2.371 -15.416  1.00  0.00    -0.398 OA
HETATM   13  H   UNL     1     -22.917  -2.131 -16.355  1.00  0.00     0.209 HD
ENDBRANCH  11  12
ENDBRANCH  10  11
BRANCH  10  14
HETATM   14  O   UNL     1     -24.650  -3.937 -14.869  1.00  0.00    -0.391 OA
HETATM   15  H   UNL     1     -24.594  -3.642 -15.798  1.00  0.00     0.210 HD
ENDBRANCH  10  14
ENDBRANCH   9  10
ENDBRANCH   1   9
TORSDOF 6
BEGIN_RES ARG D 557
REMARK  4 active torsions:
REMARK  status: ('A' for Active; 'I' for Inactive)
REMARK    1  A    between atoms: CA   and  CB  
REMARK    2  A    between atoms: CB   and  CG  
REMARK    3  A    between atoms: CG   and  CD  
REMARK    4  A    between atoms: CD   and  NE  
REMARK       I    between atoms: NE   and  CZ  
REMARK       I    between atoms: CZ   and  NH1 
REMARK       I    between atoms: CZ   and  NH2 
ROOT
ATOM      1  CA  ARG D 557     -26.217   2.705 -17.014  1.00 35.49     0.159 C 
ENDROOT
BRANCH   1   2
ATOM      2  CB  ARG D 557     -26.789   1.319 -17.183  1.00 35.49     0.034 C 
BRANCH   2   3
ATOM      3  CG  ARG D 557     -28.180   1.122 -16.759  1.00 35.49     0.027 C 
BRANCH   3   4
ATOM      4  CD  ARG D 557     -28.719  -0.190 -17.182  1.00 35.49     0.116 C 
BRANCH   4   5
ATOM      5  NE  ARG D 557     -27.988  -1.288 -16.606  1.00 35.49    -0.212 N 
ATOM      6  CZ  ARG D 557     -28.250  -2.564 -16.785  1.00 35.49     0.666 C 
ATOM      7  NH1 ARG D 557     -29.257  -2.983 -17.528  1.00 35.49    -0.235 N 
ATOM      8  NH2 ARG D 557     -27.467  -3.425 -16.202  1.00 35.49    -0.235 N 
ATOM      9  HH  ARG D 557     -29.783  -2.434 -17.923  1.00 35.49     0.174 HD
ATOM     10  HH  ARG D 557     -29.378  -3.827 -17.611  1.00 35.49     0.174 HD
ATOM     11  HH  ARG D 557     -26.820  -3.125 -15.735  1.00 35.49     0.174 HD
ATOM     12  HH  ARG D 557     -27.602  -4.256 -16.298  1.00 35.49     0.174 HD
ATOM     13  HE  ARG D 557     -27.366  -1.108 -16.055  1.00 35.49     0.178 HD
ENDBRANCH   4   5
ENDBRANCH   3   4
ENDBRANCH   2   3
ENDBRANCH   1   2
END_RES ARG D 557
BEGIN_RES GLU D 570
REMARK  3 active torsions:
REMARK  status: ('A' for Active; 'I' for Inactive)
REMARK    5  A    between atoms: CA   and  CB  
REMARK    6  A    between atoms: CB   and  CG  
REMARK    7  A    between atoms: CG   and  CD  
ROOT
ATOM     14  CA  GLU D 570     -18.033  -6.348 -13.375  1.00 32.92     0.160 C 
ENDROOT
BRANCH  14  15
ATOM     15  CB  GLU D 570     -19.500  -6.345 -13.794  1.00 32.92     0.043 C 
BRANCH  15  16
ATOM     16  CG  GLU D 570     -19.809  -5.986 -15.202  1.00 32.92     0.100 C 
BRANCH  16  17
ATOM     17  CD  GLU D 570     -21.155  -5.317 -15.359  1.00 32.92     0.185 C 
ATOM     18  OE1 GLU D 570     -21.848  -5.109 -14.345  1.00 32.92    -0.647 OA
ATOM     19  OE2 GLU D 570     -21.526  -5.013 -16.509  1.00 32.92    -0.647 OA
ENDBRANCH  16  17
ENDBRANCH  15  16
ENDBRANCH  14  15
END_RES GLU D 570
ENDMDL
MODEL 3
REMARK VINA RESULT:      -6.6      1.004      1.329
REMARK  6 active torsions:
REMARK  status: ('A' for Active; 'I' for Inactive)
REMARK    1  A    between atoms: C_6  and  O_7 
REMARK    2  A    between atoms: O_7  and  C_8 
REMARK    3  A    between atoms: C_8  and  C_9 
REMARK    4  A    between atoms: C_9  and  C_10 
REMARK    5  A    between atoms: C_9  and  O_12 
REMARK    6  A    between atoms: C_10  and  O_11 
ROOT
HETATM    1  O   UNL     1     -22.331  -2.420 -12.485  1.00  0.00    -0.349 OA
ENDROOT
BRANCH   1   2
HETATM    2  C   UNL     1     -21.988  -3.170 -11.392  1.00  0.00     0.069 A 
HETATM    3  C   UNL     1     -20.693  -3.585 -11.076  1.00  0.00     0.038 A 
HETATM    4  C   UNL     1     -20.459  -4.324  -9.911  1.00  0.00     0.026 A 
HETATM    5  C   UNL     1     -21.518  -4.644  -9.064  1.00  0.00     0.034 A 
HETATM    6  C   UNL     1     -22.809  -4.221  -9.365  1.00  0.00     0.026 A 
HETATM    7 CL   UNL     1     -21.225  -5.556  -7.636  1.00  0.00    -0.084 Cl
HETATM    8  C   UNL     1     -23.040  -3.477 -10.525  1.00  0.00     0.038 A 
ENDBRANCH   1   2
BRANCH   1   9
HETATM    9  C   UNL     1     -23.655  -2.632 -12.993  1.00  0.00     0.209 C 
BRANCH   9  10
HETATM   10  C   UNL     1     -23.629  -2.490 -14.518  1.00  0.00     0.166 C 
BRANCH  10  11
HETATM   11  C   UNL     1     -23.792  -1.045 -14.995  1.00  0.00     0.198 C 
BRANCH  11  12
HETATM   12  O   UNL     1     -25.104  -0.586 -14.660  1.00  0.00    -0.398 OA
HETATM   13  H   UNL     1     -25.652  -0.753 -15.454  1.00  0.00     0.209 HD
ENDBRANCH  11  12
ENDBRANCH  10  11
BRANCH  10  14
HETATM   14  O   UNL     1     -22.380  -2.982 -15.038  1.00  0.00    -0.391 OA
HETATM   15  H   UNL     1     -22.114  -2.363 -15.745  1.00  0.00     0.210 HD
ENDBRANCH  10  14
ENDBRANCH   9  10
ENDBRANCH   1   9
TORSDOF 6
BEGIN_RES ARG D 557
REMARK  4 active torsions:
REMARK  status: ('A' for Active; 'I' for Inactive)
REMARK    1  A    between atoms: CA   and  CB  
REMARK    2  A    between atoms: CB   and  CG  
REMARK    3  A    between atoms: CG   and  CD  
REMARK    4  A    between atoms: CD   and  NE  
REMARK       I    between atoms: NE   and  CZ  
REMARK       I    between atoms: CZ   and  NH1 
REMARK       I    between atoms: CZ   and  NH2 
ROOT
ATOM      1  CA  ARG D 557     -26.217   2.705 -17.014  1.00 35.49     0.159 C 
ENDROOT
BRANCH   1   2
ATOM      2  CB  ARG D 557     -26.789   1.319 -17.183  1.00 35.49     0.034 C 
BRANCH   2   3
ATOM      3  CG  ARG D 557     -28.222   1.158 -16.908  1.00 35.49     0.027 C 
BRANCH   3   4
ATOM      4  CD  ARG D 557     -28.646  -0.261 -16.936  1.00 35.49     0.116 C 
BRANCH   4   5
ATOM      5  NE  ARG D 557     -27.725  -1.116 -16.234  1.00 35.49    -0.212 N 
ATOM      6  CZ  ARG D 557     -27.685  -2.428 -16.309  1.00 35.49     0.666 C 
ATOM      7  NH1 ARG D 557     -28.527  -3.121 -17.053  1.00 35.49    -0.235 N 
ATOM      8  NH2 ARG D 557     -26.768  -3.041 -15.618  1.00 35.49    -0.235 N 
ATOM      9  HH  ARG D 557     -29.137  -2.738 -17.517  1.00 35.49     0.174 HD
ATOM     10  HH  ARG D 557     -28.451  -3.975 -17.064  1.00 35.49     0.174 HD
ATOM     11  HH  ARG D 557     -26.234  -2.566 -15.152  1.00 35.49     0.174 HD
ATOM     12  HH  ARG D 557     -26.709  -3.886 -15.644  1.00 35.49     0.174 HD
ATOM     13  HE  ARG D 557     -27.194  -0.757 -15.675  1.00 35.49     0.178 HD
ENDBRANCH   4   5
ENDBRANCH   3   4
ENDBRANCH   2   3
ENDBRANCH   1   2
END_RES ARG D 557
BEGIN_RES GLU D 570
REMARK  3 active torsions:
REMARK  status: ('A' for Active; 'I' for Inactive)
REMARK    5  A    between atoms: CA   and  CB  
REMARK    6  A    between atoms: CB   and  CG  
REMARK    7  A    between atoms: CG   and  CD  
ROOT
ATOM     14  CA  GLU D 570     -18.033  -6.348 -13.375  1.00 32.92     0.160 C 
ENDROOT
BRANCH  14  15
ATOM     15  CB  GLU D 570     -19.500  -6.345 -13.794  1.00 32.92     0.043 C 
BRANCH  15  16
ATOM     16  CG  GLU D 570     -19.796  -6.357 -15.250  1.00 32.92     0.100 C 
BRANCH  16  17
ATOM     17  CD  GLU D 570     -21.244  -6.057 -15.559  1.00 32.92     0.185 C 
ATOM     18  OE1 GLU D 570     -21.516  -5.315 -16.523  1.00 32.92    -0.647 OA
ATOM     19  OE2 GLU D 570     -22.116  -6.554 -14.820  1.00 32.92    -0.647 OA
ENDBRANCH  16  17
ENDBRANCH  15  16
ENDBRANCH  14  15
END_RES GLU D 570
ENDMDL
MODEL 4
REMARK VINA RESULT:      -6.2      7.542      9.748
REMARK  6 active torsions:
REMARK  status: ('A' for Active; 'I' for Inactive)
REMARK    1  A    between atoms: C_6  and  O_7 
REMARK    2  A    between atoms: O_7  and  C_8 
REMARK    3  A    between atoms: C_8  and  C_9 
REMARK    4  A    between atoms: C_9  and  C_10 
REMARK    5  A    between atoms: C_9  and  O_12 
REMARK    6  A    between atoms: C_10  and  O_11 
ROOT
HETATM    1  O   UNL     1     -34.641  -0.916 -11.626  1.00  0.00    -0.349 OA
ENDROOT
BRANCH   1   2
HETATM    2  C   UNL     1     -34.470  -2.254 -11.392  1.00  0.00     0.069 A 
HETATM    3  C   UNL     1     -33.246  -2.926 -11.420  1.00  0.00     0.038 A 
HETATM    4  C   UNL     1     -33.191  -4.294 -11.133  1.00  0.00     0.026 A 
HETATM    5  C   UNL     1     -34.358  -4.988 -10.817  1.00  0.00     0.034 A 
HETATM    6  C   UNL     1     -35.579  -4.321 -10.773  1.00  0.00     0.026 A 
HETATM    7 CL   UNL     1     -34.285  -6.669 -10.468  1.00  0.00    -0.084 Cl
HETATM    8  C   UNL     1     -35.632  -2.953 -11.052  1.00  0.00     0.038 A 
ENDBRANCH   1   2
BRANCH   1   9
HETATM    9  C   UNL     1     -35.994  -0.445 -11.585  1.00  0.00     0.209 C 
BRANCH   9  10
HETATM   10  C   UNL     1     -36.396   0.032 -12.984  1.00  0.00     0.166 C 
BRANCH  10  11
HETATM   11  C   UNL     1     -35.251  -0.030 -13.997  1.00  0.00     0.198 C 
BRANCH  11  12
HETATM   12  O   UNL     1     -35.220  -1.331 -14.590  1.00  0.00    -0.398 OA
HETATM   13  H   UNL     1     -34.900  -1.933 -13.888  1.00  0.00     0.209 HD
ENDBRANCH  11  12
ENDBRANCH  10  11
BRANCH  10  14
HETATM   14  O   UNL     1     -37.472  -0.780 -13.491  1.00  0.00    -0.391 OA
HETATM   15  H   UNL     1     -37.488  -0.640 -14.458  1.00  0.00     0.210 HD
ENDBRANCH  10  14
ENDBRANCH   9  10
ENDBRANCH   1   9
TORSDOF 6
BEGIN_RES ARG D 557
REMARK  4 active torsions:
REMARK  status: ('A' for Active; 'I' for Inactive)
REMARK    1  A    between atoms: CA   and  CB  
REMARK    2  A    between atoms: CB   and  CG  
REMARK    3  A    between atoms: CG   and  CD  
REMARK    4  A    between atoms: CD   and  NE  
REMARK       I    between atoms: NE   and  CZ  
REMARK       I    between atoms: CZ   and  NH1 
REMARK       I    between atoms: CZ   and  NH2 
ROOT
ATOM      1  CA  ARG D 557     -26.217   2.705 -17.014  1.00 35.49     0.159 C 
ENDROOT
BRANCH   1   2
ATOM      2  CB  ARG D 557     -26.789   1.319 -17.183  1.00 35.49     0.034 C 
BRANCH   2   3
ATOM      3  CG  ARG D 557     -25.864   0.195 -16.992  1.00 35.49     0.027 C 
BRANCH   3   4
ATOM      4  CD  ARG D 557     -26.290  -0.706 -15.897  1.00 35.49     0.116 C 
BRANCH   4   5
ATOM      5  NE  ARG D 557     -25.242  -0.923 -14.935  1.00 35.49    -0.212 N 
ATOM      6  CZ  ARG D 557     -24.955  -2.068 -14.357  1.00 35.49     0.666 C 
ATOM      7  NH1 ARG D 557     -25.634  -3.174 -14.598  1.00 35.49    -0.235 N 
ATOM      8  NH2 ARG D 557     -23.955  -2.086 -13.523  1.00 35.49    -0.235 N 
ATOM      9  HH  ARG D 557     -26.294  -3.186 -15.144  1.00 35.49     0.174 HD
ATOM     10  HH  ARG D 557     -25.400  -3.892 -14.193  1.00 35.49     0.174 HD
ATOM     11  HH  ARG D 557     -23.530  -1.358 -13.393  1.00 35.49     0.174 HD
ATOM     12  HH  ARG D 557     -23.738  -2.806 -13.134  1.00 35.49     0.174 HD
ATOM     13  HE  ARG D 557     -24.800  -0.248 -14.667  1.00 35.49     0.178 HD
ENDBRANCH   4   5
ENDBRANCH   3   4
ENDBRANCH   2   3
ENDBRANCH   1   2
END_RES ARG D 557
BEGIN_RES GLU D 570
REMARK  3 active torsions:
REMARK  status: ('A' for Active; 'I' for Inactive)
REMARK    5  A    between atoms: CA   and  CB  
REMARK    6  A    between atoms: CB   and  CG  
REMARK    7  A    between atoms: CG   and  CD  
ROOT
ATOM     14  CA  GLU D 570     -18.033  -6.348 -13.375  1.00 32.92     0.160 C 
ENDROOT
BRANCH  14  15
ATOM     15  CB  GLU D 570     -19.500  -6.345 -13.794  1.00 32.92     0.043 C 
BRANCH  15  16
ATOM     16  CG  GLU D 570     -20.449  -5.566 -12.958  1.00 32.92     0.100 C 
BRANCH  16  17
ATOM     17  CD  GLU D 570     -21.676  -5.119 -13.719  1.00 32.92     0.185 C 
ATOM     18  OE1 GLU D 570     -22.719  -4.863 -13.088  1.00 32.92    -0.647 OA
ATOM     19  OE2 GLU D 570     -21.597  -5.041 -14.961  1.00 32.92    -0.647 OA
ENDBRANCH  16  17
ENDBRANCH  15  16
ENDBRANCH  14  15
END_RES GLU D 570
ENDMDL
MODEL 5
REMARK VINA RESULT:      -6.0      7.304      9.427
REMARK  6 active torsions:
REMARK  status: ('A' for Active; 'I' for Inactive)
REMARK    1  A    between atoms: C_6  and  O_7 
REMARK    2  A    between atoms: O_7  and  C_8 
REMARK    3  A    between atoms: C_8  and  C_9 
REMARK    4  A    between atoms: C_9  and  C_10 
REMARK    5  A    between atoms: C_9  and  O_12 
REMARK    6  A    between atoms: C_10  and  O_11 
ROOT
HETATM    1  O   UNL     1     -34.525  -0.954 -11.671  1.00  0.00    -0.349 OA
ENDROOT
BRANCH   1   2
HETATM    2  C   UNL     1     -34.384  -2.295 -11.438  1.00  0.00     0.069 A 
HETATM    3  C   UNL     1     -33.178  -2.998 -11.478  1.00  0.00     0.038 A 
HETATM    4  C   UNL     1     -33.153  -4.367 -11.191  1.00  0.00     0.026 A 
HETATM    5  C   UNL     1     -34.333  -5.031 -10.861  1.00  0.00     0.034 A 
HETATM    6  C   UNL     1     -35.537  -4.334 -10.804  1.00  0.00     0.026 A 
HETATM    7 CL   UNL     1     -34.298  -6.714 -10.512  1.00  0.00    -0.084 Cl
HETATM    8  C   UNL     1     -35.559  -2.966 -11.084  1.00  0.00     0.038 A 
ENDBRANCH   1   2
BRANCH   1   9
HETATM    9  C   UNL     1     -35.860  -0.442 -11.571  1.00  0.00     0.209 C 
BRANCH   9  10
HETATM   10  C   UNL     1     -36.282   0.110 -12.936  1.00  0.00     0.166 C 
BRANCH  10  11
HETATM   11  C   UNL     1     -35.118   0.694 -13.740  1.00  0.00     0.198 C 
BRANCH  11  12
HETATM   12  O   UNL     1     -34.686  -0.269 -14.706  1.00  0.00    -0.398 OA
HETATM   13  H   UNL     1     -34.701   0.197 -15.567  1.00  0.00     0.209 HD
ENDBRANCH  11  12
ENDBRANCH  10  11
BRANCH  10  14
HETATM   14  O   UNL     1     -36.878  -0.934 -13.728  1.00  0.00    -0.391 OA
HETATM   15  H   UNL     1     -36.375  -0.964 -14.565  1.00  0.00     0.210 HD
ENDBRANCH  10  14
ENDBRANCH   9  10
ENDBRANCH   1   9
TORSDOF 6
BEGIN_RES ARG D 557
REMARK  4 active torsions:
REMARK  status: ('A' for Active; 'I' for Inactive)
REMARK    1  A    between atoms: CA   and  CB  
REMARK    2  A    between atoms: CB   and  CG  
REMARK    3  A    between atoms: CG   and  CD  
REMARK    4  A    between atoms: CD   and  NE  
REMARK       I    between atoms: NE   and  CZ  
REMARK       I    between atoms: CZ   and  NH1 
REMARK       I    between atoms: CZ   and  NH2 
ROOT
ATOM      1  CA  ARG D 557     -26.217   2.705 -17.014  1.00 35.49     0.159 C 
ENDROOT
BRANCH   1   2
ATOM      2  CB  ARG D 557     -26.789   1.319 -17.183  1.00 35.49     0.034 C 
BRANCH   2   3
ATOM      3  CG  ARG D 557     -28.230   1.227 -17.445  1.00 35.49     0.027 C 
BRANCH   3   4
ATOM      4  CD  ARG D 557     -28.916   0.305 -16.510  1.00 35.49     0.116 C 
BRANCH   4   5
ATOM      5  NE  ARG D 557     -28.137  -0.875 -16.242  1.00 35.49    -0.212 N 
ATOM      6  CZ  ARG D 557     -28.376  -2.077 -16.716  1.00 35.49     0.666 C 
ATOM      7  NH1 ARG D 557     -29.403  -2.337 -17.504  1.00 35.49    -0.235 N 
ATOM      8  NH2 ARG D 557     -27.551  -3.028 -16.386  1.00 35.49    -0.235 N 
ATOM      9  HH  ARG D 557     -29.958  -1.727 -17.736  1.00 35.49     0.174 HD
ATOM     10  HH  ARG D 557     -29.508  -3.140 -17.784  1.00 35.49     0.174 HD
ATOM     11  HH  ARG D 557     -26.892  -2.829 -15.881  1.00 35.49     0.174 HD
ATOM     12  HH  ARG D 557     -27.671  -3.816 -16.675  1.00 35.49     0.174 HD
ATOM     13  HE  ARG D 557     -27.497  -0.813 -15.685  1.00 35.49     0.178 HD
ENDBRANCH   4   5
ENDBRANCH   3   4
ENDBRANCH   2   3
ENDBRANCH   1   2
END_RES ARG D 557
BEGIN_RES GLU D 570
REMARK  3 active torsions:
REMARK  status: ('A' for Active; 'I' for Inactive)
REMARK    5  A    between atoms: CA   and  CB  
REMARK    6  A    between atoms: CB   and  CG  
REMARK    7  A    between atoms: CG   and  CD  
ROOT
ATOM     14  CA  GLU D 570     -18.033  -6.348 -13.375  1.00 32.92     0.160 C 
ENDROOT
BRANCH  14  15
ATOM     15  CB  GLU D 570     -19.500  -6.345 -13.794  1.00 32.92     0.043 C 
BRANCH  15  16
ATOM     16  CG  GLU D 570     -20.444  -5.542 -12.975  1.00 32.92     0.100 C 
BRANCH  16  17
ATOM     17  CD  GLU D 570     -21.740  -5.243 -13.692  1.00 32.92     0.185 C 
ATOM     18  OE1 GLU D 570     -22.269  -4.125 -13.544  1.00 32.92    -0.647 OA
ATOM     19  OE2 GLU D 570     -22.240  -6.143 -14.396  1.00 32.92    -0.647 OA
ENDBRANCH  16  17
ENDBRANCH  15  16
ENDBRANCH  14  15
END_RES GLU D 570
ENDMDL
MODEL 6
REMARK VINA RESULT:      -5.6      4.822      6.746
REMARK  6 active torsions:
REMARK  status: ('A' for Active; 'I' for Inactive)
REMARK    1  A    between atoms: C_6  and  O_7 
REMARK    2  A    between atoms: O_7  and  C_8 
REMARK    3  A    between atoms: C_8  and  C_9 
REMARK    4  A    between atoms: C_9  and  C_10 
REMARK    5  A    between atoms: C_9  and  O_12 
REMARK    6  A    between atoms: C_10  and  O_11 
ROOT
HETATM    1  O   UNL     1     -26.134  -5.864 -16.830  1.00  0.00    -0.349 OA
ENDROOT
BRANCH   1   2
HETATM    2  C   UNL     1     -27.484  -5.961 -17.036  1.00  0.00     0.069 A 
HETATM    3  C   UNL     1     -28.098  -6.134 -18.278  1.00  0.00     0.038 A 
HETATM    4  C   UNL     1     -29.490  -6.251 -18.361  1.00  0.00     0.026 A 
HETATM    5  C   UNL     1     -30.265  -6.197 -17.204  1.00  0.00     0.034 A 
HETATM    6  C   UNL     1     -29.658  -6.039 -15.961  1.00  0.00     0.026 A 
HETATM    7 CL   UNL     1     -31.975  -6.338 -17.313  1.00  0.00    -0.084 Cl
HETATM    8  C   UNL     1     -28.268  -5.930 -15.879  1.00  0.00     0.038 A 
ENDBRANCH   1   2
BRANCH   1   9
HETATM    9  C   UNL     1     -25.700  -6.016 -15.472  1.00  0.00     0.209 C 
BRANCH   9  10
HETATM   10  C   UNL     1     -24.314  -6.668 -15.465  1.00  0.00     0.166 C 
BRANCH  10  11
HETATM   11  C   UNL     1     -24.035  -7.513 -16.711  1.00  0.00     0.198 C 
BRANCH  11  12
HETATM   12  O   UNL     1     -23.332  -6.717 -17.669  1.00  0.00    -0.398 OA
HETATM   13  H   UNL     1     -22.383  -6.827 -17.456  1.00  0.00     0.209 HD
ENDBRANCH  11  12
ENDBRANCH  10  11
BRANCH  10  14
HETATM   14  O   UNL     1     -23.293  -5.656 -15.387  1.00  0.00    -0.391 OA
HETATM   15  H   UNL     1     -23.606  -5.002 -14.733  1.00  0.00     0.210 HD
ENDBRANCH  10  14
ENDBRANCH   9  10
ENDBRANCH   1   9
TORSDOF 6
BEGIN_RES ARG D 557
REMARK  4 active torsions:
REMARK  status: ('A' for Active; 'I' for Inactive)
REMARK    1  A    between atoms: CA   and  CB  
REMARK    2  A    between atoms: CB   and  CG  
REMARK    3  A    between atoms: CG   and  CD  
REMARK    4  A    between atoms: CD   and  NE  
REMARK       I    between atoms: NE   and  CZ  
REMARK       I    between atoms: CZ   and  NH1 
REMARK       I    between atoms: CZ   and  NH2 
ROOT
ATOM      1  CA  ARG D 557     -26.217   2.705 -17.014  1.00 35.49     0.159 C 
ENDROOT
BRANCH   1   2
ATOM      2  CB  ARG D 557     -26.789   1.319 -17.183  1.00 35.49     0.034 C 
BRANCH   2   3
ATOM      3  CG  ARG D 557     -28.237   1.225 -17.408  1.00 35.49     0.027 C 
BRANCH   3   4
ATOM      4  CD  ARG D 557     -28.876   0.205 -16.546  1.00 35.49     0.116 C 
BRANCH   4   5
ATOM      5  NE  ARG D 557     -27.932  -0.768 -16.064  1.00 35.49    -0.212 N 
ATOM      6  CZ  ARG D 557     -27.869  -2.027 -16.435  1.00 35.49     0.666 C 
ATOM      7  NH1 ARG D 557     -28.708  -2.551 -17.310  1.00 35.49    -0.235 N 
ATOM      8  NH2 ARG D 557     -26.932  -2.762 -15.909  1.00 35.49    -0.235 N 
ATOM      9  HH  ARG D 557     -29.330  -2.086 -17.670  1.00 35.49     0.174 HD
ATOM     10  HH  ARG D 557     -28.617  -3.378 -17.515  1.00 35.49     0.174 HD
ATOM     11  HH  ARG D 557     -26.401  -2.395 -15.353  1.00 35.49     0.174 HD
ATOM     12  HH  ARG D 557     -26.858  -3.578 -16.127  1.00 35.49     0.174 HD
ATOM     13  HE  ARG D 557     -27.400  -0.535 -15.443  1.00 35.49     0.178 HD
ENDBRANCH   4   5
ENDBRANCH   3   4
ENDBRANCH   2   3
ENDBRANCH   1   2
END_RES ARG D 557
BEGIN_RES GLU D 570
REMARK  3 active torsions:
REMARK  status: ('A' for Active; 'I' for Inactive)
REMARK    5  A    between atoms: CA   and  CB  
REMARK    6  A    between atoms: CB   and  CG  
REMARK    7  A    between atoms: CG   and  CD  
ROOT
ATOM     14  CA  GLU D 570     -18.033  -6.348 -13.375  1.00 32.92     0.160 C 
ENDROOT
BRANCH  14  15
ATOM     15  CB  GLU D 570     -19.500  -6.345 -13.794  1.00 32.92     0.043 C 
BRANCH  15  16
ATOM     16  CG  GLU D 570     -20.102  -7.645 -14.189  1.00 32.92     0.100 C 
BRANCH  16  17
ATOM     17  CD  GLU D 570     -20.525  -7.682 -15.639  1.00 32.92     0.185 C 
ATOM     18  OE1 GLU D 570     -20.716  -8.786 -16.185  1.00 32.92    -0.647 OA
ATOM     19  OE2 GLU D 570     -20.651  -6.597 -16.239  1.00 32.92    -0.647 OA
ENDBRANCH  16  17
ENDBRANCH  15  16
ENDBRANCH  14  15
END_RES GLU D 570
ENDMDL
MODEL 7
REMARK VINA RESULT:      -5.6      2.415      3.152
REMARK  6 active torsions:
REMARK  status: ('A' for Active; 'I' for Inactive)
REMARK    1  A    between atoms: C_6  and  O_7 
REMARK    2  A    between atoms: O_7  and  C_8 
REMARK    3  A    between atoms: C_8  and  C_9 
REMARK    4  A    between atoms: C_9  and  C_10 
REMARK    5  A    between atoms: C_9  and  O_12 
REMARK    6  A    between atoms: C_10  and  O_11 
ROOT
HETATM    1  O   UNL     1     -23.792  -4.845 -14.712  1.00  0.00    -0.349 OA
ENDROOT
BRANCH   1   2
HETATM    2  C   UNL     1     -23.381  -4.433 -13.473  1.00  0.00     0.069 A 
HETATM    3  C   UNL     1     -22.737  -3.225 -13.200  1.00  0.00     0.038 A 
HETATM    4  C   UNL     1     -22.390  -2.897 -11.884  1.00  0.00     0.026 A 
HETATM    5  C   UNL     1     -22.689  -3.776 -10.845  1.00  0.00     0.034 A 
HETATM    6  C   UNL     1     -23.345  -4.976 -11.108  1.00  0.00     0.026 A 
HETATM    7 CL   UNL     1     -22.258  -3.371  -9.231  1.00  0.00    -0.084 Cl
HETATM    8  C   UNL     1     -23.697  -5.298 -12.421  1.00  0.00     0.038 A 
ENDBRANCH   1   2
BRANCH   1   9
HETATM    9  C   UNL     1     -23.984  -6.258 -14.866  1.00  0.00     0.209 C 
BRANCH   9  10
HETATM   10  C   UNL     1     -25.083  -6.498 -15.905  1.00  0.00     0.166 C 
BRANCH  10  11
HETATM   11  C   UNL     1     -24.563  -7.121 -17.203  1.00  0.00     0.198 C 
BRANCH  11  12
HETATM   12  O   UNL     1     -25.383  -6.688 -18.292  1.00  0.00    -0.398 OA
HETATM   13  H   UNL     1     -24.795  -6.670 -19.074  1.00  0.00     0.209 HD
ENDBRANCH  11  12
ENDBRANCH  10  11
BRANCH  10  14
HETATM   14  O   UNL     1     -26.084  -7.382 -15.368  1.00  0.00    -0.391 OA
HETATM   15  H   UNL     1     -25.610  -8.180 -15.064  1.00  0.00     0.210 HD
ENDBRANCH  10  14
ENDBRANCH   9  10
ENDBRANCH   1   9
TORSDOF 6
BEGIN_RES ARG D 557
REMARK  4 active torsions:
REMARK  status: ('A' for Active; 'I' for Inactive)
REMARK    1  A    between atoms: CA   and  CB  
REMARK    2  A    between atoms: CB   and  CG  
REMARK    3  A    between atoms: CG   and  CD  
REMARK    4  A    between atoms: CD   and  NE  
REMARK       I    between atoms: NE   and  CZ  
REMARK       I    between atoms: CZ   and  NH1 
REMARK       I    between atoms: CZ   and  NH2 
ROOT
ATOM      1  CA  ARG D 557     -26.217   2.705 -17.014  1.00 35.49     0.159 C 
ENDROOT
BRANCH   1   2
ATOM      2  CB  ARG D 557     -26.789   1.319 -17.183  1.00 35.49     0.034 C 
BRANCH   2   3
ATOM      3  CG  ARG D 557     -28.210   1.146 -16.857  1.00 35.49     0.027 C 
BRANCH   3   4
ATOM      4  CD  ARG D 557     -28.543  -0.254 -16.511  1.00 35.49     0.116 C 
BRANCH   4   5
ATOM      5  NE  ARG D 557     -27.439  -0.937 -15.890  1.00 35.49    -0.212 N 
ATOM      6  CZ  ARG D 557     -27.191  -2.225 -15.968  1.00 35.49     0.666 C 
ATOM      7  NH1 ARG D 557     -27.966  -3.058 -16.637  1.00 35.49    -0.235 N 
ATOM      8  NH2 ARG D 557     -26.130  -2.670 -15.359  1.00 35.49    -0.235 N 
ATOM      9  HH  ARG D 557     -28.668  -2.787 -17.048  1.00 35.49     0.174 HD
ATOM     10  HH  ARG D 557     -27.753  -3.888 -16.655  1.00 35.49     0.174 HD
ATOM     11  HH  ARG D 557     -25.644  -2.108 -14.940  1.00 35.49     0.174 HD
ATOM     12  HH  ARG D 557     -25.935  -3.495 -15.389  1.00 35.49     0.174 HD
ATOM     13  HE  ARG D 557     -26.928  -0.489 -15.379  1.00 35.49     0.178 HD
ENDBRANCH   4   5
ENDBRANCH   3   4
ENDBRANCH   2   3
ENDBRANCH   1   2
END_RES ARG D 557
BEGIN_RES GLU D 570
REMARK  3 active torsions:
REMARK  status: ('A' for Active; 'I' for Inactive)
REMARK    5  A    between atoms: CA   and  CB  
REMARK    6  A    between atoms: CB   and  CG  
REMARK    7  A    between atoms: CG   and  CD  
ROOT
ATOM     14  CA  GLU D 570     -18.033  -6.348 -13.375  1.00 32.92     0.160 C 
ENDROOT
BRANCH  14  15
ATOM     15  CB  GLU D 570     -19.500  -6.345 -13.794  1.00 32.92     0.043 C 
BRANCH  15  16
ATOM     16  CG  GLU D 570     -19.806  -6.025 -15.212  1.00 32.92     0.100 C 
BRANCH  16  17
ATOM     17  CD  GLU D 570     -20.599  -7.110 -15.903  1.00 32.92     0.185 C 
ATOM     18  OE1 GLU D 570     -20.665  -8.238 -15.379  1.00 32.92    -0.647 OA
ATOM     19  OE2 GLU D 570     -21.147  -6.833 -16.989  1.00 32.92    -0.647 OA
ENDBRANCH  16  17
ENDBRANCH  15  16
ENDBRANCH  14  15
END_RES GLU D 570
ENDMDL
MODEL 8
REMARK VINA RESULT:      -5.6      2.982      4.446
REMARK  6 active torsions:
REMARK  status: ('A' for Active; 'I' for Inactive)
REMARK    1  A    between atoms: C_6  and  O_7 
REMARK    2  A    between atoms: O_7  and  C_8 
REMARK    3  A    between atoms: C_8  and  C_9 
REMARK    4  A    between atoms: C_9  and  C_10 
REMARK    5  A    between atoms: C_9  and  O_12 
REMARK    6  A    between atoms: C_10  and  O_11 
ROOT
HETATM    1  O   UNL     1     -21.172  -4.543  -8.406  1.00  0.00    -0.349 OA
ENDROOT
BRANCH   1   2
HETATM    2  C   UNL     1     -21.174  -5.286  -7.256  1.00  0.00     0.069 A 
HETATM    3  C   UNL     1     -22.241  -5.380  -6.360  1.00  0.00     0.038 A 
HETATM    4  C   UNL     1     -22.138  -6.199  -5.231  1.00  0.00     0.026 A 
HETATM    5  C   UNL     1     -20.970  -6.924  -5.000  1.00  0.00     0.034 A 
HETATM    6  C   UNL     1     -19.908  -6.847  -5.896  1.00  0.00     0.026 A 
HETATM    7 CL   UNL     1     -20.847  -7.926  -3.608  1.00  0.00    -0.084 Cl
HETATM    8  C   UNL     1     -20.016  -6.034  -7.028  1.00  0.00     0.038 A 
ENDBRANCH   1   2
BRANCH   1   9
HETATM    9  C   UNL     1     -22.306  -3.686  -8.595  1.00  0.00     0.209 C 
BRANCH   9  10
HETATM   10  C   UNL     1     -22.984  -4.046  -9.921  1.00  0.00     0.166 C 
BRANCH  10  11
HETATM   11  C   UNL     1     -24.512  -3.998  -9.853  1.00  0.00     0.198 C 
BRANCH  11  12
HETATM   12  O   UNL     1     -25.003  -3.187 -10.924  1.00  0.00    -0.398 OA
HETATM   13  H   UNL     1     -24.234  -3.028 -11.509  1.00  0.00     0.209 HD
ENDBRANCH  11  12
ENDBRANCH  10  11
BRANCH  10  14
HETATM   14  O   UNL     1     -22.564  -3.134 -10.952  1.00  0.00    -0.391 OA
HETATM   15  H   UNL     1     -22.041  -3.661 -11.587  1.00  0.00     0.210 HD
ENDBRANCH  10  14
ENDBRANCH   9  10
ENDBRANCH   1   9
TORSDOF 6
BEGIN_RES ARG D 557
REMARK  4 active torsions:
REMARK  status: ('A' for Active; 'I' for Inactive)
REMARK    1  A    between atoms: CA   and  CB  
REMARK    2  A    between atoms: CB   and  CG  
REMARK    3  A    between atoms: CG   and  CD  
REMARK    4  A    between atoms: CD   and  NE  
REMARK       I    between atoms: NE   and  CZ  
REMARK       I    between atoms: CZ   and  NH1 
REMARK       I    between atoms: CZ   and  NH2 
ROOT
ATOM      1  CA  ARG D 557     -26.217   2.705 -17.014  1.00 35.49     0.159 C 
ENDROOT
BRANCH   1   2
ATOM      2  CB  ARG D 557     -26.789   1.319 -17.183  1.00 35.49     0.034 C 
BRANCH   2   3
ATOM      3  CG  ARG D 557     -25.866   0.195 -16.987  1.00 35.49     0.027 C 
BRANCH   3   4
ATOM      4  CD  ARG D 557     -26.287  -0.696 -15.881  1.00 35.49     0.116 C 
BRANCH   4   5
ATOM      5  NE  ARG D 557     -25.225  -0.930 -14.939  1.00 35.49    -0.212 N 
ATOM      6  CZ  ARG D 557     -24.967  -2.071 -14.341  1.00 35.49     0.666 C 
ATOM      7  NH1 ARG D 557     -25.692  -3.157 -14.541  1.00 35.49    -0.235 N 
ATOM      8  NH2 ARG D 557     -23.949  -2.108 -13.531  1.00 35.49    -0.235 N 
ATOM      9  HH  ARG D 557     -26.364  -3.156 -15.072  1.00 35.49     0.174 HD
ATOM     10  HH  ARG D 557     -25.474  -3.874 -14.125  1.00 35.49     0.174 HD
ATOM     11  HH  ARG D 557     -23.495  -1.394 -13.426  1.00 35.49     0.174 HD
ATOM     12  HH  ARG D 557     -23.749  -2.828 -13.130  1.00 35.49     0.174 HD
ATOM     13  HE  ARG D 557     -24.753  -0.266 -14.696  1.00 35.49     0.178 HD
ENDBRANCH   4   5
ENDBRANCH   3   4
ENDBRANCH   2   3
ENDBRANCH   1   2
END_RES ARG D 557
BEGIN_RES GLU D 570
REMARK  3 active torsions:
REMARK  status: ('A' for Active; 'I' for Inactive)
REMARK    5  A    between atoms: CA   and  CB  
REMARK    6  A    between atoms: CB   and  CG  
REMARK    7  A    between atoms: CG   and  CD  
ROOT
ATOM     14  CA  GLU D 570     -18.033  -6.348 -13.375  1.00 32.92     0.160 C 
ENDROOT
BRANCH  14  15
ATOM     15  CB  GLU D 570     -19.500  -6.345 -13.794  1.00 32.92     0.043 C 
BRANCH  15  16
ATOM     16  CG  GLU D 570     -20.437  -5.508 -13.001  1.00 32.92     0.100 C 
BRANCH  16  17
ATOM     17  CD  GLU D 570     -21.678  -5.120 -13.771  1.00 32.92     0.185 C 
ATOM     18  OE1 GLU D 570     -22.757  -5.004 -13.160  1.00 32.92    -0.647 OA
ATOM     19  OE2 GLU D 570     -21.572  -4.948 -15.002  1.00 32.92    -0.647 OA
ENDBRANCH  16  17
ENDBRANCH  15  16
ENDBRANCH  14  15
END_RES GLU D 570
ENDMDL
MODEL 9
REMARK VINA RESULT:      -5.5      5.554      7.096
REMARK  6 active torsions:
REMARK  status: ('A' for Active; 'I' for Inactive)
REMARK    1  A    between atoms: C_6  and  O_7 
REMARK    2  A    between atoms: O_7  and  C_8 
REMARK    3  A    between atoms: C_8  and  C_9 
REMARK    4  A    between atoms: C_9  and  C_10 
REMARK    5  A    between atoms: C_9  and  O_12 
REMARK    6  A    between atoms: C_10  and  O_11 
ROOT
HETATM    1  O   UNL     1     -21.885  -5.905  -4.200  1.00  0.00    -0.349 OA
ENDROOT
BRANCH   1   2
HETATM    2  C   UNL     1     -21.674  -6.669  -3.085  1.00  0.00     0.069 A 
HETATM    3  C   UNL     1     -20.812  -7.765  -3.011  1.00  0.00     0.038 A 
HETATM    4  C   UNL     1     -20.654  -8.453  -1.804  1.00  0.00     0.026 A 
HETATM    5  C   UNL     1     -21.356  -8.044  -0.671  1.00  0.00     0.034 A 
HETATM    6  C   UNL     1     -22.206  -6.943  -0.733  1.00  0.00     0.026 A 
HETATM    7 CL   UNL     1     -21.161  -8.895   0.810  1.00  0.00    -0.084 Cl
HETATM    8  C   UNL     1     -22.357  -6.252  -1.938  1.00  0.00     0.038 A 
ENDBRANCH   1   2
BRANCH   1   9
HETATM    9  C   UNL     1     -20.740  -5.696  -5.038  1.00  0.00     0.209 C 
BRANCH   9  10
HETATM   10  C   UNL     1     -21.213  -5.471  -6.477  1.00  0.00     0.166 C 
BRANCH  10  11
HETATM   11  C   UNL     1     -21.057  -4.022  -6.946  1.00  0.00     0.198 C 
BRANCH  11  12
HETATM   12  O   UNL     1     -22.302  -3.566  -7.481  1.00  0.00    -0.398 OA
HETATM   13  H   UNL     1     -22.941  -3.615  -6.741  1.00  0.00     0.209 HD
ENDBRANCH  11  12
ENDBRANCH  10  11
BRANCH  10  14
HETATM   14  O   UNL     1     -20.462  -6.304  -7.379  1.00  0.00    -0.391 OA
HETATM   15  H   UNL     1     -20.166  -5.723  -8.106  1.00  0.00     0.210 HD
ENDBRANCH  10  14
ENDBRANCH   9  10
ENDBRANCH   1   9
TORSDOF 6
BEGIN_RES ARG D 557
REMARK  4 active torsions:
REMARK  status: ('A' for Active; 'I' for Inactive)
REMARK    1  A    between atoms: CA   and  CB  
REMARK    2  A    between atoms: CB   and  CG  
REMARK    3  A    between atoms: CG   and  CD  
REMARK    4  A    between atoms: CD   and  NE  
REMARK       I    between atoms: NE   and  CZ  
REMARK       I    between atoms: CZ   and  NH1 
REMARK       I    between atoms: CZ   and  NH2 
ROOT
ATOM      1  CA  ARG D 557     -26.217   2.705 -17.014  1.00 35.49     0.159 C 
ENDROOT
BRANCH   1   2
ATOM      2  CB  ARG D 557     -26.789   1.319 -17.183  1.00 35.49     0.034 C 
BRANCH   2   3
ATOM      3  CG  ARG D 557     -25.863   0.195 -16.997  1.00 35.49     0.027 C 
BRANCH   3   4
ATOM      4  CD  ARG D 557     -26.291  -0.714 -15.908  1.00 35.49     0.116 C 
BRANCH   4   5
ATOM      5  NE  ARG D 557     -25.257  -0.908 -14.927  1.00 35.49    -0.212 N 
ATOM      6  CZ  ARG D 557     -24.954  -2.047 -14.345  1.00 35.49     0.666 C 
ATOM      7  NH1 ARG D 557     -25.602  -3.169 -14.602  1.00 35.49    -0.235 N 
ATOM      8  NH2 ARG D 557     -23.970  -2.044 -13.493  1.00 35.49    -0.235 N 
ATOM      9  HH  ARG D 557     -26.251  -3.195 -15.161  1.00 35.49     0.174 HD
ATOM     10  HH  ARG D 557     -25.358  -3.882 -14.194  1.00 35.49     0.174 HD
ATOM     11  HH  ARG D 557     -23.565  -1.306 -13.353  1.00 35.49     0.174 HD
ATOM     12  HH  ARG D 557     -23.743  -2.760 -13.101  1.00 35.49     0.174 HD
ATOM     13  HE  ARG D 557     -24.837  -0.223 -14.648  1.00 35.49     0.178 HD
ENDBRANCH   4   5
ENDBRANCH   3   4
ENDBRANCH   2   3
ENDBRANCH   1   2
END_RES ARG D 557
BEGIN_RES GLU D 570
REMARK  3 active torsions:
REMARK  status: ('A' for Active; 'I' for Inactive)
REMARK    5  A    between atoms: CA   and  CB  
REMARK    6  A    between atoms: CB   and  CG  
REMARK    7  A    between atoms: CG   and  CD  
ROOT
ATOM     14  CA  GLU D 570     -18.033  -6.348 -13.375  1.00 32.92     0.160 C 
ENDROOT
BRANCH  14  15
ATOM     15  CB  GLU D 570     -19.500  -6.345 -13.794  1.00 32.92     0.043 C 
BRANCH  15  16
ATOM     16  CG  GLU D 570     -20.445  -5.545 -12.973  1.00 32.92     0.100 C 
BRANCH  16  17
ATOM     17  CD  GLU D 570     -21.741  -5.246 -13.689  1.00 32.92     0.185 C 
ATOM     18  OE1 GLU D 570     -21.905  -5.675 -14.847  1.00 32.92    -0.647 OA
ATOM     19  OE2 GLU D 570     -22.594  -4.560 -13.092  1.00 32.92    -0.647 OA
ENDBRANCH  16  17
ENDBRANCH  15  16
ENDBRANCH  14  15
END_RES GLU D 570
ENDMDL
