MODEL 1
REMARK VINA RESULT:      -1.0      0.000      0.000
REMARK  15 active torsions:
REMARK  status: ('A' for Active; 'I' for Inactive)
REMARK    1  A    between atoms: C_2  and  C_3 
REMARK    2  A    between atoms: C_3  and  C_4 
REMARK    3  A    between atoms: C_4  and  C_5 
REMARK    4  A    between atoms: C_5  and  C_6 
REMARK    5  A    between atoms: C_6  and  C_7 
REMARK    6  A    between atoms: C_7  and  C_8 
REMARK    7  A    between atoms: C_8  and  C_9 
REMARK    8  A    between atoms: C_9  and  C_10 
REMARK    9  A    between atoms: C_10  and  C_11 
REMARK   10  A    between atoms: C_11  and  C_12 
REMARK   11  A    between atoms: C_12  and  C_13 
REMARK   12  A    between atoms: C_13  and  C_14 
REMARK   13  A    between atoms: C_14  and  C_15 
REMARK   14  A    between atoms: C_15  and  C_16 
REMARK   15  A    between atoms: C_16  and  N_17 
ROOT
HETATM    1 CL   UNL     2     -32.754  -3.744 -11.654  1.00  0.00     0.000 Cl
ENDROOT
TORSDOF 15
BEGIN_RES ARG D 557
REMARK  4 active torsions:
REMARK  status: ('A' for Active; 'I' for Inactive)
REMARK    1  A    between atoms: CA   and  CB  
REMARK    2  A    between atoms: CB   and  CG  
REMARK    3  A    between atoms: CG   and  CD  
REMARK    4  A    between atoms: CD   and  NE  
REMARK       I    between atoms: NE   and  CZ  
REMARK       I    between atoms: CZ   and  NH1 
REMARK       I    between atoms: CZ   and  NH2 
ROOT
ATOM      1  CA  ARG D 557     -26.217   2.705 -17.014  1.00 35.49     0.159 C 
ENDROOT
BRANCH   1   2
ATOM      2  CB  ARG D 557     -26.789   1.319 -17.183  1.00 35.49     0.034 C 
BRANCH   2   3
ATOM      3  CG  ARG D 557     -25.834   0.204 -17.167  1.00 35.49     0.027 C 
BRANCH   3   4
ATOM      4  CD  ARG D 557     -24.762   0.394 -16.164  1.00 35.49     0.116 C 
BRANCH   4   5
ATOM      5  NE  ARG D 557     -24.927  -0.468 -15.023  1.00 35.49    -0.212 N 
ATOM      6  CZ  ARG D 557     -24.113  -1.437 -14.668  1.00 35.49     0.666 C 
ATOM      7  NH1 ARG D 557     -23.027  -1.739 -15.356  1.00 35.49    -0.235 N 
ATOM      8  NH2 ARG D 557     -24.408  -2.104 -13.591  1.00 35.49    -0.235 N 
ATOM      9  HH  ARG D 557     -22.813  -1.312 -16.067  1.00 35.49     0.174 HD
ATOM     10  HH  ARG D 557     -22.533  -2.379 -15.075  1.00 35.49     0.174 HD
ATOM     11  HH  ARG D 557     -25.112  -1.882 -13.163  1.00 35.49     0.174 HD
ATOM     12  HH  ARG D 557     -23.905  -2.734 -13.328  1.00 35.49     0.174 HD
ATOM     13  HE  ARG D 557     -25.639  -0.391 -14.565  1.00 35.49     0.178 HD
ENDBRANCH   4   5
ENDBRANCH   3   4
ENDBRANCH   2   3
ENDBRANCH   1   2
END_RES ARG D 557
BEGIN_RES GLU D 570
REMARK  3 active torsions:
REMARK  status: ('A' for Active; 'I' for Inactive)
REMARK    5  A    between atoms: CA   and  CB  
REMARK    6  A    between atoms: CB   and  CG  
REMARK    7  A    between atoms: CG   and  CD  
ROOT
ATOM     14  CA  GLU D 570     -18.033  -6.348 -13.375  1.00 32.92     0.160 C 
ENDROOT
BRANCH  14  15
ATOM     15  CB  GLU D 570     -19.500  -6.345 -13.794  1.00 32.92     0.043 C 
BRANCH  15  16
ATOM     16  CG  GLU D 570     -20.438  -5.515 -12.995  1.00 32.92     0.100 C 
BRANCH  16  17
ATOM     17  CD  GLU D 570     -21.739  -5.240 -13.713  1.00 32.92     0.185 C 
ATOM     18  OE1 GLU D 570     -22.188  -6.094 -14.502  1.00 32.92    -0.647 OA
ATOM     19  OE2 GLU D 570     -22.307  -4.151 -13.496  1.00 32.92    -0.647 OA
ENDBRANCH  16  17
ENDBRANCH  15  16
ENDBRANCH  14  15
END_RES GLU D 570
ENDMDL
MODEL 2
REMARK VINA RESULT:      -1.0      3.512      3.634
REMARK  15 active torsions:
REMARK  status: ('A' for Active; 'I' for Inactive)
REMARK    1  A    between atoms: C_2  and  C_3 
REMARK    2  A    between atoms: C_3  and  C_4 
REMARK    3  A    between atoms: C_4  and  C_5 
REMARK    4  A    between atoms: C_5  and  C_6 
REMARK    5  A    between atoms: C_6  and  C_7 
REMARK    6  A    between atoms: C_7  and  C_8 
REMARK    7  A    between atoms: C_8  and  C_9 
REMARK    8  A    between atoms: C_9  and  C_10 
REMARK    9  A    between atoms: C_10  and  C_11 
REMARK   10  A    between atoms: C_11  and  C_12 
REMARK   11  A    between atoms: C_12  and  C_13 
REMARK   12  A    between atoms: C_13  and  C_14 
REMARK   13  A    between atoms: C_14  and  C_15 
REMARK   14  A    between atoms: C_15  and  C_16 
REMARK   15  A    between atoms: C_16  and  N_17 
ROOT
HETATM    1 CL   UNL     2     -29.859   7.485 -12.751  1.00  0.00     0.000 Cl
ENDROOT
TORSDOF 15
BEGIN_RES ARG D 557
REMARK  4 active torsions:
REMARK  status: ('A' for Active; 'I' for Inactive)
REMARK    1  A    between atoms: CA   and  CB  
REMARK    2  A    between atoms: CB   and  CG  
REMARK    3  A    between atoms: CG   and  CD  
REMARK    4  A    between atoms: CD   and  NE  
REMARK       I    between atoms: NE   and  CZ  
REMARK       I    between atoms: CZ   and  NH1 
REMARK       I    between atoms: CZ   and  NH2 
ROOT
ATOM      1  CA  ARG D 557     -26.217   2.705 -17.014  1.00 35.49     0.159 C 
ENDROOT
BRANCH   1   2
ATOM      2  CB  ARG D 557     -26.789   1.319 -17.183  1.00 35.49     0.034 C 
BRANCH   2   3
ATOM      3  CG  ARG D 557     -25.836   0.203 -17.150  1.00 35.49     0.027 C 
BRANCH   3   4
ATOM      4  CD  ARG D 557     -24.757   0.411 -16.158  1.00 35.49     0.116 C 
BRANCH   4   5
ATOM      5  NE  ARG D 557     -24.903  -0.444 -15.010  1.00 35.49    -0.212 N 
ATOM      6  CZ  ARG D 557     -24.081  -1.408 -14.661  1.00 35.49     0.666 C 
ATOM      7  NH1 ARG D 557     -23.004  -1.711 -15.362  1.00 35.49    -0.235 N 
ATOM      8  NH2 ARG D 557     -24.358  -2.070 -13.575  1.00 35.49    -0.235 N 
ATOM      9  HH  ARG D 557     -22.801  -1.287 -16.079  1.00 35.49     0.174 HD
ATOM     10  HH  ARG D 557     -22.503  -2.348 -15.085  1.00 35.49     0.174 HD
ATOM     11  HH  ARG D 557     -25.056  -1.848 -13.138  1.00 35.49     0.174 HD
ATOM     12  HH  ARG D 557     -23.849  -2.697 -13.316  1.00 35.49     0.174 HD
ATOM     13  HE  ARG D 557     -25.608  -0.367 -14.541  1.00 35.49     0.178 HD
ENDBRANCH   4   5
ENDBRANCH   3   4
ENDBRANCH   2   3
ENDBRANCH   1   2
END_RES ARG D 557
BEGIN_RES GLU D 570
REMARK  3 active torsions:
REMARK  status: ('A' for Active; 'I' for Inactive)
REMARK    5  A    between atoms: CA   and  CB  
REMARK    6  A    between atoms: CB   and  CG  
REMARK    7  A    between atoms: CG   and  CD  
ROOT
ATOM     14  CA  GLU D 570     -18.033  -6.348 -13.375  1.00 32.92     0.160 C 
ENDROOT
BRANCH  14  15
ATOM     15  CB  GLU D 570     -19.500  -6.345 -13.794  1.00 32.92     0.043 C 
BRANCH  15  16
ATOM     16  CG  GLU D 570     -20.446  -5.550 -12.969  1.00 32.92     0.100 C 
BRANCH  16  17
ATOM     17  CD  GLU D 570     -21.735  -5.232 -13.691  1.00 32.92     0.185 C 
ATOM     18  OE1 GLU D 570     -22.253  -4.109 -13.539  1.00 32.92    -0.647 OA
ATOM     19  OE2 GLU D 570     -22.240  -6.122 -14.404  1.00 32.92    -0.647 OA
ENDBRANCH  16  17
ENDBRANCH  15  16
ENDBRANCH  14  15
END_RES GLU D 570
ENDMDL
MODEL 3
REMARK VINA RESULT:      -1.0      4.410      4.508
REMARK  15 active torsions:
REMARK  status: ('A' for Active; 'I' for Inactive)
REMARK    1  A    between atoms: C_2  and  C_3 
REMARK    2  A    between atoms: C_3  and  C_4 
REMARK    3  A    between atoms: C_4  and  C_5 
REMARK    4  A    between atoms: C_5  and  C_6 
REMARK    5  A    between atoms: C_6  and  C_7 
REMARK    6  A    between atoms: C_7  and  C_8 
REMARK    7  A    between atoms: C_8  and  C_9 
REMARK    8  A    between atoms: C_9  and  C_10 
REMARK    9  A    between atoms: C_10  and  C_11 
REMARK   10  A    between atoms: C_11  and  C_12 
REMARK   11  A    between atoms: C_12  and  C_13 
REMARK   12  A    between atoms: C_13  and  C_14 
REMARK   13  A    between atoms: C_14  and  C_15 
REMARK   14  A    between atoms: C_15  and  C_16 
REMARK   15  A    between atoms: C_16  and  N_17 
ROOT
HETATM    1 CL   UNL     2     -22.285  -6.265  -1.756  1.00  0.00     0.000 Cl
ENDROOT
TORSDOF 15
BEGIN_RES ARG D 557
REMARK  4 active torsions:
REMARK  status: ('A' for Active; 'I' for Inactive)
REMARK    1  A    between atoms: CA   and  CB  
REMARK    2  A    between atoms: CB   and  CG  
REMARK    3  A    between atoms: CG   and  CD  
REMARK    4  A    between atoms: CD   and  NE  
REMARK       I    between atoms: NE   and  CZ  
REMARK       I    between atoms: CZ   and  NH1 
REMARK       I    between atoms: CZ   and  NH2 
ROOT
ATOM      1  CA  ARG D 557     -26.217   2.705 -17.014  1.00 35.49     0.159 C 
ENDROOT
BRANCH   1   2
ATOM      2  CB  ARG D 557     -26.789   1.319 -17.183  1.00 35.49     0.034 C 
BRANCH   2   3
ATOM      3  CG  ARG D 557     -25.836   0.203 -17.153  1.00 35.49     0.027 C 
BRANCH   3   4
ATOM      4  CD  ARG D 557     -24.752   0.413 -16.167  1.00 35.49     0.116 C 
BRANCH   4   5
ATOM      5  NE  ARG D 557     -24.894  -0.438 -15.015  1.00 35.49    -0.212 N 
ATOM      6  CZ  ARG D 557     -24.074  -1.404 -14.668  1.00 35.49     0.666 C 
ATOM      7  NH1 ARG D 557     -23.003  -1.714 -15.375  1.00 35.49    -0.235 N 
ATOM      8  NH2 ARG D 557     -24.347  -2.061 -13.578  1.00 35.49    -0.235 N 
ATOM      9  HH  ARG D 557     -22.803  -1.294 -16.095  1.00 35.49     0.174 HD
ATOM     10  HH  ARG D 557     -22.503  -2.353 -15.099  1.00 35.49     0.174 HD
ATOM     11  HH  ARG D 557     -25.041  -1.834 -13.137  1.00 35.49     0.174 HD
ATOM     12  HH  ARG D 557     -23.839  -2.689 -13.320  1.00 35.49     0.174 HD
ATOM     13  HE  ARG D 557     -25.596  -0.355 -14.542  1.00 35.49     0.178 HD
ENDBRANCH   4   5
ENDBRANCH   3   4
ENDBRANCH   2   3
ENDBRANCH   1   2
END_RES ARG D 557
BEGIN_RES GLU D 570
REMARK  3 active torsions:
REMARK  status: ('A' for Active; 'I' for Inactive)
REMARK    5  A    between atoms: CA   and  CB  
REMARK    6  A    between atoms: CB   and  CG  
REMARK    7  A    between atoms: CG   and  CD  
ROOT
ATOM     14  CA  GLU D 570     -18.033  -6.348 -13.375  1.00 32.92     0.160 C 
ENDROOT
BRANCH  14  15
ATOM     15  CB  GLU D 570     -19.500  -6.345 -13.794  1.00 32.92     0.043 C 
BRANCH  15  16
ATOM     16  CG  GLU D 570     -20.444  -5.541 -12.975  1.00 32.92     0.100 C 
BRANCH  16  17
ATOM     17  CD  GLU D 570     -21.740  -5.244 -13.692  1.00 32.92     0.185 C 
ATOM     18  OE1 GLU D 570     -22.269  -4.125 -13.548  1.00 32.92    -0.647 OA
ATOM     19  OE2 GLU D 570     -22.241  -6.146 -14.393  1.00 32.92    -0.647 OA
ENDBRANCH  16  17
ENDBRANCH  15  16
ENDBRANCH  14  15
END_RES GLU D 570
ENDMDL
MODEL 4
REMARK VINA RESULT:      -0.9      6.919      6.919
REMARK  15 active torsions:
REMARK  status: ('A' for Active; 'I' for Inactive)
REMARK    1  A    between atoms: C_2  and  C_3 
REMARK    2  A    between atoms: C_3  and  C_4 
REMARK    3  A    between atoms: C_4  and  C_5 
REMARK    4  A    between atoms: C_5  and  C_6 
REMARK    5  A    between atoms: C_6  and  C_7 
REMARK    6  A    between atoms: C_7  and  C_8 
REMARK    7  A    between atoms: C_8  and  C_9 
REMARK    8  A    between atoms: C_9  and  C_10 
REMARK    9  A    between atoms: C_10  and  C_11 
REMARK   10  A    between atoms: C_11  and  C_12 
REMARK   11  A    between atoms: C_12  and  C_13 
REMARK   12  A    between atoms: C_13  and  C_14 
REMARK   13  A    between atoms: C_14  and  C_15 
REMARK   14  A    between atoms: C_15  and  C_16 
REMARK   15  A    between atoms: C_16  and  N_17 
ROOT
HETATM    1 CL   UNL     2     -11.827   5.543 -13.167  1.00  0.00     0.000 Cl
ENDROOT
TORSDOF 15
BEGIN_RES ARG D 557
REMARK  4 active torsions:
REMARK  status: ('A' for Active; 'I' for Inactive)
REMARK    1  A    between atoms: CA   and  CB  
REMARK    2  A    between atoms: CB   and  CG  
REMARK    3  A    between atoms: CG   and  CD  
REMARK    4  A    between atoms: CD   and  NE  
REMARK       I    between atoms: NE   and  CZ  
REMARK       I    between atoms: CZ   and  NH1 
REMARK       I    between atoms: CZ   and  NH2 
ROOT
ATOM      1  CA  ARG D 557     -26.217   2.705 -17.014  1.00 35.49     0.159 C 
ENDROOT
BRANCH   1   2
ATOM      2  CB  ARG D 557     -26.789   1.319 -17.183  1.00 35.49     0.034 C 
BRANCH   2   3
ATOM      3  CG  ARG D 557     -25.836   0.203 -17.150  1.00 35.49     0.027 C 
BRANCH   3   4
ATOM      4  CD  ARG D 557     -24.749   0.418 -16.168  1.00 35.49     0.116 C 
BRANCH   4   5
ATOM      5  NE  ARG D 557     -24.886  -0.430 -15.013  1.00 35.49    -0.212 N 
ATOM      6  CZ  ARG D 557     -24.069  -1.401 -14.671  1.00 35.49     0.666 C 
ATOM      7  NH1 ARG D 557     -23.008  -1.720 -15.388  1.00 35.49    -0.235 N 
ATOM      8  NH2 ARG D 557     -24.337  -2.053 -13.577  1.00 35.49    -0.235 N 
ATOM      9  HH  ARG D 557     -22.811  -1.302 -16.110  1.00 35.49     0.174 HD
ATOM     10  HH  ARG D 557     -22.509  -2.361 -15.115  1.00 35.49     0.174 HD
ATOM     11  HH  ARG D 557     -25.025  -1.821 -13.131  1.00 35.49     0.174 HD
ATOM     12  HH  ARG D 557     -23.831  -2.684 -13.322  1.00 35.49     0.174 HD
ATOM     13  HE  ARG D 557     -25.583  -0.342 -14.533  1.00 35.49     0.178 HD
ENDBRANCH   4   5
ENDBRANCH   3   4
ENDBRANCH   2   3
ENDBRANCH   1   2
END_RES ARG D 557
BEGIN_RES GLU D 570
REMARK  3 active torsions:
REMARK  status: ('A' for Active; 'I' for Inactive)
REMARK    5  A    between atoms: CA   and  CB  
REMARK    6  A    between atoms: CB   and  CG  
REMARK    7  A    between atoms: CG   and  CD  
ROOT
ATOM     14  CA  GLU D 570     -18.033  -6.348 -13.375  1.00 32.92     0.160 C 
ENDROOT
BRANCH  14  15
ATOM     15  CB  GLU D 570     -19.500  -6.345 -13.794  1.00 32.92     0.043 C 
BRANCH  15  16
ATOM     16  CG  GLU D 570     -20.446  -5.549 -12.970  1.00 32.92     0.100 C 
BRANCH  16  17
ATOM     17  CD  GLU D 570     -21.742  -5.248 -13.685  1.00 32.92     0.185 C 
ATOM     18  OE1 GLU D 570     -22.261  -6.131 -14.395  1.00 32.92    -0.647 OA
ATOM     19  OE2 GLU D 570     -22.235  -4.111 -13.548  1.00 32.92    -0.647 OA
ENDBRANCH  16  17
ENDBRANCH  15  16
ENDBRANCH  14  15
END_RES GLU D 570
ENDMDL
MODEL 5
REMARK VINA RESULT:      -0.9      8.866      8.866
REMARK  15 active torsions:
REMARK  status: ('A' for Active; 'I' for Inactive)
REMARK    1  A    between atoms: C_2  and  C_3 
REMARK    2  A    between atoms: C_3  and  C_4 
REMARK    3  A    between atoms: C_4  and  C_5 
REMARK    4  A    between atoms: C_5  and  C_6 
REMARK    5  A    between atoms: C_6  and  C_7 
REMARK    6  A    between atoms: C_7  and  C_8 
REMARK    7  A    between atoms: C_8  and  C_9 
REMARK    8  A    between atoms: C_9  and  C_10 
REMARK    9  A    between atoms: C_10  and  C_11 
REMARK   10  A    between atoms: C_11  and  C_12 
REMARK   11  A    between atoms: C_12  and  C_13 
REMARK   12  A    between atoms: C_13  and  C_14 
REMARK   13  A    between atoms: C_14  and  C_15 
REMARK   14  A    between atoms: C_15  and  C_16 
REMARK   15  A    between atoms: C_16  and  N_17 
ROOT
HETATM    1 CL   UNL     2     -12.941   9.118   5.856  1.00  0.00     0.000 Cl
ENDROOT
TORSDOF 15
BEGIN_RES ARG D 557
REMARK  4 active torsions:
REMARK  status: ('A' for Active; 'I' for Inactive)
REMARK    1  A    between atoms: CA   and  CB  
REMARK    2  A    between atoms: CB   and  CG  
REMARK    3  A    between atoms: CG   and  CD  
REMARK    4  A    between atoms: CD   and  NE  
REMARK       I    between atoms: NE   and  CZ  
REMARK       I    between atoms: CZ   and  NH1 
REMARK       I    between atoms: CZ   and  NH2 
ROOT
ATOM      1  CA  ARG D 557     -26.217   2.705 -17.014  1.00 35.49     0.159 C 
ENDROOT
BRANCH   1   2
ATOM      2  CB  ARG D 557     -26.789   1.319 -17.183  1.00 35.49     0.034 C 
BRANCH   2   3
ATOM      3  CG  ARG D 557     -25.836   0.203 -17.157  1.00 35.49     0.027 C 
BRANCH   3   4
ATOM      4  CD  ARG D 557     -24.750   0.411 -16.172  1.00 35.49     0.116 C 
BRANCH   4   5
ATOM      5  NE  ARG D 557     -24.896  -0.436 -15.017  1.00 35.49    -0.212 N 
ATOM      6  CZ  ARG D 557     -24.082  -1.408 -14.670  1.00 35.49     0.666 C 
ATOM      7  NH1 ARG D 557     -23.015  -1.727 -15.379  1.00 35.49    -0.235 N 
ATOM      8  NH2 ARG D 557     -24.358  -2.060 -13.578  1.00 35.49    -0.235 N 
ATOM      9  HH  ARG D 557     -22.813  -1.309 -16.100  1.00 35.49     0.174 HD
ATOM     10  HH  ARG D 557     -22.519  -2.368 -15.102  1.00 35.49     0.174 HD
ATOM     11  HH  ARG D 557     -25.049  -1.828 -13.137  1.00 35.49     0.174 HD
ATOM     12  HH  ARG D 557     -23.854  -2.691 -13.320  1.00 35.49     0.174 HD
ATOM     13  HE  ARG D 557     -25.596  -0.348 -14.543  1.00 35.49     0.178 HD
ENDBRANCH   4   5
ENDBRANCH   3   4
ENDBRANCH   2   3
ENDBRANCH   1   2
END_RES ARG D 557
BEGIN_RES GLU D 570
REMARK  3 active torsions:
REMARK  status: ('A' for Active; 'I' for Inactive)
REMARK    5  A    between atoms: CA   and  CB  
REMARK    6  A    between atoms: CB   and  CG  
REMARK    7  A    between atoms: CG   and  CD  
ROOT
ATOM     14  CA  GLU D 570     -18.033  -6.348 -13.375  1.00 32.92     0.160 C 
ENDROOT
BRANCH  14  15
ATOM     15  CB  GLU D 570     -19.500  -6.345 -13.794  1.00 32.92     0.043 C 
BRANCH  15  16
ATOM     16  CG  GLU D 570     -20.439  -5.519 -12.992  1.00 32.92     0.100 C 
BRANCH  16  17
ATOM     17  CD  GLU D 570     -21.746  -5.254 -13.704  1.00 32.92     0.185 C 
ATOM     18  OE1 GLU D 570     -22.234  -6.145 -14.424  1.00 32.92    -0.647 OA
ATOM     19  OE2 GLU D 570     -22.278  -4.137 -13.552  1.00 32.92    -0.647 OA
ENDBRANCH  16  17
ENDBRANCH  15  16
ENDBRANCH  14  15
END_RES GLU D 570
ENDMDL
MODEL 6
REMARK VINA RESULT:      -0.8      5.025      5.111
REMARK  15 active torsions:
REMARK  status: ('A' for Active; 'I' for Inactive)
REMARK    1  A    between atoms: C_2  and  C_3 
REMARK    2  A    between atoms: C_3  and  C_4 
REMARK    3  A    between atoms: C_4  and  C_5 
REMARK    4  A    between atoms: C_5  and  C_6 
REMARK    5  A    between atoms: C_6  and  C_7 
REMARK    6  A    between atoms: C_7  and  C_8 
REMARK    7  A    between atoms: C_8  and  C_9 
REMARK    8  A    between atoms: C_9  and  C_10 
REMARK    9  A    between atoms: C_10  and  C_11 
REMARK   10  A    between atoms: C_11  and  C_12 
REMARK   11  A    between atoms: C_12  and  C_13 
REMARK   12  A    between atoms: C_13  and  C_14 
REMARK   13  A    between atoms: C_14  and  C_15 
REMARK   14  A    between atoms: C_15  and  C_16 
REMARK   15  A    between atoms: C_16  and  N_17 
ROOT
HETATM    1 CL   UNL     2     -23.831   5.987  -1.485  1.00  0.00     0.000 Cl
ENDROOT
TORSDOF 15
BEGIN_RES ARG D 557
REMARK  4 active torsions:
REMARK  status: ('A' for Active; 'I' for Inactive)
REMARK    1  A    between atoms: CA   and  CB  
REMARK    2  A    between atoms: CB   and  CG  
REMARK    3  A    between atoms: CG   and  CD  
REMARK    4  A    between atoms: CD   and  NE  
REMARK       I    between atoms: NE   and  CZ  
REMARK       I    between atoms: CZ   and  NH1 
REMARK       I    between atoms: CZ   and  NH2 
ROOT
ATOM      1  CA  ARG D 557     -26.217   2.705 -17.014  1.00 35.49     0.159 C 
ENDROOT
BRANCH   1   2
ATOM      2  CB  ARG D 557     -26.789   1.319 -17.183  1.00 35.49     0.034 C 
BRANCH   2   3
ATOM      3  CG  ARG D 557     -25.835   0.203 -17.159  1.00 35.49     0.027 C 
BRANCH   3   4
ATOM      4  CD  ARG D 557     -24.753   0.408 -16.170  1.00 35.49     0.116 C 
BRANCH   4   5
ATOM      5  NE  ARG D 557     -24.904  -0.440 -15.017  1.00 35.49    -0.212 N 
ATOM      6  CZ  ARG D 557     -24.091  -1.411 -14.665  1.00 35.49     0.666 C 
ATOM      7  NH1 ARG D 557     -23.020  -1.728 -15.367  1.00 35.49    -0.235 N 
ATOM      8  NH2 ARG D 557     -24.373  -2.064 -13.575  1.00 35.49    -0.235 N 
ATOM      9  HH  ARG D 557     -22.814  -1.311 -16.087  1.00 35.49     0.174 HD
ATOM     10  HH  ARG D 557     -22.525  -2.369 -15.088  1.00 35.49     0.174 HD
ATOM     11  HH  ARG D 557     -25.067  -1.832 -13.137  1.00 35.49     0.174 HD
ATOM     12  HH  ARG D 557     -23.870  -2.694 -13.313  1.00 35.49     0.174 HD
ATOM     13  HE  ARG D 557     -25.608  -0.353 -14.547  1.00 35.49     0.178 HD
ENDBRANCH   4   5
ENDBRANCH   3   4
ENDBRANCH   2   3
ENDBRANCH   1   2
END_RES ARG D 557
BEGIN_RES GLU D 570
REMARK  3 active torsions:
REMARK  status: ('A' for Active; 'I' for Inactive)
REMARK    5  A    between atoms: CA   and  CB  
REMARK    6  A    between atoms: CB   and  CG  
REMARK    7  A    between atoms: CG   and  CD  
ROOT
ATOM     14  CA  GLU D 570     -18.033  -6.348 -13.375  1.00 32.92     0.160 C 
ENDROOT
BRANCH  14  15
ATOM     15  CB  GLU D 570     -19.500  -6.345 -13.794  1.00 32.92     0.043 C 
BRANCH  15  16
ATOM     16  CG  GLU D 570     -20.440  -5.522 -12.990  1.00 32.92     0.100 C 
BRANCH  16  17
ATOM     17  CD  GLU D 570     -21.736  -5.233 -13.711  1.00 32.92     0.185 C 
ATOM     18  OE1 GLU D 570     -22.296  -4.134 -13.534  1.00 32.92    -0.647 OA
ATOM     19  OE2 GLU D 570     -22.205  -6.123 -14.448  1.00 32.92    -0.647 OA
ENDBRANCH  16  17
ENDBRANCH  15  16
ENDBRANCH  14  15
END_RES GLU D 570
ENDMDL
MODEL 7
REMARK VINA RESULT:      -0.8      2.739      2.894
REMARK  15 active torsions:
REMARK  status: ('A' for Active; 'I' for Inactive)
REMARK    1  A    between atoms: C_2  and  C_3 
REMARK    2  A    between atoms: C_3  and  C_4 
REMARK    3  A    between atoms: C_4  and  C_5 
REMARK    4  A    between atoms: C_5  and  C_6 
REMARK    5  A    between atoms: C_6  and  C_7 
REMARK    6  A    between atoms: C_7  and  C_8 
REMARK    7  A    between atoms: C_8  and  C_9 
REMARK    8  A    between atoms: C_9  and  C_10 
REMARK    9  A    between atoms: C_10  and  C_11 
REMARK   10  A    between atoms: C_11  and  C_12 
REMARK   11  A    between atoms: C_12  and  C_13 
REMARK   12  A    between atoms: C_13  and  C_14 
REMARK   13  A    between atoms: C_14  and  C_15 
REMARK   14  A    between atoms: C_15  and  C_16 
REMARK   15  A    between atoms: C_16  and  N_17 
ROOT
HETATM    1 CL   UNL     2     -23.826  -4.930 -10.475  1.00  0.00     0.000 Cl
ENDROOT
TORSDOF 15
BEGIN_RES ARG D 557
REMARK  4 active torsions:
REMARK  status: ('A' for Active; 'I' for Inactive)
REMARK    1  A    between atoms: CA   and  CB  
REMARK    2  A    between atoms: CB   and  CG  
REMARK    3  A    between atoms: CG   and  CD  
REMARK    4  A    between atoms: CD   and  NE  
REMARK       I    between atoms: NE   and  CZ  
REMARK       I    between atoms: CZ   and  NH1 
REMARK       I    between atoms: CZ   and  NH2 
ROOT
ATOM      1  CA  ARG D 557     -26.217   2.705 -17.014  1.00 35.49     0.159 C 
ENDROOT
BRANCH   1   2
ATOM      2  CB  ARG D 557     -26.789   1.319 -17.183  1.00 35.49     0.034 C 
BRANCH   2   3
ATOM      3  CG  ARG D 557     -25.835   0.203 -17.158  1.00 35.49     0.027 C 
BRANCH   3   4
ATOM      4  CD  ARG D 557     -24.758   0.404 -16.163  1.00 35.49     0.116 C 
BRANCH   4   5
ATOM      5  NE  ARG D 557     -24.914  -0.450 -15.015  1.00 35.49    -0.212 N 
ATOM      6  CZ  ARG D 557     -24.102  -1.422 -14.664  1.00 35.49     0.666 C 
ATOM      7  NH1 ARG D 557     -23.027  -1.735 -15.364  1.00 35.49    -0.235 N 
ATOM      8  NH2 ARG D 557     -24.387  -2.081 -13.579  1.00 35.49    -0.235 N 
ATOM      9  HH  ARG D 557     -22.819  -1.313 -16.080  1.00 35.49     0.174 HD
ATOM     10  HH  ARG D 557     -22.533  -2.377 -15.085  1.00 35.49     0.174 HD
ATOM     11  HH  ARG D 557     -25.084  -1.852 -13.143  1.00 35.49     0.174 HD
ATOM     12  HH  ARG D 557     -23.885  -2.712 -13.319  1.00 35.49     0.174 HD
ATOM     13  HE  ARG D 557     -25.619  -0.366 -14.548  1.00 35.49     0.178 HD
ENDBRANCH   4   5
ENDBRANCH   3   4
ENDBRANCH   2   3
ENDBRANCH   1   2
END_RES ARG D 557
BEGIN_RES GLU D 570
REMARK  3 active torsions:
REMARK  status: ('A' for Active; 'I' for Inactive)
REMARK    5  A    between atoms: CA   and  CB  
REMARK    6  A    between atoms: CB   and  CG  
REMARK    7  A    between atoms: CG   and  CD  
ROOT
ATOM     14  CA  GLU D 570     -18.033  -6.348 -13.375  1.00 32.92     0.160 C 
ENDROOT
BRANCH  14  15
ATOM     15  CB  GLU D 570     -19.500  -6.345 -13.794  1.00 32.92     0.043 C 
BRANCH  15  16
ATOM     16  CG  GLU D 570     -20.441  -5.529 -12.984  1.00 32.92     0.100 C 
BRANCH  16  17
ATOM     17  CD  GLU D 570     -21.744  -5.250 -13.698  1.00 32.92     0.185 C 
ATOM     18  OE1 GLU D 570     -22.295  -4.144 -13.541  1.00 32.92    -0.647 OA
ATOM     19  OE2 GLU D 570     -22.226  -6.154 -14.409  1.00 32.92    -0.647 OA
ENDBRANCH  16  17
ENDBRANCH  15  16
ENDBRANCH  14  15
END_RES GLU D 570
ENDMDL
MODEL 8
REMARK VINA RESULT:      -0.8      4.380      4.478
REMARK  15 active torsions:
REMARK  status: ('A' for Active; 'I' for Inactive)
REMARK    1  A    between atoms: C_2  and  C_3 
REMARK    2  A    between atoms: C_3  and  C_4 
REMARK    3  A    between atoms: C_4  and  C_5 
REMARK    4  A    between atoms: C_5  and  C_6 
REMARK    5  A    between atoms: C_6  and  C_7 
REMARK    6  A    between atoms: C_7  and  C_8 
REMARK    7  A    between atoms: C_8  and  C_9 
REMARK    8  A    between atoms: C_9  and  C_10 
REMARK    9  A    between atoms: C_10  and  C_11 
REMARK   10  A    between atoms: C_11  and  C_12 
REMARK   11  A    between atoms: C_12  and  C_13 
REMARK   12  A    between atoms: C_13  and  C_14 
REMARK   13  A    between atoms: C_14  and  C_15 
REMARK   14  A    between atoms: C_15  and  C_16 
REMARK   15  A    between atoms: C_16  and  N_17 
ROOT
HETATM    1 CL   UNL     2     -19.700   2.627 -11.659  1.00  0.00     0.000 Cl
ENDROOT
TORSDOF 15
BEGIN_RES ARG D 557
REMARK  4 active torsions:
REMARK  status: ('A' for Active; 'I' for Inactive)
REMARK    1  A    between atoms: CA   and  CB  
REMARK    2  A    between atoms: CB   and  CG  
REMARK    3  A    between atoms: CG   and  CD  
REMARK    4  A    between atoms: CD   and  NE  
REMARK       I    between atoms: NE   and  CZ  
REMARK       I    between atoms: CZ   and  NH1 
REMARK       I    between atoms: CZ   and  NH2 
ROOT
ATOM      1  CA  ARG D 557     -26.217   2.705 -17.014  1.00 35.49     0.159 C 
ENDROOT
BRANCH   1   2
ATOM      2  CB  ARG D 557     -26.789   1.319 -17.183  1.00 35.49     0.034 C 
BRANCH   2   3
ATOM      3  CG  ARG D 557     -25.835   0.203 -17.162  1.00 35.49     0.027 C 
BRANCH   3   4
ATOM      4  CD  ARG D 557     -24.747   0.409 -16.178  1.00 35.49     0.116 C 
BRANCH   4   5
ATOM      5  NE  ARG D 557     -24.894  -0.436 -15.023  1.00 35.49    -0.212 N 
ATOM      6  CZ  ARG D 557     -24.080  -1.405 -14.672  1.00 35.49     0.666 C 
ATOM      7  NH1 ARG D 557     -23.011  -1.724 -15.379  1.00 35.49    -0.235 N 
ATOM      8  NH2 ARG D 557     -24.356  -2.056 -13.579  1.00 35.49    -0.235 N 
ATOM      9  HH  ARG D 557     -22.809  -1.308 -16.100  1.00 35.49     0.174 HD
ATOM     10  HH  ARG D 557     -22.515  -2.365 -15.099  1.00 35.49     0.174 HD
ATOM     11  HH  ARG D 557     -25.049  -1.823 -13.139  1.00 35.49     0.174 HD
ATOM     12  HH  ARG D 557     -23.852  -2.686 -13.319  1.00 35.49     0.174 HD
ATOM     13  HE  ARG D 557     -25.596  -0.347 -14.550  1.00 35.49     0.178 HD
ENDBRANCH   4   5
ENDBRANCH   3   4
ENDBRANCH   2   3
ENDBRANCH   1   2
END_RES ARG D 557
BEGIN_RES GLU D 570
REMARK  3 active torsions:
REMARK  status: ('A' for Active; 'I' for Inactive)
REMARK    5  A    between atoms: CA   and  CB  
REMARK    6  A    between atoms: CB   and  CG  
REMARK    7  A    between atoms: CG   and  CD  
ROOT
ATOM     14  CA  GLU D 570     -18.033  -6.348 -13.375  1.00 32.92     0.160 C 
ENDROOT
BRANCH  14  15
ATOM     15  CB  GLU D 570     -19.500  -6.345 -13.794  1.00 32.92     0.043 C 
BRANCH  15  16
ATOM     16  CG  GLU D 570     -20.442  -5.531 -12.983  1.00 32.92     0.100 C 
BRANCH  16  17
ATOM     17  CD  GLU D 570     -21.740  -5.243 -13.700  1.00 32.92     0.185 C 
ATOM     18  OE1 GLU D 570     -22.306  -4.149 -13.513  1.00 32.92    -0.647 OA
ATOM     19  OE2 GLU D 570     -22.205  -6.128 -14.445  1.00 32.92    -0.647 OA
ENDBRANCH  16  17
ENDBRANCH  15  16
ENDBRANCH  14  15
END_RES GLU D 570
ENDMDL
MODEL 9
REMARK VINA RESULT:      -0.8      3.604      3.723
REMARK  15 active torsions:
REMARK  status: ('A' for Active; 'I' for Inactive)
REMARK    1  A    between atoms: C_2  and  C_3 
REMARK    2  A    between atoms: C_3  and  C_4 
REMARK    3  A    between atoms: C_4  and  C_5 
REMARK    4  A    between atoms: C_5  and  C_6 
REMARK    5  A    between atoms: C_6  and  C_7 
REMARK    6  A    between atoms: C_7  and  C_8 
REMARK    7  A    between atoms: C_8  and  C_9 
REMARK    8  A    between atoms: C_9  and  C_10 
REMARK    9  A    between atoms: C_10  and  C_11 
REMARK   10  A    between atoms: C_11  and  C_12 
REMARK   11  A    between atoms: C_12  and  C_13 
REMARK   12  A    between atoms: C_13  and  C_14 
REMARK   13  A    between atoms: C_14  and  C_15 
REMARK   14  A    between atoms: C_15  and  C_16 
REMARK   15  A    between atoms: C_16  and  N_17 
ROOT
HETATM    1 CL   UNL     2     -29.890 -15.060  -9.091  1.00  0.00     0.000 Cl
ENDROOT
TORSDOF 15
BEGIN_RES ARG D 557
REMARK  4 active torsions:
REMARK  status: ('A' for Active; 'I' for Inactive)
REMARK    1  A    between atoms: CA   and  CB  
REMARK    2  A    between atoms: CB   and  CG  
REMARK    3  A    between atoms: CG   and  CD  
REMARK    4  A    between atoms: CD   and  NE  
REMARK       I    between atoms: NE   and  CZ  
REMARK       I    between atoms: CZ   and  NH1 
REMARK       I    between atoms: CZ   and  NH2 
ROOT
ATOM      1  CA  ARG D 557     -26.217   2.705 -17.014  1.00 35.49     0.159 C 
ENDROOT
BRANCH   1   2
ATOM      2  CB  ARG D 557     -26.789   1.319 -17.183  1.00 35.49     0.034 C 
BRANCH   2   3
ATOM      3  CG  ARG D 557     -25.835   0.204 -17.165  1.00 35.49     0.027 C 
BRANCH   3   4
ATOM      4  CD  ARG D 557     -24.748   0.406 -16.179  1.00 35.49     0.116 C 
BRANCH   4   5
ATOM      5  NE  ARG D 557     -24.900  -0.439 -15.024  1.00 35.49    -0.212 N 
ATOM      6  CZ  ARG D 557     -24.087  -1.409 -14.670  1.00 35.49     0.666 C 
ATOM      7  NH1 ARG D 557     -23.015  -1.728 -15.373  1.00 35.49    -0.235 N 
ATOM      8  NH2 ARG D 557     -24.368  -2.059 -13.579  1.00 35.49    -0.235 N 
ATOM      9  HH  ARG D 557     -22.810  -1.312 -16.093  1.00 35.49     0.174 HD
ATOM     10  HH  ARG D 557     -22.520  -2.368 -15.091  1.00 35.49     0.174 HD
ATOM     11  HH  ARG D 557     -25.062  -1.826 -13.141  1.00 35.49     0.174 HD
ATOM     12  HH  ARG D 557     -23.864  -2.689 -13.316  1.00 35.49     0.174 HD
ATOM     13  HE  ARG D 557     -25.603  -0.350 -14.554  1.00 35.49     0.178 HD
ENDBRANCH   4   5
ENDBRANCH   3   4
ENDBRANCH   2   3
ENDBRANCH   1   2
END_RES ARG D 557
BEGIN_RES GLU D 570
REMARK  3 active torsions:
REMARK  status: ('A' for Active; 'I' for Inactive)
REMARK    5  A    between atoms: CA   and  CB  
REMARK    6  A    between atoms: CB   and  CG  
REMARK    7  A    between atoms: CG   and  CD  
ROOT
ATOM     14  CA  GLU D 570     -18.033  -6.348 -13.375  1.00 32.92     0.160 C 
ENDROOT
BRANCH  14  15
ATOM     15  CB  GLU D 570     -19.500  -6.345 -13.794  1.00 32.92     0.043 C 
BRANCH  15  16
ATOM     16  CG  GLU D 570     -20.442  -5.530 -12.984  1.00 32.92     0.100 C 
BRANCH  16  17
ATOM     17  CD  GLU D 570     -21.744  -5.251 -13.697  1.00 32.92     0.185 C 
ATOM     18  OE1 GLU D 570     -22.307  -4.154 -13.522  1.00 32.92    -0.647 OA
ATOM     19  OE2 GLU D 570     -22.215  -6.147 -14.426  1.00 32.92    -0.647 OA
ENDBRANCH  16  17
ENDBRANCH  15  16
ENDBRANCH  14  15
END_RES GLU D 570
ENDMDL
