MODEL 1
REMARK VINA RESULT:      -7.3      0.000      0.000
REMARK  4 active torsions:
REMARK  status: ('A' for Active; 'I' for Inactive)
REMARK    1  A    between atoms: C_4  and  C_27 
REMARK    2  A    between atoms: C_5  and  C_7 
REMARK    3  A    between atoms: C_18  and  O_23 
REMARK    4  A    between atoms: C_27  and  O_29 
ROOT
HETATM    1  C   UNL     1     -20.979 -11.164  -1.625  1.00  0.00     0.001 C 
HETATM    2  C   UNL     1     -19.969 -12.027  -1.296  1.00  0.00     0.013 C 
HETATM    3  C   UNL     1     -18.767 -11.655  -0.549  1.00  0.00     0.038 C 
HETATM    4  C   UNL     1     -17.804 -12.568  -0.338  1.00  0.00     0.063 C 
HETATM    5  C   UNL     1     -18.039 -14.015  -0.705  1.00  0.00     0.209 C 
HETATM    6  O   UNL     1     -17.303 -14.900  -0.296  1.00  0.00    -0.285 OA
HETATM    7  C   UNL     1     -19.100 -14.274  -1.735  1.00  0.00     0.097 C 
HETATM    8  C   UNL     1     -19.741 -13.185  -2.173  1.00  0.00     0.108 C 
HETATM    9  O   UNL     1     -19.804 -12.938  -3.533  1.00  0.00    -0.306 OA
HETATM   10  C   UNL     1     -19.975 -11.619  -3.855  1.00  0.00     0.107 C 
HETATM   11  C   UNL     1     -19.123 -10.948  -4.724  1.00  0.00     0.080 C 
HETATM   12  C   UNL     1     -19.470  -9.669  -5.155  1.00  0.00     0.103 C 
HETATM   13  C   UNL     1     -20.706  -9.140  -4.781  1.00  0.00     0.046 C 
HETATM   14  C   UNL     1     -21.415  -9.726  -3.729  1.00  0.00     0.037 C 
HETATM   15  C   UNL     1     -20.935 -10.899  -3.141  1.00  0.00     0.013 C 
HETATM   16 BR   UNL     1     -21.391  -7.562  -5.571  1.00  0.00    -0.048 Br
HETATM   17 BR   UNL     1     -17.396 -11.652  -5.091  1.00  0.00    -0.045 Br
HETATM   18 BR   UNL     1     -19.087 -15.905  -2.639  1.00  0.00    -0.044 Br
HETATM   19 BR   UNL     1     -16.072 -12.061   0.147  1.00  0.00    -0.047 Br
ENDROOT
BRANCH   1  20
HETATM   20  C   UNL     1     -21.663 -10.201  -0.684  1.00  0.00    -0.007 C 
HETATM   21  C   UNL     1     -22.993 -10.414  -0.240  1.00  0.00     0.048 C 
HETATM   22  C   UNL     1     -23.755  -9.349   0.287  1.00  0.00     0.019 C 
HETATM   23  C   UNL     1     -23.157  -8.131   0.576  1.00  0.00     0.001 C 
HETATM   24  C   UNL     1     -21.795  -7.987   0.372  1.00  0.00     0.001 C 
HETATM   25  C   UNL     1     -21.066  -9.002  -0.259  1.00  0.00     0.013 C 
BRANCH  21  26
HETATM   26  C   UNL     1     -23.627 -11.767  -0.222  1.00  0.00     0.177 C 
HETATM   27  O   UNL     1     -24.338 -12.228  -1.099  1.00  0.00    -0.646 OA
BRANCH  26  28
HETATM   28  O   UNL     1     -23.271 -12.481   0.869  1.00  0.00    -0.773 OA
HETATM   29  H   UNL     1     -22.324 -12.707   0.937  1.00  0.00     0.167 HD
ENDBRANCH  26  28
ENDBRANCH  21  26
ENDBRANCH   1  20
BRANCH  12  30
HETATM   30  O   UNL     1     -18.602  -8.898  -5.880  1.00  0.00    -0.358 OA
HETATM   31  H   UNL     1     -17.959  -9.492  -6.309  1.00  0.00     0.217 HD
ENDBRANCH  12  30
TORSDOF 4
BEGIN_RES ARG D 557
REMARK  4 active torsions:
REMARK  status: ('A' for Active; 'I' for Inactive)
REMARK    1  A    between atoms: CA   and  CB  
REMARK    2  A    between atoms: CB   and  CG  
REMARK    3  A    between atoms: CG   and  CD  
REMARK    4  A    between atoms: CD   and  NE  
REMARK       I    between atoms: NE   and  CZ  
REMARK       I    between atoms: CZ   and  NH1 
REMARK       I    between atoms: CZ   and  NH2 
ROOT
ATOM      1  CA  ARG D 557     -26.217   2.705 -17.014  1.00 35.49     0.159 C 
ENDROOT
BRANCH   1   2
ATOM      2  CB  ARG D 557     -26.789   1.319 -17.183  1.00 35.49     0.034 C 
BRANCH   2   3
ATOM      3  CG  ARG D 557     -25.835   0.203 -17.159  1.00 35.49     0.027 C 
BRANCH   3   4
ATOM      4  CD  ARG D 557     -24.758   0.404 -16.163  1.00 35.49     0.116 C 
BRANCH   4   5
ATOM      5  NE  ARG D 557     -24.915  -0.448 -15.014  1.00 35.49    -0.212 N 
ATOM      6  CZ  ARG D 557     -24.105  -1.422 -14.663  1.00 35.49     0.666 C 
ATOM      7  NH1 ARG D 557     -23.031  -1.738 -15.363  1.00 35.49    -0.235 N 
ATOM      8  NH2 ARG D 557     -24.392  -2.079 -13.577  1.00 35.49    -0.235 N 
ATOM      9  HH  ARG D 557     -22.822  -1.318 -16.080  1.00 35.49     0.174 HD
ATOM     10  HH  ARG D 557     -22.539  -2.381 -15.084  1.00 35.49     0.174 HD
ATOM     11  HH  ARG D 557     -25.087  -1.848 -13.141  1.00 35.49     0.174 HD
ATOM     12  HH  ARG D 557     -23.891  -2.711 -13.316  1.00 35.49     0.174 HD
ATOM     13  HE  ARG D 557     -25.620  -0.362 -14.547  1.00 35.49     0.178 HD
ENDBRANCH   4   5
ENDBRANCH   3   4
ENDBRANCH   2   3
ENDBRANCH   1   2
END_RES ARG D 557
BEGIN_RES GLU D 570
REMARK  3 active torsions:
REMARK  status: ('A' for Active; 'I' for Inactive)
REMARK    5  A    between atoms: CA   and  CB  
REMARK    6  A    between atoms: CB   and  CG  
REMARK    7  A    between atoms: CG   and  CD  
ROOT
ATOM     14  CA  GLU D 570     -18.033  -6.348 -13.375  1.00 32.92     0.160 C 
ENDROOT
BRANCH  14  15
ATOM     15  CB  GLU D 570     -19.500  -6.345 -13.794  1.00 32.92     0.043 C 
BRANCH  15  16
ATOM     16  CG  GLU D 570     -20.441  -5.526 -12.987  1.00 32.92     0.100 C 
BRANCH  16  17
ATOM     17  CD  GLU D 570     -21.736  -5.233 -13.708  1.00 32.92     0.185 C 
ATOM     18  OE1 GLU D 570     -22.314  -4.150 -13.498  1.00 32.92    -0.647 OA
ATOM     19  OE2 GLU D 570     -22.185  -6.104 -14.479  1.00 32.92    -0.647 OA
ENDBRANCH  16  17
ENDBRANCH  15  16
ENDBRANCH  14  15
END_RES GLU D 570
ENDMDL
MODEL 2
REMARK VINA RESULT:      -6.9      0.761      1.017
REMARK  4 active torsions:
REMARK  status: ('A' for Active; 'I' for Inactive)
REMARK    1  A    between atoms: C_4  and  C_27 
REMARK    2  A    between atoms: C_5  and  C_7 
REMARK    3  A    between atoms: C_18  and  O_23 
REMARK    4  A    between atoms: C_27  and  O_29 
ROOT
HETATM    1  C   UNL     1     -20.991 -11.131  -1.652  1.00  0.00     0.001 C 
HETATM    2  C   UNL     1     -19.986 -12.004  -1.333  1.00  0.00     0.013 C 
HETATM    3  C   UNL     1     -18.780 -11.645  -0.586  1.00  0.00     0.038 C 
HETATM    4  C   UNL     1     -17.823 -12.566  -0.384  1.00  0.00     0.063 C 
HETATM    5  C   UNL     1     -18.068 -14.009  -0.761  1.00  0.00     0.209 C 
HETATM    6  O   UNL     1     -17.336 -14.902  -0.360  1.00  0.00    -0.285 OA
HETATM    7  C   UNL     1     -19.134 -14.253  -1.789  1.00  0.00     0.097 C 
HETATM    8  C   UNL     1     -19.769 -13.157  -2.218  1.00  0.00     0.108 C 
HETATM    9  O   UNL     1     -19.834 -12.900  -3.576  1.00  0.00    -0.306 OA
HETATM   10  C   UNL     1     -19.997 -11.578  -3.888  1.00  0.00     0.107 C 
HETATM   11  C   UNL     1     -19.143 -10.906  -4.756  1.00  0.00     0.080 C 
HETATM   12  C   UNL     1     -19.482  -9.623  -5.176  1.00  0.00     0.103 C 
HETATM   13  C   UNL     1     -20.714  -9.088  -4.795  1.00  0.00     0.046 C 
HETATM   14  C   UNL     1     -21.424  -9.676  -3.745  1.00  0.00     0.037 C 
HETATM   15  C   UNL     1     -20.950 -10.856  -3.166  1.00  0.00     0.013 C 
HETATM   16 BR   UNL     1     -21.391  -7.500  -5.572  1.00  0.00    -0.048 Br
HETATM   17 BR   UNL     1     -17.422 -11.619  -5.132  1.00  0.00    -0.045 Br
HETATM   18 BR   UNL     1     -19.134 -15.878  -2.704  1.00  0.00    -0.044 Br
HETATM   19 BR   UNL     1     -16.085 -12.074   0.099  1.00  0.00    -0.047 Br
ENDROOT
BRANCH   1  20
HETATM   20  C   UNL     1     -21.666 -10.170  -0.702  1.00  0.00    -0.007 C 
HETATM   21  C   UNL     1     -22.993 -10.382  -0.250  1.00  0.00     0.048 C 
HETATM   22  C   UNL     1     -23.749  -9.317   0.287  1.00  0.00     0.019 C 
HETATM   23  C   UNL     1     -23.145  -8.101   0.576  1.00  0.00     0.001 C 
HETATM   24  C   UNL     1     -21.785  -7.961   0.363  1.00  0.00     0.001 C 
HETATM   25  C   UNL     1     -21.063  -8.975  -0.277  1.00  0.00     0.013 C 
BRANCH  21  26
HETATM   26  C   UNL     1     -23.630 -11.733  -0.232  1.00  0.00     0.177 C 
HETATM   27  O   UNL     1     -24.350 -12.189  -1.104  1.00  0.00    -0.646 OA
BRANCH  26  28
HETATM   28  O   UNL     1     -23.267 -12.454   0.852  1.00  0.00    -0.773 OA
HETATM   29  H   UNL     1     -22.562 -12.063   1.404  1.00  0.00     0.167 HD
ENDBRANCH  26  28
ENDBRANCH  21  26
ENDBRANCH   1  20
BRANCH  12  30
HETATM   30  O   UNL     1     -18.612  -8.852  -5.898  1.00  0.00    -0.358 OA
HETATM   31  H   UNL     1     -17.989  -8.436  -5.274  1.00  0.00     0.217 HD
ENDBRANCH  12  30
TORSDOF 4
BEGIN_RES ARG D 557
REMARK  4 active torsions:
REMARK  status: ('A' for Active; 'I' for Inactive)
REMARK    1  A    between atoms: CA   and  CB  
REMARK    2  A    between atoms: CB   and  CG  
REMARK    3  A    between atoms: CG   and  CD  
REMARK    4  A    between atoms: CD   and  NE  
REMARK       I    between atoms: NE   and  CZ  
REMARK       I    between atoms: CZ   and  NH1 
REMARK       I    between atoms: CZ   and  NH2 
ROOT
ATOM      1  CA  ARG D 557     -26.217   2.705 -17.014  1.00 35.49     0.159 C 
ENDROOT
BRANCH   1   2
ATOM      2  CB  ARG D 557     -26.789   1.319 -17.183  1.00 35.49     0.034 C 
BRANCH   2   3
ATOM      3  CG  ARG D 557     -25.923   0.196 -16.804  1.00 35.49     0.027 C 
BRANCH   3   4
ATOM      4  CD  ARG D 557     -26.657  -0.861 -16.071  1.00 35.49     0.116 C 
BRANCH   4   5
ATOM      5  NE  ARG D 557     -25.844  -1.485 -15.061  1.00 35.49    -0.212 N 
ATOM      6  CZ  ARG D 557     -25.878  -2.755 -14.723  1.00 35.49     0.666 C 
ATOM      7  NH1 ARG D 557     -26.704  -3.616 -15.288  1.00 35.49    -0.235 N 
ATOM      8  NH2 ARG D 557     -25.053  -3.153 -13.799  1.00 35.49    -0.235 N 
ATOM      9  HH  ARG D 557     -27.255  -3.376 -15.899  1.00 35.49     0.174 HD
ATOM     10  HH  ARG D 557     -26.680  -4.432 -15.029  1.00 35.49     0.174 HD
ATOM     11  HH  ARG D 557     -24.526  -2.576 -13.458  1.00 35.49     0.174 HD
ATOM     12  HH  ARG D 557     -25.043  -3.965 -13.558  1.00 35.49     0.174 HD
ATOM     13  HE  ARG D 557     -25.334  -0.988 -14.596  1.00 35.49     0.178 HD
ENDBRANCH   4   5
ENDBRANCH   3   4
ENDBRANCH   2   3
ENDBRANCH   1   2
END_RES ARG D 557
BEGIN_RES GLU D 570
REMARK  3 active torsions:
REMARK  status: ('A' for Active; 'I' for Inactive)
REMARK    5  A    between atoms: CA   and  CB  
REMARK    6  A    between atoms: CB   and  CG  
REMARK    7  A    between atoms: CG   and  CD  
ROOT
ATOM     14  CA  GLU D 570     -18.033  -6.348 -13.375  1.00 32.92     0.160 C 
ENDROOT
BRANCH  14  15
ATOM     15  CB  GLU D 570     -19.500  -6.345 -13.794  1.00 32.92     0.043 C 
BRANCH  15  16
ATOM     16  CG  GLU D 570     -20.444  -5.540 -12.976  1.00 32.92     0.100 C 
BRANCH  16  17
ATOM     17  CD  GLU D 570     -21.722  -5.207 -13.709  1.00 32.92     0.185 C 
ATOM     18  OE1 GLU D 570     -22.014  -5.846 -14.738  1.00 32.92    -0.647 OA
ATOM     19  OE2 GLU D 570     -22.431  -4.285 -13.258  1.00 32.92    -0.647 OA
ENDBRANCH  16  17
ENDBRANCH  15  16
ENDBRANCH  14  15
END_RES GLU D 570
ENDMDL
MODEL 3
REMARK VINA RESULT:      -6.6      1.973      4.485
REMARK  4 active torsions:
REMARK  status: ('A' for Active; 'I' for Inactive)
REMARK    1  A    between atoms: C_4  and  C_27 
REMARK    2  A    between atoms: C_5  and  C_7 
REMARK    3  A    between atoms: C_18  and  O_23 
REMARK    4  A    between atoms: C_27  and  O_29 
ROOT
HETATM    1  C   UNL     1     -20.363 -11.176  -1.682  1.00  0.00     0.001 C 
HETATM    2  C   UNL     1     -19.813 -10.982  -2.920  1.00  0.00     0.013 C 
HETATM    3  C   UNL     1     -20.411 -11.440  -4.175  1.00  0.00     0.038 C 
HETATM    4  C   UNL     1     -19.754 -11.256  -5.333  1.00  0.00     0.063 C 
HETATM    5  C   UNL     1     -18.495 -10.419  -5.364  1.00  0.00     0.209 C 
HETATM    6  O   UNL     1     -18.024 -10.021  -6.419  1.00  0.00    -0.285 OA
HETATM    7  C   UNL     1     -17.768 -10.268  -4.059  1.00  0.00     0.097 C 
HETATM    8  C   UNL     1     -18.351 -10.861  -3.014  1.00  0.00     0.108 C 
HETATM    9  O   UNL     1     -17.619 -11.747  -2.243  1.00  0.00    -0.306 OA
HETATM   10  C   UNL     1     -18.379 -12.672  -1.580  1.00  0.00     0.107 C 
HETATM   11  C   UNL     1     -18.150 -14.040  -1.688  1.00  0.00     0.080 C 
HETATM   12  C   UNL     1     -18.833 -14.906  -0.838  1.00  0.00     0.103 C 
HETATM   13  C   UNL     1     -19.649 -14.373   0.161  1.00  0.00     0.046 C 
HETATM   14  C   UNL     1     -20.042 -13.035   0.086  1.00  0.00     0.037 C 
HETATM   15  C   UNL     1     -19.523 -12.217  -0.921  1.00  0.00     0.013 C 
HETATM   16 BR   UNL     1     -20.355 -15.452   1.548  1.00  0.00    -0.048 Br
HETATM   17 BR   UNL     1     -17.140 -14.719  -3.147  1.00  0.00    -0.045 Br
HETATM   18 BR   UNL     1     -15.977  -9.747  -4.092  1.00  0.00    -0.044 Br
HETATM   19 BR   UNL     1     -20.193 -12.228  -6.867  1.00  0.00    -0.047 Br
ENDROOT
BRANCH   1  20
HETATM   20  C   UNL     1     -21.795 -10.894  -1.293  1.00  0.00    -0.007 C 
HETATM   21  C   UNL     1     -22.134  -9.820  -0.432  1.00  0.00     0.048 C 
HETATM   22  C   UNL     1     -23.374  -9.801   0.242  1.00  0.00     0.019 C 
HETATM   23  C   UNL     1     -24.366 -10.716  -0.083  1.00  0.00     0.001 C 
HETATM   24  C   UNL     1     -24.132 -11.624  -1.102  1.00  0.00     0.001 C 
HETATM   25  C   UNL     1     -22.864 -11.718  -1.687  1.00  0.00     0.013 C 
BRANCH  21  26
HETATM   26  C   UNL     1     -21.256  -8.624  -0.256  1.00  0.00     0.177 C 
HETATM   27  O   UNL     1     -20.848  -7.905  -1.153  1.00  0.00    -0.646 OA
BRANCH  26  28
HETATM   28  O   UNL     1     -20.999  -8.367   1.046  1.00  0.00    -0.773 OA
HETATM   29  H   UNL     1     -21.762  -8.445   1.651  1.00  0.00     0.167 HD
ENDBRANCH  26  28
ENDBRANCH  21  26
ENDBRANCH   1  20
BRANCH  12  30
HETATM   30  O   UNL     1     -18.772 -16.264  -1.000  1.00  0.00    -0.358 OA
HETATM   31  H   UNL     1     -18.060 -16.459  -1.638  1.00  0.00     0.217 HD
ENDBRANCH  12  30
TORSDOF 4
BEGIN_RES ARG D 557
REMARK  4 active torsions:
REMARK  status: ('A' for Active; 'I' for Inactive)
REMARK    1  A    between atoms: CA   and  CB  
REMARK    2  A    between atoms: CB   and  CG  
REMARK    3  A    between atoms: CG   and  CD  
REMARK    4  A    between atoms: CD   and  NE  
REMARK       I    between atoms: NE   and  CZ  
REMARK       I    between atoms: CZ   and  NH1 
REMARK       I    between atoms: CZ   and  NH2 
ROOT
ATOM      1  CA  ARG D 557     -26.217   2.705 -17.014  1.00 35.49     0.159 C 
ENDROOT
BRANCH   1   2
ATOM      2  CB  ARG D 557     -26.789   1.319 -17.183  1.00 35.49     0.034 C 
BRANCH   2   3
ATOM      3  CG  ARG D 557     -25.836   0.203 -17.152  1.00 35.49     0.027 C 
BRANCH   3   4
ATOM      4  CD  ARG D 557     -24.750   0.415 -16.168  1.00 35.49     0.116 C 
BRANCH   4   5
ATOM      5  NE  ARG D 557     -24.889  -0.435 -15.015  1.00 35.49    -0.212 N 
ATOM      6  CZ  ARG D 557     -24.066  -1.399 -14.669  1.00 35.49     0.666 C 
ATOM      7  NH1 ARG D 557     -22.995  -1.707 -15.377  1.00 35.49    -0.235 N 
ATOM      8  NH2 ARG D 557     -24.336  -2.056 -13.578  1.00 35.49    -0.235 N 
ATOM      9  HH  ARG D 557     -22.797  -1.287 -16.097  1.00 35.49     0.174 HD
ATOM     10  HH  ARG D 557     -22.494  -2.344 -15.101  1.00 35.49     0.174 HD
ATOM     11  HH  ARG D 557     -25.030  -1.830 -13.137  1.00 35.49     0.174 HD
ATOM     12  HH  ARG D 557     -23.826  -2.682 -13.320  1.00 35.49     0.174 HD
ATOM     13  HE  ARG D 557     -25.590  -0.354 -14.542  1.00 35.49     0.178 HD
ENDBRANCH   4   5
ENDBRANCH   3   4
ENDBRANCH   2   3
ENDBRANCH   1   2
END_RES ARG D 557
BEGIN_RES GLU D 570
REMARK  3 active torsions:
REMARK  status: ('A' for Active; 'I' for Inactive)
REMARK    5  A    between atoms: CA   and  CB  
REMARK    6  A    between atoms: CB   and  CG  
REMARK    7  A    between atoms: CG   and  CD  
ROOT
ATOM     14  CA  GLU D 570     -18.033  -6.348 -13.375  1.00 32.92     0.160 C 
ENDROOT
BRANCH  14  15
ATOM     15  CB  GLU D 570     -19.500  -6.345 -13.794  1.00 32.92     0.043 C 
BRANCH  15  16
ATOM     16  CG  GLU D 570     -20.444  -5.540 -12.976  1.00 32.92     0.100 C 
BRANCH  16  17
ATOM     17  CD  GLU D 570     -21.732  -5.226 -13.701  1.00 32.92     0.185 C 
ATOM     18  OE1 GLU D 570     -22.282  -4.125 -13.508  1.00 32.92    -0.647 OA
ATOM     19  OE2 GLU D 570     -22.204  -6.097 -14.457  1.00 32.92    -0.647 OA
ENDBRANCH  16  17
ENDBRANCH  15  16
ENDBRANCH  14  15
END_RES GLU D 570
ENDMDL
MODEL 4
REMARK VINA RESULT:      -6.3      1.969      4.795
REMARK  4 active torsions:
REMARK  status: ('A' for Active; 'I' for Inactive)
REMARK    1  A    between atoms: C_4  and  C_27 
REMARK    2  A    between atoms: C_5  and  C_7 
REMARK    3  A    between atoms: C_18  and  O_23 
REMARK    4  A    between atoms: C_27  and  O_29 
ROOT
HETATM    1  C   UNL     1     -18.548 -10.991  -1.123  1.00  0.00     0.001 C 
HETATM    2  C   UNL     1     -19.903 -10.987  -0.930  1.00  0.00     0.013 C 
HETATM    3  C   UNL     1     -20.794 -12.098  -1.267  1.00  0.00     0.038 C 
HETATM    4  C   UNL     1     -22.120 -11.963  -1.097  1.00  0.00     0.063 C 
HETATM    5  C   UNL     1     -22.674 -10.747  -0.391  1.00  0.00     0.209 C 
HETATM    6  O   UNL     1     -23.829 -10.716   0.005  1.00  0.00    -0.285 OA
HETATM    7  C   UNL     1     -21.792  -9.532  -0.373  1.00  0.00     0.097 C 
HETATM    8  C   UNL     1     -20.598  -9.691  -0.952  1.00  0.00     0.108 C 
HETATM    9  O   UNL     1     -20.202  -8.808  -1.942  1.00  0.00    -0.306 OA
HETATM   10  C   UNL     1     -19.282  -9.322  -2.815  1.00  0.00     0.107 C 
HETATM   11  C   UNL     1     -19.475  -9.311  -4.192  1.00  0.00     0.080 C 
HETATM   12  C   UNL     1     -18.418  -9.671  -5.024  1.00  0.00     0.103 C 
HETATM   13  C   UNL     1     -17.169  -9.936  -4.457  1.00  0.00     0.046 C 
HETATM   14  C   UNL     1     -17.074 -10.173  -3.084  1.00  0.00     0.037 C 
HETATM   15  C   UNL     1     -18.206 -10.032  -2.278  1.00  0.00     0.013 C 
HETATM   16 BR   UNL     1     -15.614 -10.117  -5.521  1.00  0.00    -0.048 Br
HETATM   17 BR   UNL     1     -21.223  -9.080  -4.902  1.00  0.00    -0.045 Br
HETATM   18 BR   UNL     1     -22.569  -7.871  -0.035  1.00  0.00    -0.044 Br
HETATM   19 BR   UNL     1     -23.331 -13.104  -1.949  1.00  0.00    -0.047 Br
ENDROOT
BRANCH   1  20
HETATM   20  C   UNL     1     -17.597 -12.092  -0.717  1.00  0.00    -0.007 C 
HETATM   21  C   UNL     1     -17.475 -13.285  -1.474  1.00  0.00     0.048 C 
HETATM   22  C   UNL     1     -16.919 -14.448  -0.898  1.00  0.00     0.019 C 
HETATM   23  C   UNL     1     -16.293 -14.392   0.339  1.00  0.00     0.001 C 
HETATM   24  C   UNL     1     -16.192 -13.171   0.984  1.00  0.00     0.001 C 
HETATM   25  C   UNL     1     -16.844 -12.045   0.469  1.00  0.00     0.013 C 
BRANCH  21  26
HETATM   26  C   UNL     1     -17.837 -13.358  -2.921  1.00  0.00     0.177 C 
HETATM   27  O   UNL     1     -18.971 -13.343  -3.370  1.00  0.00    -0.646 OA
BRANCH  26  28
HETATM   28  O   UNL     1     -16.747 -13.379  -3.719  1.00  0.00    -0.773 OA
HETATM   29  H   UNL     1     -15.888 -13.267  -3.267  1.00  0.00     0.167 HD
ENDBRANCH  26  28
ENDBRANCH  21  26
ENDBRANCH   1  20
BRANCH  12  30
HETATM   30  O   UNL     1     -18.590  -9.834  -6.372  1.00  0.00    -0.358 OA
HETATM   31  H   UNL     1     -18.395 -10.764  -6.590  1.00  0.00     0.217 HD
ENDBRANCH  12  30
TORSDOF 4
BEGIN_RES ARG D 557
REMARK  4 active torsions:
REMARK  status: ('A' for Active; 'I' for Inactive)
REMARK    1  A    between atoms: CA   and  CB  
REMARK    2  A    between atoms: CB   and  CG  
REMARK    3  A    between atoms: CG   and  CD  
REMARK    4  A    between atoms: CD   and  NE  
REMARK       I    between atoms: NE   and  CZ  
REMARK       I    between atoms: CZ   and  NH1 
REMARK       I    between atoms: CZ   and  NH2 
ROOT
ATOM      1  CA  ARG D 557     -26.217   2.705 -17.014  1.00 35.49     0.159 C 
ENDROOT
BRANCH   1   2
ATOM      2  CB  ARG D 557     -26.789   1.319 -17.183  1.00 35.49     0.034 C 
BRANCH   2   3
ATOM      3  CG  ARG D 557     -25.837   0.202 -17.146  1.00 35.49     0.027 C 
BRANCH   3   4
ATOM      4  CD  ARG D 557     -24.756   0.414 -16.157  1.00 35.49     0.116 C 
BRANCH   4   5
ATOM      5  NE  ARG D 557     -24.898  -0.440 -15.007  1.00 35.49    -0.212 N 
ATOM      6  CZ  ARG D 557     -24.079  -1.409 -14.664  1.00 35.49     0.666 C 
ATOM      7  NH1 ARG D 557     -23.010  -1.719 -15.375  1.00 35.49    -0.235 N 
ATOM      8  NH2 ARG D 557     -24.352  -2.069 -13.576  1.00 35.49    -0.235 N 
ATOM      9  HH  ARG D 557     -22.811  -1.296 -16.093  1.00 35.49     0.174 HD
ATOM     10  HH  ARG D 557     -22.511  -2.359 -15.101  1.00 35.49     0.174 HD
ATOM     11  HH  ARG D 557     -25.045  -1.842 -13.134  1.00 35.49     0.174 HD
ATOM     12  HH  ARG D 557     -23.845  -2.698 -13.321  1.00 35.49     0.174 HD
ATOM     13  HE  ARG D 557     -25.599  -0.358 -14.533  1.00 35.49     0.178 HD
ENDBRANCH   4   5
ENDBRANCH   3   4
ENDBRANCH   2   3
ENDBRANCH   1   2
END_RES ARG D 557
BEGIN_RES GLU D 570
REMARK  3 active torsions:
REMARK  status: ('A' for Active; 'I' for Inactive)
REMARK    5  A    between atoms: CA   and  CB  
REMARK    6  A    between atoms: CB   and  CG  
REMARK    7  A    between atoms: CG   and  CD  
ROOT
ATOM     14  CA  GLU D 570     -18.033  -6.348 -13.375  1.00 32.92     0.160 C 
ENDROOT
BRANCH  14  15
ATOM     15  CB  GLU D 570     -19.500  -6.345 -13.794  1.00 32.92     0.043 C 
BRANCH  15  16
ATOM     16  CG  GLU D 570     -20.443  -5.538 -12.978  1.00 32.92     0.100 C 
BRANCH  16  17
ATOM     17  CD  GLU D 570     -21.724  -5.209 -13.710  1.00 32.92     0.185 C 
ATOM     18  OE1 GLU D 570     -22.296  -4.128 -13.474  1.00 32.92    -0.647 OA
ATOM     19  OE2 GLU D 570     -22.169  -6.050 -14.516  1.00 32.92    -0.647 OA
ENDBRANCH  16  17
ENDBRANCH  15  16
ENDBRANCH  14  15
END_RES GLU D 570
ENDMDL
MODEL 5
REMARK VINA RESULT:      -6.3      1.928      4.525
REMARK  4 active torsions:
REMARK  status: ('A' for Active; 'I' for Inactive)
REMARK    1  A    between atoms: C_4  and  C_27 
REMARK    2  A    between atoms: C_5  and  C_7 
REMARK    3  A    between atoms: C_18  and  O_23 
REMARK    4  A    between atoms: C_27  and  O_29 
ROOT
HETATM    1  C   UNL     1     -20.427 -11.804  -1.221  1.00  0.00     0.001 C 
HETATM    2  C   UNL     1     -20.562 -11.620  -2.571  1.00  0.00     0.013 C 
HETATM    3  C   UNL     1     -20.702 -12.702  -3.547  1.00  0.00     0.038 C 
HETATM    4  C   UNL     1     -20.762 -12.413  -4.857  1.00  0.00     0.063 C 
HETATM    5  C   UNL     1     -20.871 -10.975  -5.312  1.00  0.00     0.209 C 
HETATM    6  O   UNL     1     -21.184 -10.696  -6.460  1.00  0.00    -0.285 OA
HETATM    7  C   UNL     1     -20.397  -9.935  -4.339  1.00  0.00     0.097 C 
HETATM    8  C   UNL     1     -19.974 -10.411  -3.164  1.00  0.00     0.108 C 
HETATM    9  O   UNL     1     -18.715 -10.062  -2.706  1.00  0.00    -0.306 OA
HETATM   10  C   UNL     1     -18.168 -10.962  -1.833  1.00  0.00     0.107 C 
HETATM   11  C   UNL     1     -16.911 -11.523  -2.032  1.00  0.00     0.080 C 
HETATM   12  C   UNL     1     -16.340 -12.277  -1.009  1.00  0.00     0.103 C 
HETATM   13  C   UNL     1     -17.000 -12.365   0.218  1.00  0.00     0.046 C 
HETATM   14  C   UNL     1     -18.347 -12.004   0.301  1.00  0.00     0.037 C 
HETATM   15  C   UNL     1     -18.985 -11.452  -0.812  1.00  0.00     0.013 C 
HETATM   16 BR   UNL     1     -16.157 -13.093   1.749  1.00  0.00    -0.048 Br
HETATM   17 BR   UNL     1     -16.121 -11.489  -3.760  1.00  0.00    -0.045 Br
HETATM   18 BR   UNL     1     -19.978  -8.236  -4.984  1.00  0.00    -0.044 Br
HETATM   19 BR   UNL     1     -20.439 -13.717  -6.157  1.00  0.00    -0.047 Br
ENDROOT
BRANCH   1  20
HETATM   20  C   UNL     1     -21.288 -12.694  -0.357  1.00  0.00    -0.007 C 
HETATM   21  C   UNL     1     -22.545 -12.260   0.136  1.00  0.00     0.048 C 
HETATM   22  C   UNL     1     -23.145 -12.902   1.241  1.00  0.00     0.019 C 
HETATM   23  C   UNL     1     -22.626 -14.091   1.731  1.00  0.00     0.001 C 
HETATM   24  C   UNL     1     -21.532 -14.657   1.099  1.00  0.00     0.001 C 
HETATM   25  C   UNL     1     -20.869 -13.962   0.081  1.00  0.00     0.013 C 
BRANCH  21  26
HETATM   26  C   UNL     1     -23.336 -11.178  -0.524  1.00  0.00     0.177 C 
HETATM   27  O   UNL     1     -24.171 -11.342  -1.397  1.00  0.00    -0.646 OA
BRANCH  26  28
HETATM   28  O   UNL     1     -23.076  -9.962   0.005  1.00  0.00    -0.773 OA
HETATM   29  H   UNL     1     -23.809  -9.318  -0.033  1.00  0.00     0.167 HD
ENDBRANCH  26  28
ENDBRANCH  21  26
ENDBRANCH   1  20
BRANCH  12  30
HETATM   30  O   UNL     1     -15.183 -12.983  -1.201  1.00  0.00    -0.358 OA
HETATM   31  H   UNL     1     -14.780 -13.142  -0.327  1.00  0.00     0.217 HD
ENDBRANCH  12  30
TORSDOF 4
BEGIN_RES ARG D 557
REMARK  4 active torsions:
REMARK  status: ('A' for Active; 'I' for Inactive)
REMARK    1  A    between atoms: CA   and  CB  
REMARK    2  A    between atoms: CB   and  CG  
REMARK    3  A    between atoms: CG   and  CD  
REMARK    4  A    between atoms: CD   and  NE  
REMARK       I    between atoms: NE   and  CZ  
REMARK       I    between atoms: CZ   and  NH1 
REMARK       I    between atoms: CZ   and  NH2 
ROOT
ATOM      1  CA  ARG D 557     -26.217   2.705 -17.014  1.00 35.49     0.159 C 
ENDROOT
BRANCH   1   2
ATOM      2  CB  ARG D 557     -26.789   1.319 -17.183  1.00 35.49     0.034 C 
BRANCH   2   3
ATOM      3  CG  ARG D 557     -25.865   0.195 -16.989  1.00 35.49     0.027 C 
BRANCH   3   4
ATOM      4  CD  ARG D 557     -26.282  -0.694 -15.881  1.00 35.49     0.116 C 
BRANCH   4   5
ATOM      5  NE  ARG D 557     -25.224  -0.907 -14.929  1.00 35.49    -0.212 N 
ATOM      6  CZ  ARG D 557     -24.924  -2.052 -14.357  1.00 35.49     0.666 C 
ATOM      7  NH1 ARG D 557     -25.597  -3.162 -14.597  1.00 35.49    -0.235 N 
ATOM      8  NH2 ARG D 557     -23.917  -2.065 -13.533  1.00 35.49    -0.235 N 
ATOM      9  HH  ARG D 557     -26.262  -3.176 -15.137  1.00 35.49     0.174 HD
ATOM     10  HH  ARG D 557     -25.354  -3.879 -14.196  1.00 35.49     0.174 HD
ATOM     11  HH  ARG D 557     -23.496  -1.335 -13.404  1.00 35.49     0.174 HD
ATOM     12  HH  ARG D 557     -23.690  -2.786 -13.148  1.00 35.49     0.174 HD
ATOM     13  HE  ARG D 557     -24.785  -0.229 -14.662  1.00 35.49     0.178 HD
ENDBRANCH   4   5
ENDBRANCH   3   4
ENDBRANCH   2   3
ENDBRANCH   1   2
END_RES ARG D 557
BEGIN_RES GLU D 570
REMARK  3 active torsions:
REMARK  status: ('A' for Active; 'I' for Inactive)
REMARK    5  A    between atoms: CA   and  CB  
REMARK    6  A    between atoms: CB   and  CG  
REMARK    7  A    between atoms: CG   and  CD  
ROOT
ATOM     14  CA  GLU D 570     -18.033  -6.348 -13.375  1.00 32.92     0.160 C 
ENDROOT
BRANCH  14  15
ATOM     15  CB  GLU D 570     -19.500  -6.345 -13.794  1.00 32.92     0.043 C 
BRANCH  15  16
ATOM     16  CG  GLU D 570     -20.447  -5.553 -12.967  1.00 32.92     0.100 C 
BRANCH  16  17
ATOM     17  CD  GLU D 570     -21.691  -5.147 -13.721  1.00 32.92     0.185 C 
ATOM     18  OE1 GLU D 570     -21.662  -5.117 -14.966  1.00 32.92    -0.647 OA
ATOM     19  OE2 GLU D 570     -22.702  -4.840 -13.058  1.00 32.92    -0.647 OA
ENDBRANCH  16  17
ENDBRANCH  15  16
ENDBRANCH  14  15
END_RES GLU D 570
ENDMDL
MODEL 6
REMARK VINA RESULT:      -6.2      2.705      4.978
REMARK  4 active torsions:
REMARK  status: ('A' for Active; 'I' for Inactive)
REMARK    1  A    between atoms: C_4  and  C_27 
REMARK    2  A    between atoms: C_5  and  C_7 
REMARK    3  A    between atoms: C_18  and  O_23 
REMARK    4  A    between atoms: C_27  and  O_29 
ROOT
HETATM    1  C   UNL     1     -20.365 -11.202  -1.745  1.00  0.00     0.001 C 
HETATM    2  C   UNL     1     -19.822 -11.015  -2.987  1.00  0.00     0.013 C 
HETATM    3  C   UNL     1     -20.422 -11.487  -4.236  1.00  0.00     0.038 C 
HETATM    4  C   UNL     1     -19.771 -11.308  -5.397  1.00  0.00     0.063 C 
HETATM    5  C   UNL     1     -18.518 -10.462  -5.441  1.00  0.00     0.209 C 
HETATM    6  O   UNL     1     -18.056 -10.069  -6.502  1.00  0.00    -0.285 OA
HETATM    7  C   UNL     1     -17.787 -10.294  -4.141  1.00  0.00     0.097 C 
HETATM    8  C   UNL     1     -18.362 -10.884  -3.088  1.00  0.00     0.108 C 
HETATM    9  O   UNL     1     -17.619 -11.758  -2.313  1.00  0.00    -0.306 OA
HETATM   10  C   UNL     1     -18.370 -12.682  -1.639  1.00  0.00     0.107 C 
HETATM   11  C   UNL     1     -18.131 -14.049  -1.737  1.00  0.00     0.080 C 
HETATM   12  C   UNL     1     -18.803 -14.914  -0.877  1.00  0.00     0.103 C 
HETATM   13  C   UNL     1     -19.620 -14.378   0.121  1.00  0.00     0.046 C 
HETATM   14  C   UNL     1     -20.023 -13.043   0.037  1.00  0.00     0.037 C 
HETATM   15  C   UNL     1     -19.514 -12.231  -0.979  1.00  0.00     0.013 C 
HETATM   16 BR   UNL     1     -20.311 -15.451   1.520  1.00  0.00    -0.048 Br
HETATM   17 BR   UNL     1     -17.122 -14.733  -3.195  1.00  0.00    -0.045 Br
HETATM   18 BR   UNL     1     -16.000  -9.761  -4.186  1.00  0.00    -0.044 Br
HETATM   19 BR   UNL     1     -20.209 -12.296  -6.922  1.00  0.00    -0.047 Br
ENDROOT
BRANCH   1  20
HETATM   20  C   UNL     1     -21.798 -10.928  -1.353  1.00  0.00    -0.007 C 
HETATM   21  C   UNL     1     -22.145  -9.827  -0.528  1.00  0.00     0.048 C 
HETATM   22  C   UNL     1     -23.379  -9.803   0.157  1.00  0.00     0.019 C 
HETATM   23  C   UNL     1     -24.359 -10.744  -0.124  1.00  0.00     0.001 C 
HETATM   24  C   UNL     1     -24.122 -11.685  -1.111  1.00  0.00     0.001 C 
HETATM   25  C   UNL     1     -22.857 -11.781  -1.704  1.00  0.00     0.013 C 
BRANCH  21  26
HETATM   26  C   UNL     1     -21.284  -8.613  -0.405  1.00  0.00     0.177 C 
HETATM   27  O   UNL     1     -20.928  -7.899  -1.328  1.00  0.00    -0.646 OA
BRANCH  26  28
HETATM   28  O   UNL     1     -20.978  -8.332   0.881  1.00  0.00    -0.773 OA
HETATM   29  H   UNL     1     -20.095  -7.945   1.032  1.00  0.00     0.167 HD
ENDBRANCH  26  28
ENDBRANCH  21  26
ENDBRANCH   1  20
BRANCH  12  30
HETATM   30  O   UNL     1     -18.733 -16.272  -1.028  1.00  0.00    -0.358 OA
HETATM   31  H   UNL     1     -18.109 -16.462  -1.753  1.00  0.00     0.217 HD
ENDBRANCH  12  30
TORSDOF 4
BEGIN_RES ARG D 557
REMARK  4 active torsions:
REMARK  status: ('A' for Active; 'I' for Inactive)
REMARK    1  A    between atoms: CA   and  CB  
REMARK    2  A    between atoms: CB   and  CG  
REMARK    3  A    between atoms: CG   and  CD  
REMARK    4  A    between atoms: CD   and  NE  
REMARK       I    between atoms: NE   and  CZ  
REMARK       I    between atoms: CZ   and  NH1 
REMARK       I    between atoms: CZ   and  NH2 
ROOT
ATOM      1  CA  ARG D 557     -26.217   2.705 -17.014  1.00 35.49     0.159 C 
ENDROOT
BRANCH   1   2
ATOM      2  CB  ARG D 557     -26.789   1.319 -17.183  1.00 35.49     0.034 C 
BRANCH   2   3
ATOM      3  CG  ARG D 557     -28.233   1.226 -17.429  1.00 35.49     0.027 C 
BRANCH   3   4
ATOM      4  CD  ARG D 557     -28.907   0.298 -16.492  1.00 35.49     0.116 C 
BRANCH   4   5
ATOM      5  NE  ARG D 557     -29.302  -0.928 -17.132  1.00 35.49    -0.212 N 
ATOM      6  CZ  ARG D 557     -28.677  -2.081 -17.036  1.00 35.49     0.666 C 
ATOM      7  NH1 ARG D 557     -27.574  -2.233 -16.327  1.00 35.49    -0.235 N 
ATOM      8  NH2 ARG D 557     -29.190  -3.096 -17.669  1.00 35.49    -0.235 N 
ATOM      9  HH  ARG D 557     -27.221  -1.579 -15.901  1.00 35.49     0.174 HD
ATOM     10  HH  ARG D 557     -27.212  -3.009 -16.299  1.00 35.49     0.174 HD
ATOM     11  HH  ARG D 557     -29.907  -2.970 -18.113  1.00 35.49     0.174 HD
ATOM     12  HH  ARG D 557     -28.818  -3.856 -17.627  1.00 35.49     0.174 HD
ATOM     13  HE  ARG D 557     -29.962  -0.904 -17.668  1.00 35.49     0.178 HD
ENDBRANCH   4   5
ENDBRANCH   3   4
ENDBRANCH   2   3
ENDBRANCH   1   2
END_RES ARG D 557
BEGIN_RES GLU D 570
REMARK  3 active torsions:
REMARK  status: ('A' for Active; 'I' for Inactive)
REMARK    5  A    between atoms: CA   and  CB  
REMARK    6  A    between atoms: CB   and  CG  
REMARK    7  A    between atoms: CG   and  CD  
ROOT
ATOM     14  CA  GLU D 570     -18.033  -6.348 -13.375  1.00 32.92     0.160 C 
ENDROOT
BRANCH  14  15
ATOM     15  CB  GLU D 570     -19.500  -6.345 -13.794  1.00 32.92     0.043 C 
BRANCH  15  16
ATOM     16  CG  GLU D 570     -20.108  -7.649 -14.166  1.00 32.92     0.100 C 
BRANCH  16  17
ATOM     17  CD  GLU D 570     -20.687  -7.652 -15.562  1.00 32.92     0.185 C 
ATOM     18  OE1 GLU D 570     -21.166  -6.598 -16.021  1.00 32.92    -0.647 OA
ATOM     19  OE2 GLU D 570     -20.675  -8.725 -16.196  1.00 32.92    -0.647 OA
ENDBRANCH  16  17
ENDBRANCH  15  16
ENDBRANCH  14  15
END_RES GLU D 570
ENDMDL
MODEL 7
REMARK VINA RESULT:      -6.0      3.088      5.417
REMARK  4 active torsions:
REMARK  status: ('A' for Active; 'I' for Inactive)
REMARK    1  A    between atoms: C_4  and  C_27 
REMARK    2  A    between atoms: C_5  and  C_7 
REMARK    3  A    between atoms: C_18  and  O_23 
REMARK    4  A    between atoms: C_27  and  O_29 
ROOT
HETATM    1  C   UNL     1     -19.932 -10.639  -3.756  1.00  0.00     0.001 C 
HETATM    2  C   UNL     1     -20.617 -10.986  -2.622  1.00  0.00     0.013 C 
HETATM    3  C   UNL     1     -21.992 -11.486  -2.601  1.00  0.00     0.038 C 
HETATM    4  C   UNL     1     -22.593 -11.733  -1.425  1.00  0.00     0.063 C 
HETATM    5  C   UNL     1     -21.799 -11.674  -0.141  1.00  0.00     0.209 C 
HETATM    6  O   UNL     1     -22.240 -12.138   0.900  1.00  0.00    -0.285 OA
HETATM    7  C   UNL     1     -20.539 -10.858  -0.178  1.00  0.00     0.097 C 
HETATM    8  C   UNL     1     -20.251 -10.316  -1.366  1.00  0.00     0.108 C 
HETATM    9  O   UNL     1     -20.021  -8.953  -1.449  1.00  0.00    -0.306 OA
HETATM   10  C   UNL     1     -20.266  -8.420  -2.685  1.00  0.00     0.107 C 
HETATM   11  C   UNL     1     -21.118  -7.336  -2.873  1.00  0.00     0.080 C 
HETATM   12  C   UNL     1     -21.167  -6.727  -4.124  1.00  0.00     0.103 C 
HETATM   13  C   UNL     1     -20.292  -7.157  -5.123  1.00  0.00     0.046 C 
HETATM   14  C   UNL     1     -19.637  -8.383  -4.982  1.00  0.00     0.037 C 
HETATM   15  C   UNL     1     -19.777  -9.109  -3.796  1.00  0.00     0.013 C 
HETATM   16 BR   UNL     1     -20.069  -6.186  -6.733  1.00  0.00    -0.048 Br
HETATM   17 BR   UNL     1     -22.382  -6.881  -1.529  1.00  0.00    -0.045 Br
HETATM   18 BR   UNL     1     -19.805 -10.277   1.435  1.00  0.00    -0.044 Br
HETATM   19 BR   UNL     1     -24.452 -11.883  -1.295  1.00  0.00    -0.047 Br
ENDROOT
BRANCH   1  20
HETATM   20  C   UNL     1     -19.824 -11.469  -5.013  1.00  0.00    -0.007 C 
HETATM   21  C   UNL     1     -18.567 -11.885  -5.523  1.00  0.00     0.048 C 
HETATM   22  C   UNL     1     -18.435 -12.290  -6.869  1.00  0.00     0.019 C 
HETATM   23  C   UNL     1     -19.560 -12.491  -7.657  1.00  0.00     0.001 C 
HETATM   24  C   UNL     1     -20.813 -12.321  -7.094  1.00  0.00     0.001 C 
HETATM   25  C   UNL     1     -20.939 -11.807  -5.798  1.00  0.00     0.013 C 
BRANCH  21  26
HETATM   26  C   UNL     1     -17.350 -12.000  -4.664  1.00  0.00     0.177 C 
HETATM   27  O   UNL     1     -16.476 -11.157  -4.556  1.00  0.00    -0.646 OA
BRANCH  26  28
HETATM   28  O   UNL     1     -17.343 -13.143  -3.942  1.00  0.00    -0.773 OA
HETATM   29  H   UNL     1     -18.156 -13.329  -3.435  1.00  0.00     0.167 HD
ENDBRANCH  26  28
ENDBRANCH  21  26
ENDBRANCH   1  20
BRANCH  12  30
HETATM   30  O   UNL     1     -22.095  -5.764  -4.415  1.00  0.00    -0.358 OA
HETATM   31  H   UNL     1     -21.764  -4.914  -4.071  1.00  0.00     0.217 HD
ENDBRANCH  12  30
TORSDOF 4
BEGIN_RES ARG D 557
REMARK  4 active torsions:
REMARK  status: ('A' for Active; 'I' for Inactive)
REMARK    1  A    between atoms: CA   and  CB  
REMARK    2  A    between atoms: CB   and  CG  
REMARK    3  A    between atoms: CG   and  CD  
REMARK    4  A    between atoms: CD   and  NE  
REMARK       I    between atoms: NE   and  CZ  
REMARK       I    between atoms: CZ   and  NH1 
REMARK       I    between atoms: CZ   and  NH2 
ROOT
ATOM      1  CA  ARG D 557     -26.217   2.705 -17.014  1.00 35.49     0.159 C 
ENDROOT
BRANCH   1   2
ATOM      2  CB  ARG D 557     -26.789   1.319 -17.183  1.00 35.49     0.034 C 
BRANCH   2   3
ATOM      3  CG  ARG D 557     -28.231   1.226 -17.440  1.00 35.49     0.027 C 
BRANCH   3   4
ATOM      4  CD  ARG D 557     -28.913   0.303 -16.504  1.00 35.49     0.116 C 
BRANCH   4   5
ATOM      5  NE  ARG D 557     -29.280  -0.936 -17.136  1.00 35.49    -0.212 N 
ATOM      6  CZ  ARG D 557     -28.635  -2.076 -17.023  1.00 35.49     0.666 C 
ATOM      7  NH1 ARG D 557     -27.536  -2.201 -16.303  1.00 35.49    -0.235 N 
ATOM      8  NH2 ARG D 557     -29.124  -3.107 -17.650  1.00 35.49    -0.235 N 
ATOM      9  HH  ARG D 557     -27.198  -1.537 -15.880  1.00 35.49     0.174 HD
ATOM     10  HH  ARG D 557     -27.160  -2.970 -16.264  1.00 35.49     0.174 HD
ATOM     11  HH  ARG D 557     -29.839  -2.998 -18.101  1.00 35.49     0.174 HD
ATOM     12  HH  ARG D 557     -28.738  -3.860 -17.598  1.00 35.49     0.174 HD
ATOM     13  HE  ARG D 557     -29.936  -0.930 -17.677  1.00 35.49     0.178 HD
ENDBRANCH   4   5
ENDBRANCH   3   4
ENDBRANCH   2   3
ENDBRANCH   1   2
END_RES ARG D 557
BEGIN_RES GLU D 570
REMARK  3 active torsions:
REMARK  status: ('A' for Active; 'I' for Inactive)
REMARK    5  A    between atoms: CA   and  CB  
REMARK    6  A    between atoms: CB   and  CG  
REMARK    7  A    between atoms: CG   and  CD  
ROOT
ATOM     14  CA  GLU D 570     -18.033  -6.348 -13.375  1.00 32.92     0.160 C 
ENDROOT
BRANCH  14  15
ATOM     15  CB  GLU D 570     -19.500  -6.345 -13.794  1.00 32.92     0.043 C 
BRANCH  15  16
ATOM     16  CG  GLU D 570     -19.802  -6.093 -15.227  1.00 32.92     0.100 C 
BRANCH  16  17
ATOM     17  CD  GLU D 570     -21.118  -5.380 -15.435  1.00 32.92     0.185 C 
ATOM     18  OE1 GLU D 570     -21.487  -5.118 -16.596  1.00 32.92    -0.647 OA
ATOM     19  OE2 GLU D 570     -21.778  -5.065 -14.426  1.00 32.92    -0.647 OA
ENDBRANCH  16  17
ENDBRANCH  15  16
ENDBRANCH  14  15
END_RES GLU D 570
ENDMDL
MODEL 8
REMARK VINA RESULT:      -6.0      2.433      5.490
REMARK  4 active torsions:
REMARK  status: ('A' for Active; 'I' for Inactive)
REMARK    1  A    between atoms: C_4  and  C_27 
REMARK    2  A    between atoms: C_5  and  C_7 
REMARK    3  A    between atoms: C_18  and  O_23 
REMARK    4  A    between atoms: C_27  and  O_29 
ROOT
HETATM    1  C   UNL     1     -18.786 -10.868  -2.304  1.00  0.00     0.001 C 
HETATM    2  C   UNL     1     -19.646  -9.811  -2.173  1.00  0.00     0.013 C 
HETATM    3  C   UNL     1     -20.472  -9.552  -0.993  1.00  0.00     0.038 C 
HETATM    4  C   UNL     1     -21.333  -8.520  -0.996  1.00  0.00     0.063 C 
HETATM    5  C   UNL     1     -21.317  -7.524  -2.133  1.00  0.00     0.209 C 
HETATM    6  O   UNL     1     -21.894  -6.451  -2.043  1.00  0.00    -0.285 OA
HETATM    7  C   UNL     1     -20.720  -8.002  -3.425  1.00  0.00     0.097 C 
HETATM    8  C   UNL     1     -20.233  -9.246  -3.397  1.00  0.00     0.108 C 
HETATM    9  O   UNL     1     -20.660 -10.162  -4.343  1.00  0.00    -0.306 OA
HETATM   10  C   UNL     1     -20.556 -11.467  -3.945  1.00  0.00     0.107 C 
HETATM   11  C   UNL     1     -21.635 -12.344  -3.978  1.00  0.00     0.080 C 
HETATM   12  C   UNL     1     -21.409 -13.699  -3.745  1.00  0.00     0.103 C 
HETATM   13  C   UNL     1     -20.098 -14.150  -3.584  1.00  0.00     0.046 C 
HETATM   14  C   UNL     1     -19.082 -13.229  -3.315  1.00  0.00     0.037 C 
HETATM   15  C   UNL     1     -19.369 -11.862  -3.325  1.00  0.00     0.013 C 
HETATM   16 BR   UNL     1     -19.676 -15.995  -3.583  1.00  0.00    -0.048 Br
HETATM   17 BR   UNL     1     -23.407 -11.664  -4.065  1.00  0.00    -0.045 Br
HETATM   18 BR   UNL     1     -21.140  -7.086  -4.994  1.00  0.00    -0.044 Br
HETATM   19 BR   UNL     1     -22.742  -8.425   0.228  1.00  0.00    -0.047 Br
ENDROOT
BRANCH   1  20
HETATM   20  C   UNL     1     -17.760 -11.308  -1.285  1.00  0.00    -0.007 C 
HETATM   21  C   UNL     1     -16.373 -11.308  -1.581  1.00  0.00     0.048 C 
HETATM   22  C   UNL     1     -15.474 -12.079  -0.812  1.00  0.00     0.019 C 
HETATM   23  C   UNL     1     -15.892 -12.679   0.367  1.00  0.00     0.001 C 
HETATM   24  C   UNL     1     -17.193 -12.482   0.796  1.00  0.00     0.001 C 
HETATM   25  C   UNL     1     -18.113 -11.818  -0.025  1.00  0.00     0.013 C 
BRANCH  21  26
HETATM   26  C   UNL     1     -15.778 -10.444  -2.645  1.00  0.00     0.177 C 
HETATM   27  O   UNL     1     -15.750  -9.225  -2.635  1.00  0.00    -0.646 OA
BRANCH  26  28
HETATM   28  O   UNL     1     -15.195 -11.171  -3.624  1.00  0.00    -0.773 OA
HETATM   29  H   UNL     1     -15.610 -12.034  -3.816  1.00  0.00     0.167 HD
ENDBRANCH  26  28
ENDBRANCH  21  26
ENDBRANCH   1  20
BRANCH  12  30
HETATM   30  O   UNL     1     -22.444 -14.584  -3.608  1.00  0.00    -0.358 OA
HETATM   31  H   UNL     1     -22.315 -15.301  -4.256  1.00  0.00     0.217 HD
ENDBRANCH  12  30
TORSDOF 4
BEGIN_RES ARG D 557
REMARK  4 active torsions:
REMARK  status: ('A' for Active; 'I' for Inactive)
REMARK    1  A    between atoms: CA   and  CB  
REMARK    2  A    between atoms: CB   and  CG  
REMARK    3  A    between atoms: CG   and  CD  
REMARK    4  A    between atoms: CD   and  NE  
REMARK       I    between atoms: NE   and  CZ  
REMARK       I    between atoms: CZ   and  NH1 
REMARK       I    between atoms: CZ   and  NH2 
ROOT
ATOM      1  CA  ARG D 557     -26.217   2.705 -17.014  1.00 35.49     0.159 C 
ENDROOT
BRANCH   1   2
ATOM      2  CB  ARG D 557     -26.789   1.319 -17.183  1.00 35.49     0.034 C 
BRANCH   2   3
ATOM      3  CG  ARG D 557     -25.837   0.202 -17.149  1.00 35.49     0.027 C 
BRANCH   3   4
ATOM      4  CD  ARG D 557     -24.756   0.413 -16.158  1.00 35.49     0.116 C 
BRANCH   4   5
ATOM      5  NE  ARG D 557     -24.897  -0.444 -15.011  1.00 35.49    -0.212 N 
ATOM      6  CZ  ARG D 557     -24.071  -1.405 -14.664  1.00 35.49     0.666 C 
ATOM      7  NH1 ARG D 557     -22.994  -1.703 -15.367  1.00 35.49    -0.235 N 
ATOM      8  NH2 ARG D 557     -24.344  -2.069 -13.578  1.00 35.49    -0.235 N 
ATOM      9  HH  ARG D 557     -22.793  -1.277 -16.083  1.00 35.49     0.174 HD
ATOM     10  HH  ARG D 557     -22.490  -2.338 -15.091  1.00 35.49     0.174 HD
ATOM     11  HH  ARG D 557     -25.042  -1.850 -13.141  1.00 35.49     0.174 HD
ATOM     12  HH  ARG D 557     -23.832  -2.694 -13.320  1.00 35.49     0.174 HD
ATOM     13  HE  ARG D 557     -25.602  -0.370 -14.541  1.00 35.49     0.178 HD
ENDBRANCH   4   5
ENDBRANCH   3   4
ENDBRANCH   2   3
ENDBRANCH   1   2
END_RES ARG D 557
BEGIN_RES GLU D 570
REMARK  3 active torsions:
REMARK  status: ('A' for Active; 'I' for Inactive)
REMARK    5  A    between atoms: CA   and  CB  
REMARK    6  A    between atoms: CB   and  CG  
REMARK    7  A    between atoms: CG   and  CD  
ROOT
ATOM     14  CA  GLU D 570     -18.033  -6.348 -13.375  1.00 32.92     0.160 C 
ENDROOT
BRANCH  14  15
ATOM     15  CB  GLU D 570     -19.500  -6.345 -13.794  1.00 32.92     0.043 C 
BRANCH  15  16
ATOM     16  CG  GLU D 570     -20.442  -5.529 -12.984  1.00 32.92     0.100 C 
BRANCH  16  17
ATOM     17  CD  GLU D 570     -21.719  -5.198 -13.721  1.00 32.92     0.185 C 
ATOM     18  OE1 GLU D 570     -22.301  -4.126 -13.471  1.00 32.92    -0.647 OA
ATOM     19  OE2 GLU D 570     -22.150  -6.029 -14.545  1.00 32.92    -0.647 OA
ENDBRANCH  16  17
ENDBRANCH  15  16
ENDBRANCH  14  15
END_RES GLU D 570
ENDMDL
MODEL 9
REMARK VINA RESULT:      -5.9      2.302      5.154
REMARK  4 active torsions:
REMARK  status: ('A' for Active; 'I' for Inactive)
REMARK    1  A    between atoms: C_4  and  C_27 
REMARK    2  A    between atoms: C_5  and  C_7 
REMARK    3  A    between atoms: C_18  and  O_23 
REMARK    4  A    between atoms: C_27  and  O_29 
ROOT
HETATM    1  C   UNL     1     -18.668 -11.614  -1.386  1.00  0.00     0.001 C 
HETATM    2  C   UNL     1     -19.985 -11.411  -1.073  1.00  0.00     0.013 C 
HETATM    3  C   UNL     1     -21.093 -12.225  -1.574  1.00  0.00     0.038 C 
HETATM    4  C   UNL     1     -22.357 -11.898  -1.256  1.00  0.00     0.063 C 
HETATM    5  C   UNL     1     -22.626 -10.810  -0.241  1.00  0.00     0.209 C 
HETATM    6  O   UNL     1     -23.733 -10.667   0.256  1.00  0.00    -0.285 OA
HETATM    7  C   UNL     1     -21.520  -9.818  -0.026  1.00  0.00     0.097 C 
HETATM    8  C   UNL     1     -20.409 -10.045  -0.733  1.00  0.00     0.108 C 
HETATM    9  O   UNL     1     -19.892  -9.035  -1.524  1.00  0.00    -0.306 OA
HETATM   10  C   UNL     1     -19.133  -9.479  -2.573  1.00  0.00     0.107 C 
HETATM   11  C   UNL     1     -19.382  -9.098  -3.887  1.00  0.00     0.080 C 
HETATM   12  C   UNL     1     -18.456  -9.430  -4.872  1.00  0.00     0.103 C 
HETATM   13  C   UNL     1     -17.261 -10.047  -4.499  1.00  0.00     0.046 C 
HETATM   14  C   UNL     1     -17.152 -10.626  -3.232  1.00  0.00     0.037 C 
HETATM   15  C   UNL     1     -18.196 -10.482  -2.314  1.00  0.00     0.013 C 
HETATM   16 BR   UNL     1     -15.823 -10.243  -5.715  1.00  0.00    -0.048 Br
HETATM   17 BR   UNL     1     -21.079  -8.386  -4.361  1.00  0.00    -0.045 Br
HETATM   18 BR   UNL     1     -21.936  -8.176   0.756  1.00  0.00    -0.044 Br
HETATM   19 BR   UNL     1     -23.808 -12.556  -2.234  1.00  0.00    -0.047 Br
ENDROOT
BRANCH   1  20
HETATM   20  C   UNL     1     -17.938 -12.936  -1.333  1.00  0.00    -0.007 C 
HETATM   21  C   UNL     1     -16.693 -13.070  -0.668  1.00  0.00     0.048 C 
HETATM   22  C   UNL     1     -15.837 -14.155  -0.956  1.00  0.00     0.019 C 
HETATM   23  C   UNL     1     -16.282 -15.217  -1.731  1.00  0.00     0.001 C 
HETATM   24  C   UNL     1     -17.589 -15.211  -2.189  1.00  0.00     0.001 C 
HETATM   25  C   UNL     1     -18.397 -14.083  -2.002  1.00  0.00     0.013 C 
BRANCH  21  26
HETATM   26  C   UNL     1     -16.258 -12.141   0.418  1.00  0.00     0.177 C 
HETATM   27  O   UNL     1     -15.368 -11.312   0.327  1.00  0.00    -0.646 OA
BRANCH  26  28
HETATM   28  O   UNL     1     -17.015 -12.267   1.531  1.00  0.00    -0.773 OA
HETATM   29  H   UNL     1     -16.624 -11.909   2.351  1.00  0.00     0.167 HD
ENDBRANCH  26  28
ENDBRANCH  21  26
ENDBRANCH   1  20
BRANCH  12  30
HETATM   30  O   UNL     1     -18.718  -9.225  -6.200  1.00  0.00    -0.358 OA
HETATM   31  H   UNL     1     -18.381  -9.994  -6.695  1.00  0.00     0.217 HD
ENDBRANCH  12  30
TORSDOF 4
BEGIN_RES ARG D 557
REMARK  4 active torsions:
REMARK  status: ('A' for Active; 'I' for Inactive)
REMARK    1  A    between atoms: CA   and  CB  
REMARK    2  A    between atoms: CB   and  CG  
REMARK    3  A    between atoms: CG   and  CD  
REMARK    4  A    between atoms: CD   and  NE  
REMARK       I    between atoms: NE   and  CZ  
REMARK       I    between atoms: CZ   and  NH1 
REMARK       I    between atoms: CZ   and  NH2 
ROOT
ATOM      1  CA  ARG D 557     -26.217   2.705 -17.014  1.00 35.49     0.159 C 
ENDROOT
BRANCH   1   2
ATOM      2  CB  ARG D 557     -26.789   1.319 -17.183  1.00 35.49     0.034 C 
BRANCH   2   3
ATOM      3  CG  ARG D 557     -25.932   0.197 -16.781  1.00 35.49     0.027 C 
BRANCH   3   4
ATOM      4  CD  ARG D 557     -26.687  -0.867 -16.080  1.00 35.49     0.116 C 
BRANCH   4   5
ATOM      5  NE  ARG D 557     -25.941  -1.432 -14.987  1.00 35.49    -0.212 N 
ATOM      6  CZ  ARG D 557     -25.934  -2.698 -14.636  1.00 35.49     0.666 C 
ATOM      7  NH1 ARG D 557     -26.649  -3.613 -15.264  1.00 35.49    -0.235 N 
ATOM      8  NH2 ARG D 557     -25.180  -3.038 -13.631  1.00 35.49    -0.235 N 
ATOM      9  HH  ARG D 557     -27.151  -3.412 -15.929  1.00 35.49     0.174 HD
ATOM     10  HH  ARG D 557     -26.603  -4.424 -14.992  1.00 35.49     0.174 HD
ATOM     11  HH  ARG D 557     -24.724  -2.428 -13.248  1.00 35.49     0.174 HD
ATOM     12  HH  ARG D 557     -25.147  -3.847 -13.377  1.00 35.49     0.174 HD
ATOM     13  HE  ARG D 557     -25.508  -0.902 -14.483  1.00 35.49     0.178 HD
ENDBRANCH   4   5
ENDBRANCH   3   4
ENDBRANCH   2   3
ENDBRANCH   1   2
END_RES ARG D 557
BEGIN_RES GLU D 570
REMARK  3 active torsions:
REMARK  status: ('A' for Active; 'I' for Inactive)
REMARK    5  A    between atoms: CA   and  CB  
REMARK    6  A    between atoms: CB   and  CG  
REMARK    7  A    between atoms: CG   and  CD  
ROOT
ATOM     14  CA  GLU D 570     -18.033  -6.348 -13.375  1.00 32.92     0.160 C 
ENDROOT
BRANCH  14  15
ATOM     15  CB  GLU D 570     -19.500  -6.345 -13.794  1.00 32.92     0.043 C 
BRANCH  15  16
ATOM     16  CG  GLU D 570     -20.445  -5.548 -12.971  1.00 32.92     0.100 C 
BRANCH  16  17
ATOM     17  CD  GLU D 570     -21.708  -5.179 -13.714  1.00 32.92     0.185 C 
ATOM     18  OE1 GLU D 570     -21.904  -5.656 -14.848  1.00 32.92    -0.647 OA
ATOM     19  OE2 GLU D 570     -22.503  -4.392 -13.162  1.00 32.92    -0.647 OA
ENDBRANCH  16  17
ENDBRANCH  15  16
ENDBRANCH  14  15
END_RES GLU D 570
ENDMDL
