MODEL 1
REMARK VINA RESULT:      -7.9      0.000      0.000
REMARK  4 active torsions:
REMARK  status: ('A' for Active; 'I' for Inactive)
REMARK    1  A    between atoms: C_2  and  C_4 
REMARK    2  A    between atoms: C_7  and  C_31 
REMARK    3  A    between atoms: C_16  and  O_29 
REMARK    4  A    between atoms: C_31  and  O_32 
ROOT
HETATM    1  C   UNL     1     -20.958  -8.772  -0.489  1.00  0.00     0.018 C 
HETATM    2  C   UNL     1     -20.743 -10.020   0.450  1.00  0.00     0.010 C 
HETATM    3  C   UNL     1     -21.516 -11.247  -0.147  1.00  0.00     0.012 C 
HETATM    4  C   UNL     1     -22.392 -10.562  -1.224  1.00  0.00    -0.014 C 
HETATM    5  C   UNL     1     -21.355  -9.521  -1.766  1.00  0.00     0.009 C 
HETATM    6  C   UNL     1     -20.172 -10.275  -2.441  1.00  0.00    -0.000 C 
HETATM    7  C   UNL     1     -18.923  -9.444  -2.647  1.00  0.00     0.006 C 
HETATM    8  C   UNL     1     -17.780 -10.417  -2.466  1.00  0.00     0.006 C 
HETATM    9  C   UNL     1     -17.861 -11.496  -3.555  1.00  0.00     0.003 C 
HETATM   10  C   UNL     1     -16.621 -12.469  -3.501  1.00  0.00    -0.035 C 
HETATM   11  C   UNL     1     -15.277 -11.646  -3.325  1.00  0.00     0.012 C 
HETATM   12  C   UNL     1     -14.008 -12.308  -3.854  1.00  0.00     0.033 C 
HETATM   13  C   UNL     1     -14.237 -12.760  -5.295  1.00  0.00     0.126 C 
HETATM   14  C   UNL     1     -15.319 -13.896  -5.347  1.00  0.00    -0.017 C 
HETATM   15  C   UNL     1     -16.631 -13.152  -4.944  1.00  0.00     0.004 C 
HETATM   16  C   UNL     1     -17.958 -13.784  -5.411  1.00  0.00     0.007 C 
HETATM   17  C   UNL     1     -19.118 -12.753  -5.335  1.00  0.00     0.011 C 
HETATM   18  C   UNL     1     -19.297 -12.197  -3.884  1.00  0.00    -0.032 C 
HETATM   19  C   UNL     1     -20.535 -11.143  -3.686  1.00  0.00    -0.032 C 
HETATM   20  C   UNL     1     -21.907 -11.869  -3.404  1.00  0.00     0.011 C 
HETATM   21  C   UNL     1     -22.936 -11.187  -2.514  1.00  0.00     0.013 C 
HETATM   22  C   UNL     1     -20.715 -10.226  -4.929  1.00  0.00     0.016 C 
HETATM   23  C   UNL     1     -19.675 -13.502  -3.103  1.00  0.00     0.016 C 
HETATM   24  C   UNL     1     -15.351 -14.449  -6.788  1.00  0.00     0.018 C 
HETATM   25  C   UNL     1     -15.051 -15.119  -4.447  1.00  0.00     0.018 C 
HETATM   26  C   UNL     1     -16.685 -13.304  -2.188  1.00  0.00     0.016 C 
ENDROOT
BRANCH   1  27
HETATM   27  C   UNL     1     -22.008  -7.654  -0.231  1.00  0.00    -0.089 C 
HETATM   28  C   UNL     1     -22.325  -6.683  -1.328  1.00  0.00     0.043 C 
HETATM   29  C   UNL     1     -22.673  -7.491   0.937  1.00  0.00     0.014 C 
ENDBRANCH   1  27
BRANCH   4  30
HETATM   30  C   UNL     1     -23.628 -10.107  -0.380  1.00  0.00     0.173 C 
BRANCH  30  31
HETATM   31  O   UNL     1     -24.203 -11.213   0.351  1.00  0.00    -0.400 OA
HETATM   32  H   UNL     1     -23.783 -12.038   0.065  1.00  0.00     0.209 HD
ENDBRANCH  30  31
ENDBRANCH   4  30
BRANCH  13  33
HETATM   33  O   UNL     1     -13.032 -13.054  -5.944  1.00  0.00    -0.395 OA
HETATM   34  H   UNL     1     -12.474 -12.255  -5.853  1.00  0.00     0.210 HD
ENDBRANCH  13  33
TORSDOF 4
BEGIN_RES ARG D 557
REMARK  4 active torsions:
REMARK  status: ('A' for Active; 'I' for Inactive)
REMARK    1  A    between atoms: CA   and  CB  
REMARK    2  A    between atoms: CB   and  CG  
REMARK    3  A    between atoms: CG   and  CD  
REMARK    4  A    between atoms: CD   and  NE  
REMARK       I    between atoms: NE   and  CZ  
REMARK       I    between atoms: CZ   and  NH1 
REMARK       I    between atoms: CZ   and  NH2 
ROOT
ATOM      1  CA  ARG D 557     -26.217   2.705 -17.014  1.00 35.49     0.159 C 
ENDROOT
BRANCH   1   2
ATOM      2  CB  ARG D 557     -26.789   1.319 -17.183  1.00 35.49     0.034 C 
BRANCH   2   3
ATOM      3  CG  ARG D 557     -25.838   0.202 -17.136  1.00 35.49     0.027 C 
BRANCH   3   4
ATOM      4  CD  ARG D 557     -24.762   0.418 -16.142  1.00 35.49     0.116 C 
BRANCH   4   5
ATOM      5  NE  ARG D 557     -24.909  -0.432 -14.990  1.00 35.49    -0.212 N 
ATOM      6  CZ  ARG D 557     -24.117  -1.430 -14.665  1.00 35.49     0.666 C 
ATOM      7  NH1 ARG D 557     -23.075  -1.775 -15.399  1.00 35.49    -0.235 N 
ATOM      8  NH2 ARG D 557     -24.389  -2.081 -13.572  1.00 35.49    -0.235 N 
ATOM      9  HH  ARG D 557     -22.876  -1.360 -16.121  1.00 35.49     0.174 HD
ATOM     10  HH  ARG D 557     -22.593  -2.433 -15.136  1.00 35.49     0.174 HD
ATOM     11  HH  ARG D 557     -25.064  -1.830 -13.114  1.00 35.49     0.174 HD
ATOM     12  HH  ARG D 557     -23.899  -2.728 -13.328  1.00 35.49     0.174 HD
ATOM     13  HE  ARG D 557     -25.597  -0.326 -14.501  1.00 35.49     0.178 HD
ENDBRANCH   4   5
ENDBRANCH   3   4
ENDBRANCH   2   3
ENDBRANCH   1   2
END_RES ARG D 557
BEGIN_RES GLU D 570
REMARK  3 active torsions:
REMARK  status: ('A' for Active; 'I' for Inactive)
REMARK    5  A    between atoms: CA   and  CB  
REMARK    6  A    between atoms: CB   and  CG  
REMARK    7  A    between atoms: CG   and  CD  
ROOT
ATOM     14  CA  GLU D 570     -18.033  -6.348 -13.375  1.00 32.92     0.160 C 
ENDROOT
BRANCH  14  15
ATOM     15  CB  GLU D 570     -19.500  -6.345 -13.794  1.00 32.92     0.043 C 
BRANCH  15  16
ATOM     16  CG  GLU D 570     -20.448  -5.558 -12.963  1.00 32.92     0.100 C 
BRANCH  16  17
ATOM     17  CD  GLU D 570     -21.721  -5.206 -13.696  1.00 32.92     0.185 C 
ATOM     18  OE1 GLU D 570     -22.302  -4.138 -13.422  1.00 32.92    -0.647 OA
ATOM     19  OE2 GLU D 570     -22.153  -6.016 -14.540  1.00 32.92    -0.647 OA
ENDBRANCH  16  17
ENDBRANCH  15  16
ENDBRANCH  14  15
END_RES GLU D 570
ENDMDL
MODEL 2
REMARK VINA RESULT:      -7.8      1.206      7.113
REMARK  4 active torsions:
REMARK  status: ('A' for Active; 'I' for Inactive)
REMARK    1  A    between atoms: C_2  and  C_4 
REMARK    2  A    between atoms: C_7  and  C_31 
REMARK    3  A    between atoms: C_16  and  O_29 
REMARK    4  A    between atoms: C_31  and  O_32 
ROOT
HETATM    1  C   UNL     1     -17.036 -14.646  -5.217  1.00  0.00     0.018 C 
HETATM    2  C   UNL     1     -16.206 -14.569  -3.879  1.00  0.00     0.010 C 
HETATM    3  C   UNL     1     -15.470 -13.185  -3.814  1.00  0.00     0.012 C 
HETATM    4  C   UNL     1     -15.661 -12.668  -5.260  1.00  0.00    -0.014 C 
HETATM    5  C   UNL     1     -17.134 -13.143  -5.504  1.00  0.00     0.009 C 
HETATM    6  C   UNL     1     -18.088 -12.383  -4.536  1.00  0.00    -0.000 C 
HETATM    7  C   UNL     1     -19.456 -13.009  -4.370  1.00  0.00     0.006 C 
HETATM    8  C   UNL     1     -19.834 -12.730  -2.933  1.00  0.00     0.006 C 
HETATM    9  C   UNL     1     -19.939 -11.212  -2.727  1.00  0.00     0.003 C 
HETATM   10  C   UNL     1     -20.458 -10.858  -1.280  1.00  0.00    -0.035 C 
HETATM   11  C   UNL     1     -21.689 -11.779  -0.891  1.00  0.00     0.012 C 
HETATM   12  C   UNL     1     -22.664 -11.202   0.131  1.00  0.00     0.033 C 
HETATM   13  C   UNL     1     -23.092  -9.804  -0.311  1.00  0.00     0.126 C 
HETATM   14  C   UNL     1     -21.867  -8.822  -0.278  1.00  0.00    -0.017 C 
HETATM   15  C   UNL     1     -20.959  -9.350  -1.433  1.00  0.00     0.004 C 
HETATM   16  C   UNL     1     -19.972  -8.343  -2.055  1.00  0.00     0.007 C 
HETATM   17  C   UNL     1     -19.466  -8.845  -3.435  1.00  0.00     0.011 C 
HETATM   18  C   UNL     1     -18.769 -10.241  -3.317  1.00  0.00    -0.032 C 
HETATM   19  C   UNL     1     -18.147 -10.833  -4.711  1.00  0.00    -0.032 C 
HETATM   20  C   UNL     1     -16.686 -10.308  -4.993  1.00  0.00     0.011 C 
HETATM   21  C   UNL     1     -15.704 -11.209  -5.727  1.00  0.00     0.013 C 
HETATM   22  C   UNL     1     -19.037 -10.479  -5.936  1.00  0.00     0.016 C 
HETATM   23  C   UNL     1     -17.557  -9.896  -2.383  1.00  0.00     0.016 C 
HETATM   24  C   UNL     1     -22.403  -7.396  -0.529  1.00  0.00     0.018 C 
HETATM   25  C   UNL     1     -21.108  -8.742   1.062  1.00  0.00     0.018 C 
HETATM   26  C   UNL     1     -19.378 -11.271  -0.236  1.00  0.00     0.016 C 
ENDROOT
BRANCH   1  27
HETATM   27  C   UNL     1     -16.548 -15.360  -6.509  1.00  0.00    -0.089 C 
HETATM   28  C   UNL     1     -17.146 -14.972  -7.828  1.00  0.00     0.043 C 
HETATM   29  C   UNL     1     -15.600 -16.327  -6.531  1.00  0.00     0.014 C 
ENDBRANCH   1  27
BRANCH   4  30
HETATM   30  C   UNL     1     -14.461 -13.349  -5.997  1.00  0.00     0.173 C 
BRANCH  30  31
HETATM   31  O   UNL     1     -13.762 -12.409  -6.844  1.00  0.00    -0.400 OA
HETATM   32  H   UNL     1     -12.812 -12.599  -6.816  1.00  0.00     0.209 HD
ENDBRANCH  30  31
ENDBRANCH   4  30
BRANCH  13  33
HETATM   33  O   UNL     1     -24.227  -9.366   0.381  1.00  0.00    -0.395 OA
HETATM   34  H   UNL     1     -23.934  -8.612   0.931  1.00  0.00     0.210 HD
ENDBRANCH  13  33
TORSDOF 4
BEGIN_RES ARG D 557
REMARK  4 active torsions:
REMARK  status: ('A' for Active; 'I' for Inactive)
REMARK    1  A    between atoms: CA   and  CB  
REMARK    2  A    between atoms: CB   and  CG  
REMARK    3  A    between atoms: CG   and  CD  
REMARK    4  A    between atoms: CD   and  NE  
REMARK       I    between atoms: NE   and  CZ  
REMARK       I    between atoms: CZ   and  NH1 
REMARK       I    between atoms: CZ   and  NH2 
ROOT
ATOM      1  CA  ARG D 557     -26.217   2.705 -17.014  1.00 35.49     0.159 C 
ENDROOT
BRANCH   1   2
ATOM      2  CB  ARG D 557     -26.789   1.319 -17.183  1.00 35.49     0.034 C 
BRANCH   2   3
ATOM      3  CG  ARG D 557     -25.837   0.202 -17.143  1.00 35.49     0.027 C 
BRANCH   3   4
ATOM      4  CD  ARG D 557     -24.752   0.420 -16.159  1.00 35.49     0.116 C 
BRANCH   4   5
ATOM      5  NE  ARG D 557     -24.885  -0.433 -15.008  1.00 35.49    -0.212 N 
ATOM      6  CZ  ARG D 557     -24.062  -1.399 -14.668  1.00 35.49     0.666 C 
ATOM      7  NH1 ARG D 557     -22.997  -1.707 -15.384  1.00 35.49    -0.235 N 
ATOM      8  NH2 ARG D 557     -24.327  -2.058 -13.577  1.00 35.49    -0.235 N 
ATOM      9  HH  ARG D 557     -22.802  -1.286 -16.104  1.00 35.49     0.174 HD
ATOM     10  HH  ARG D 557     -22.494  -2.346 -15.112  1.00 35.49     0.174 HD
ATOM     11  HH  ARG D 557     -25.018  -1.832 -13.131  1.00 35.49     0.174 HD
ATOM     12  HH  ARG D 557     -23.817  -2.685 -13.324  1.00 35.49     0.174 HD
ATOM     13  HE  ARG D 557     -25.584  -0.351 -14.529  1.00 35.49     0.178 HD
ENDBRANCH   4   5
ENDBRANCH   3   4
ENDBRANCH   2   3
ENDBRANCH   1   2
END_RES ARG D 557
BEGIN_RES GLU D 570
REMARK  3 active torsions:
REMARK  status: ('A' for Active; 'I' for Inactive)
REMARK    5  A    between atoms: CA   and  CB  
REMARK    6  A    between atoms: CB   and  CG  
REMARK    7  A    between atoms: CG   and  CD  
ROOT
ATOM     14  CA  GLU D 570     -18.033  -6.348 -13.375  1.00 32.92     0.160 C 
ENDROOT
BRANCH  14  15
ATOM     15  CB  GLU D 570     -19.500  -6.345 -13.794  1.00 32.92     0.043 C 
BRANCH  15  16
ATOM     16  CG  GLU D 570     -20.443  -5.535 -12.980  1.00 32.92     0.100 C 
BRANCH  16  17
ATOM     17  CD  GLU D 570     -21.733  -5.228 -13.704  1.00 32.92     0.185 C 
ATOM     18  OE1 GLU D 570     -22.277  -4.121 -13.529  1.00 32.92    -0.647 OA
ATOM     19  OE2 GLU D 570     -22.214  -6.111 -14.441  1.00 32.92    -0.647 OA
ENDBRANCH  16  17
ENDBRANCH  15  16
ENDBRANCH  14  15
END_RES GLU D 570
ENDMDL
MODEL 3
REMARK VINA RESULT:      -7.5      1.407      1.629
REMARK  4 active torsions:
REMARK  status: ('A' for Active; 'I' for Inactive)
REMARK    1  A    between atoms: C_2  and  C_4 
REMARK    2  A    between atoms: C_7  and  C_31 
REMARK    3  A    between atoms: C_16  and  O_29 
REMARK    4  A    between atoms: C_31  and  O_32 
ROOT
HETATM    1  C   UNL     1     -20.995  -8.889  -0.431  1.00  0.00     0.018 C 
HETATM    2  C   UNL     1     -20.777 -10.141   0.503  1.00  0.00     0.010 C 
HETATM    3  C   UNL     1     -21.555 -11.365  -0.096  1.00  0.00     0.012 C 
HETATM    4  C   UNL     1     -22.435 -10.675  -1.166  1.00  0.00    -0.014 C 
HETATM    5  C   UNL     1     -21.399  -9.633  -1.709  1.00  0.00     0.009 C 
HETATM    6  C   UNL     1     -20.220 -10.386  -2.392  1.00  0.00    -0.000 C 
HETATM    7  C   UNL     1     -18.971  -9.555  -2.601  1.00  0.00     0.006 C 
HETATM    8  C   UNL     1     -17.829 -10.531  -2.429  1.00  0.00     0.006 C 
HETATM    9  C   UNL     1     -17.916 -11.605  -3.522  1.00  0.00     0.003 C 
HETATM   10  C   UNL     1     -16.677 -12.580  -3.477  1.00  0.00    -0.035 C 
HETATM   11  C   UNL     1     -15.331 -11.759  -3.304  1.00  0.00     0.012 C 
HETATM   12  C   UNL     1     -14.065 -12.421  -3.842  1.00  0.00     0.033 C 
HETATM   13  C   UNL     1     -14.301 -12.866  -5.284  1.00  0.00     0.126 C 
HETATM   14  C   UNL     1     -15.385 -14.001  -5.335  1.00  0.00    -0.017 C 
HETATM   15  C   UNL     1     -16.694 -13.258  -4.923  1.00  0.00     0.004 C 
HETATM   16  C   UNL     1     -18.024 -13.886  -5.386  1.00  0.00     0.007 C 
HETATM   17  C   UNL     1     -19.182 -12.854  -5.300  1.00  0.00     0.011 C 
HETATM   18  C   UNL     1     -19.354 -12.303  -3.847  1.00  0.00    -0.032 C 
HETATM   19  C   UNL     1     -20.590 -11.249  -3.639  1.00  0.00    -0.032 C 
HETATM   20  C   UNL     1     -21.961 -11.975  -3.353  1.00  0.00     0.011 C 
HETATM   21  C   UNL     1     -22.986 -11.295  -2.455  1.00  0.00     0.013 C 
HETATM   22  C   UNL     1     -20.775 -10.327  -4.877  1.00  0.00     0.016 C 
HETATM   23  C   UNL     1     -19.730 -13.611  -3.069  1.00  0.00     0.016 C 
HETATM   24  C   UNL     1     -15.424 -14.548  -6.777  1.00  0.00     0.018 C 
HETATM   25  C   UNL     1     -15.114 -15.228  -4.441  1.00  0.00     0.018 C 
HETATM   26  C   UNL     1     -16.736 -13.420  -2.167  1.00  0.00     0.016 C 
ENDROOT
BRANCH   1  27
HETATM   27  C   UNL     1     -22.043  -7.772  -0.163  1.00  0.00    -0.089 C 
HETATM   28  C   UNL     1     -22.341  -6.777  -1.245  1.00  0.00     0.043 C 
HETATM   29  C   UNL     1     -22.722  -7.628   0.999  1.00  0.00     0.014 C 
ENDBRANCH   1  27
BRANCH   4  30
HETATM   30  C   UNL     1     -23.666 -10.222  -0.315  1.00  0.00     0.173 C 
BRANCH  30  31
HETATM   31  O   UNL     1     -24.195 -11.315   0.470  1.00  0.00    -0.400 OA
HETATM   32  H   UNL     1     -24.719 -11.895  -0.103  1.00  0.00     0.209 HD
ENDBRANCH  30  31
ENDBRANCH   4  30
BRANCH  13  33
HETATM   33  O   UNL     1     -13.100 -13.159  -5.939  1.00  0.00    -0.395 OA
HETATM   34  H   UNL     1     -12.938 -14.113  -5.793  1.00  0.00     0.210 HD
ENDBRANCH  13  33
TORSDOF 4
BEGIN_RES ARG D 557
REMARK  4 active torsions:
REMARK  status: ('A' for Active; 'I' for Inactive)
REMARK    1  A    between atoms: CA   and  CB  
REMARK    2  A    between atoms: CB   and  CG  
REMARK    3  A    between atoms: CG   and  CD  
REMARK    4  A    between atoms: CD   and  NE  
REMARK       I    between atoms: NE   and  CZ  
REMARK       I    between atoms: CZ   and  NH1 
REMARK       I    between atoms: CZ   and  NH2 
ROOT
ATOM      1  CA  ARG D 557     -26.217   2.705 -17.014  1.00 35.49     0.159 C 
ENDROOT
BRANCH   1   2
ATOM      2  CB  ARG D 557     -26.789   1.319 -17.183  1.00 35.49     0.034 C 
BRANCH   2   3
ATOM      3  CG  ARG D 557     -28.233   1.169 -16.964  1.00 35.49     0.027 C 
BRANCH   3   4
ATOM      4  CD  ARG D 557     -28.638  -0.249 -16.827  1.00 35.49     0.116 C 
BRANCH   4   5
ATOM      5  NE  ARG D 557     -27.655  -1.029 -16.123  1.00 35.49    -0.212 N 
ATOM      6  CZ  ARG D 557     -27.517  -2.334 -16.192  1.00 35.49     0.666 C 
ATOM      7  NH1 ARG D 557     -28.306  -3.093 -16.930  1.00 35.49    -0.235 N 
ATOM      8  NH2 ARG D 557     -26.555  -2.873 -15.501  1.00 35.49    -0.235 N 
ATOM      9  HH  ARG D 557     -28.944  -2.759 -17.395  1.00 35.49     0.174 HD
ATOM     10  HH  ARG D 557     -28.166  -3.938 -16.938  1.00 35.49     0.174 HD
ATOM     11  HH  ARG D 557     -26.056  -2.358 -15.039  1.00 35.49     0.174 HD
ATOM     12  HH  ARG D 557     -26.432  -3.712 -15.523  1.00 35.49     0.174 HD
ATOM     13  HE  ARG D 557     -27.150  -0.629 -15.568  1.00 35.49     0.178 HD
ENDBRANCH   4   5
ENDBRANCH   3   4
ENDBRANCH   2   3
ENDBRANCH   1   2
END_RES ARG D 557
BEGIN_RES GLU D 570
REMARK  3 active torsions:
REMARK  status: ('A' for Active; 'I' for Inactive)
REMARK    5  A    between atoms: CA   and  CB  
REMARK    6  A    between atoms: CB   and  CG  
REMARK    7  A    between atoms: CG   and  CD  
ROOT
ATOM     14  CA  GLU D 570     -18.033  -6.348 -13.375  1.00 32.92     0.160 C 
ENDROOT
BRANCH  14  15
ATOM     15  CB  GLU D 570     -19.500  -6.345 -13.794  1.00 32.92     0.043 C 
BRANCH  15  16
ATOM     16  CG  GLU D 570     -19.797  -6.266 -15.248  1.00 32.92     0.100 C 
BRANCH  16  17
ATOM     17  CD  GLU D 570     -21.064  -5.500 -15.550  1.00 32.92     0.185 C 
ATOM     18  OE1 GLU D 570     -21.307  -5.174 -16.728  1.00 32.92    -0.647 OA
ATOM     19  OE2 GLU D 570     -21.812  -5.209 -14.597  1.00 32.92    -0.647 OA
ENDBRANCH  16  17
ENDBRANCH  15  16
ENDBRANCH  14  15
END_RES GLU D 570
ENDMDL
MODEL 4
REMARK VINA RESULT:      -7.3      2.223      7.406
REMARK  4 active torsions:
REMARK  status: ('A' for Active; 'I' for Inactive)
REMARK    1  A    between atoms: C_2  and  C_4 
REMARK    2  A    between atoms: C_7  and  C_31 
REMARK    3  A    between atoms: C_16  and  O_29 
REMARK    4  A    between atoms: C_31  and  O_32 
ROOT
HETATM    1  C   UNL     1     -17.147 -14.437  -5.403  1.00  0.00     0.018 C 
HETATM    2  C   UNL     1     -16.284 -14.370  -4.085  1.00  0.00     0.010 C 
HETATM    3  C   UNL     1     -15.567 -12.976  -4.017  1.00  0.00     0.012 C 
HETATM    4  C   UNL     1     -15.802 -12.439  -5.450  1.00  0.00    -0.014 C 
HETATM    5  C   UNL     1     -17.273 -12.932  -5.663  1.00  0.00     0.009 C 
HETATM    6  C   UNL     1     -18.213 -12.202  -4.660  1.00  0.00    -0.000 C 
HETATM    7  C   UNL     1     -19.568 -12.850  -4.469  1.00  0.00     0.006 C 
HETATM    8  C   UNL     1     -19.912 -12.599  -3.018  1.00  0.00     0.006 C 
HETATM    9  C   UNL     1     -20.033 -11.087  -2.785  1.00  0.00     0.003 C 
HETATM   10  C   UNL     1     -20.520 -10.763  -1.320  1.00  0.00    -0.035 C 
HETATM   11  C   UNL     1     -21.727 -11.708  -0.914  1.00  0.00     0.012 C 
HETATM   12  C   UNL     1     -22.685 -11.162   0.141  1.00  0.00     0.033 C 
HETATM   13  C   UNL     1     -23.143  -9.763  -0.267  1.00  0.00     0.126 C 
HETATM   14  C   UNL     1     -21.932  -8.763  -0.250  1.00  0.00    -0.017 C 
HETATM   15  C   UNL     1     -21.047  -9.260  -1.435  1.00  0.00     0.004 C 
HETATM   16  C   UNL     1     -20.091  -8.229  -2.066  1.00  0.00     0.007 C 
HETATM   17  C   UNL     1     -19.613  -8.702  -3.466  1.00  0.00     0.011 C 
HETATM   18  C   UNL     1     -18.893 -10.089  -3.389  1.00  0.00    -0.032 C 
HETATM   19  C   UNL     1     -18.299 -10.650  -4.808  1.00  0.00    -0.032 C 
HETATM   20  C   UNL     1     -16.854 -10.099  -5.118  1.00  0.00     0.011 C 
HETATM   21  C   UNL     1     -15.877 -10.974  -5.892  1.00  0.00     0.013 C 
HETATM   22  C   UNL     1     -19.225 -10.290  -6.003  1.00  0.00     0.016 C 
HETATM   23  C   UNL     1     -17.663  -9.741  -2.481  1.00  0.00     0.016 C 
HETATM   24  C   UNL     1     -22.494  -7.342  -0.463  1.00  0.00     0.018 C 
HETATM   25  C   UNL     1     -21.140  -8.694   1.072  1.00  0.00     0.018 C 
HETATM   26  C   UNL     1     -19.409 -11.177  -0.310  1.00  0.00     0.016 C 
ENDROOT
BRANCH   1  27
HETATM   27  C   UNL     1     -16.682 -15.124  -6.718  1.00  0.00    -0.089 C 
HETATM   28  C   UNL     1     -17.307 -14.712  -8.017  1.00  0.00     0.043 C 
HETATM   29  C   UNL     1     -15.731 -16.086  -6.779  1.00  0.00     0.014 C 
ENDBRANCH   1  27
BRANCH   4  30
HETATM   30  C   UNL     1     -14.611 -13.091  -6.228  1.00  0.00     0.173 C 
BRANCH  30  31
HETATM   31  O   UNL     1     -13.344 -12.535  -5.811  1.00  0.00    -0.400 OA
HETATM   32  H   UNL     1     -12.695 -13.250  -5.722  1.00  0.00     0.209 HD
ENDBRANCH  30  31
ENDBRANCH   4  30
BRANCH  13  33
HETATM   33  O   UNL     1     -24.266  -9.353   0.461  1.00  0.00    -0.395 OA
HETATM   34  H   UNL     1     -25.043  -9.587  -0.086  1.00  0.00     0.210 HD
ENDBRANCH  13  33
TORSDOF 4
BEGIN_RES ARG D 557
REMARK  4 active torsions:
REMARK  status: ('A' for Active; 'I' for Inactive)
REMARK    1  A    between atoms: CA   and  CB  
REMARK    2  A    between atoms: CB   and  CG  
REMARK    3  A    between atoms: CG   and  CD  
REMARK    4  A    between atoms: CD   and  NE  
REMARK       I    between atoms: NE   and  CZ  
REMARK       I    between atoms: CZ   and  NH1 
REMARK       I    between atoms: CZ   and  NH2 
ROOT
ATOM      1  CA  ARG D 557     -26.217   2.705 -17.014  1.00 35.49     0.159 C 
ENDROOT
BRANCH   1   2
ATOM      2  CB  ARG D 557     -26.789   1.319 -17.183  1.00 35.49     0.034 C 
BRANCH   2   3
ATOM      3  CG  ARG D 557     -28.153   1.102 -16.687  1.00 35.49     0.027 C 
BRANCH   3   4
ATOM      4  CD  ARG D 557     -28.789  -0.094 -17.286  1.00 35.49     0.116 C 
BRANCH   4   5
ATOM      5  NE  ARG D 557     -28.171  -1.315 -16.843  1.00 35.49    -0.212 N 
ATOM      6  CZ  ARG D 557     -28.646  -2.527 -17.027  1.00 35.49     0.666 C 
ATOM      7  NH1 ARG D 557     -29.788  -2.754 -17.648  1.00 35.49    -0.235 N 
ATOM      8  NH2 ARG D 557     -27.941  -3.523 -16.575  1.00 35.49    -0.235 N 
ATOM      9  HH  ARG D 557     -30.268  -2.114 -17.955  1.00 35.49     0.174 HD
ATOM     10  HH  ARG D 557     -30.047  -3.566 -17.741  1.00 35.49     0.174 HD
ATOM     11  HH  ARG D 557     -27.203  -3.347 -16.184  1.00 35.49     0.174 HD
ATOM     12  HH  ARG D 557     -28.213  -4.320 -16.678  1.00 35.49     0.174 HD
ATOM     13  HE  ARG D 557     -27.467  -1.258 -16.369  1.00 35.49     0.178 HD
ENDBRANCH   4   5
ENDBRANCH   3   4
ENDBRANCH   2   3
ENDBRANCH   1   2
END_RES ARG D 557
BEGIN_RES GLU D 570
REMARK  3 active torsions:
REMARK  status: ('A' for Active; 'I' for Inactive)
REMARK    5  A    between atoms: CA   and  CB  
REMARK    6  A    between atoms: CB   and  CG  
REMARK    7  A    between atoms: CG   and  CD  
ROOT
ATOM     14  CA  GLU D 570     -18.033  -6.348 -13.375  1.00 32.92     0.160 C 
ENDROOT
BRANCH  14  15
ATOM     15  CB  GLU D 570     -19.500  -6.345 -13.794  1.00 32.92     0.043 C 
BRANCH  15  16
ATOM     16  CG  GLU D 570     -19.807  -6.017 -15.210  1.00 32.92     0.100 C 
BRANCH  16  17
ATOM     17  CD  GLU D 570     -20.666  -7.061 -15.885  1.00 32.92     0.185 C 
ATOM     18  OE1 GLU D 570     -20.805  -8.173 -15.340  1.00 32.92    -0.647 OA
ATOM     19  OE2 GLU D 570     -21.191  -6.769 -16.977  1.00 32.92    -0.647 OA
ENDBRANCH  16  17
ENDBRANCH  15  16
ENDBRANCH  14  15
END_RES GLU D 570
ENDMDL
MODEL 5
REMARK VINA RESULT:      -7.0      1.414      1.736
REMARK  4 active torsions:
REMARK  status: ('A' for Active; 'I' for Inactive)
REMARK    1  A    between atoms: C_2  and  C_4 
REMARK    2  A    between atoms: C_7  and  C_31 
REMARK    3  A    between atoms: C_16  and  O_29 
REMARK    4  A    between atoms: C_31  and  O_32 
ROOT
HETATM    1  C   UNL     1     -20.406  -7.879  -2.931  1.00  0.00     0.018 C 
HETATM    2  C   UNL     1     -19.829  -8.376  -1.551  1.00  0.00     0.010 C 
HETATM    3  C   UNL     1     -20.418  -9.796  -1.233  1.00  0.00     0.012 C 
HETATM    4  C   UNL     1     -21.544  -9.903  -2.290  1.00  0.00    -0.014 C 
HETATM    5  C   UNL     1     -20.811  -9.241  -3.506  1.00  0.00     0.009 C 
HETATM    6  C   UNL     1     -19.602 -10.127  -3.924  1.00  0.00    -0.000 C 
HETATM    7  C   UNL     1     -18.578  -9.435  -4.799  1.00  0.00     0.006 C 
HETATM    8  C   UNL     1     -17.253 -10.036  -4.388  1.00  0.00     0.006 C 
HETATM    9  C   UNL     1     -17.261 -11.537  -4.703  1.00  0.00     0.003 C 
HETATM   10  C   UNL     1     -15.858 -12.199  -4.418  1.00  0.00    -0.035 C 
HETATM   11  C   UNL     1     -14.691 -11.293  -4.995  1.00  0.00     0.012 C 
HETATM   12  C   UNL     1     -13.396 -12.014  -5.359  1.00  0.00     0.033 C 
HETATM   13  C   UNL     1     -13.718 -13.204  -6.261  1.00  0.00     0.126 C 
HETATM   14  C   UNL     1     -14.554 -14.277  -5.475  1.00  0.00    -0.017 C 
HETATM   15  C   UNL     1     -15.922 -13.561  -5.248  1.00  0.00     0.004 C 
HETATM   16  C   UNL     1     -17.148 -14.466  -5.015  1.00  0.00     0.007 C 
HETATM   17  C   UNL     1     -18.468 -13.678  -5.240  1.00  0.00     0.011 C 
HETATM   18  C   UNL     1     -18.562 -12.434  -4.297  1.00  0.00    -0.032 C 
HETATM   19  C   UNL     1     -19.947 -11.568  -4.417  1.00  0.00    -0.032 C 
HETATM   20  C   UNL     1     -21.100 -12.143  -3.507  1.00  0.00     0.011 C 
HETATM   21  C   UNL     1     -22.118 -11.183  -2.907  1.00  0.00     0.013 C 
HETATM   22  C   UNL     1     -20.464 -11.509  -5.882  1.00  0.00     0.016 C 
HETATM   23  C   UNL     1     -18.571 -13.122  -2.888  1.00  0.00     0.016 C 
HETATM   24  C   UNL     1     -14.664 -15.532  -6.366  1.00  0.00     0.018 C 
HETATM   25  C   UNL     1     -13.935 -14.770  -4.151  1.00  0.00     0.018 C 
HETATM   26  C   UNL     1     -15.585 -12.173  -2.885  1.00  0.00     0.016 C 
ENDROOT
BRANCH   1  27
HETATM   27  C   UNL     1     -21.613  -6.909  -3.076  1.00  0.00    -0.089 C 
HETATM   28  C   UNL     1     -22.054  -6.111  -1.885  1.00  0.00     0.043 C 
HETATM   29  C   UNL     1     -22.308  -6.725  -4.223  1.00  0.00     0.014 C 
ENDBRANCH   1  27
BRANCH   4  30
HETATM   30  C   UNL     1     -22.724  -9.177  -1.565  1.00  0.00     0.173 C 
BRANCH  30  31
HETATM   31  O   UNL     1     -22.886  -9.656  -0.211  1.00  0.00    -0.400 OA
HETATM   32  H   UNL     1     -22.134  -9.361   0.324  1.00  0.00     0.209 HD
ENDBRANCH  30  31
ENDBRANCH   4  30
BRANCH  13  33
HETATM   33  O   UNL     1     -12.574 -13.693  -6.903  1.00  0.00    -0.395 OA
HETATM   34  H   UNL     1     -12.083 -14.203  -6.228  1.00  0.00     0.210 HD
ENDBRANCH  13  33
TORSDOF 4
BEGIN_RES ARG D 557
REMARK  4 active torsions:
REMARK  status: ('A' for Active; 'I' for Inactive)
REMARK    1  A    between atoms: CA   and  CB  
REMARK    2  A    between atoms: CB   and  CG  
REMARK    3  A    between atoms: CG   and  CD  
REMARK    4  A    between atoms: CD   and  NE  
REMARK       I    between atoms: NE   and  CZ  
REMARK       I    between atoms: CZ   and  NH1 
REMARK       I    between atoms: CZ   and  NH2 
ROOT
ATOM      1  CA  ARG D 557     -26.217   2.705 -17.014  1.00 35.49     0.159 C 
ENDROOT
BRANCH   1   2
ATOM      2  CB  ARG D 557     -26.789   1.319 -17.183  1.00 35.49     0.034 C 
BRANCH   2   3
ATOM      3  CG  ARG D 557     -25.837   0.202 -17.144  1.00 35.49     0.027 C 
BRANCH   3   4
ATOM      4  CD  ARG D 557     -24.739   0.430 -16.177  1.00 35.49     0.116 C 
BRANCH   4   5
ATOM      5  NE  ARG D 557     -24.843  -0.430 -15.027  1.00 35.49    -0.212 N 
ATOM      6  CZ  ARG D 557     -24.001  -1.386 -14.705  1.00 35.49     0.666 C 
ATOM      7  NH1 ARG D 557     -22.943  -1.677 -15.439  1.00 35.49    -0.235 N 
ATOM      8  NH2 ARG D 557     -24.239  -2.053 -13.613  1.00 35.49    -0.235 N 
ATOM      9  HH  ARG D 557     -22.765  -1.249 -16.160  1.00 35.49     0.174 HD
ATOM     10  HH  ARG D 557     -22.428  -2.309 -15.178  1.00 35.49     0.174 HD
ATOM     11  HH  ARG D 557     -24.926  -1.839 -13.155  1.00 35.49     0.174 HD
ATOM     12  HH  ARG D 557     -23.717  -2.675 -13.371  1.00 35.49     0.174 HD
ATOM     13  HE  ARG D 557     -25.534  -0.360 -14.537  1.00 35.49     0.178 HD
ENDBRANCH   4   5
ENDBRANCH   3   4
ENDBRANCH   2   3
ENDBRANCH   1   2
END_RES ARG D 557
BEGIN_RES GLU D 570
REMARK  3 active torsions:
REMARK  status: ('A' for Active; 'I' for Inactive)
REMARK    5  A    between atoms: CA   and  CB  
REMARK    6  A    between atoms: CB   and  CG  
REMARK    7  A    between atoms: CG   and  CD  
ROOT
ATOM     14  CA  GLU D 570     -18.033  -6.348 -13.375  1.00 32.92     0.160 C 
ENDROOT
BRANCH  14  15
ATOM     15  CB  GLU D 570     -19.500  -6.345 -13.794  1.00 32.92     0.043 C 
BRANCH  15  16
ATOM     16  CG  GLU D 570     -19.808  -5.995 -15.205  1.00 32.92     0.100 C 
BRANCH  16  17
ATOM     17  CD  GLU D 570     -21.274  -5.709 -15.434  1.00 32.92     0.185 C 
ATOM     18  OE1 GLU D 570     -21.624  -4.554 -15.745  1.00 32.92    -0.647 OA
ATOM     19  OE2 GLU D 570     -22.083  -6.646 -15.285  1.00 32.92    -0.647 OA
ENDBRANCH  16  17
ENDBRANCH  15  16
ENDBRANCH  14  15
END_RES GLU D 570
ENDMDL
MODEL 6
REMARK VINA RESULT:      -6.9      1.729      7.082
REMARK  4 active torsions:
REMARK  status: ('A' for Active; 'I' for Inactive)
REMARK    1  A    between atoms: C_2  and  C_4 
REMARK    2  A    between atoms: C_7  and  C_31 
REMARK    3  A    between atoms: C_16  and  O_29 
REMARK    4  A    between atoms: C_31  and  O_32 
ROOT
HETATM    1  C   UNL     1     -15.106 -13.144  -4.306  1.00  0.00     0.018 C 
HETATM    2  C   UNL     1     -16.353 -13.910  -4.894  1.00  0.00     0.010 C 
HETATM    3  C   UNL     1     -16.954 -14.836  -3.779  1.00  0.00     0.012 C 
HETATM    4  C   UNL     1     -15.836 -14.793  -2.709  1.00  0.00    -0.014 C 
HETATM    5  C   UNL     1     -15.444 -13.281  -2.817  1.00  0.00     0.009 C 
HETATM    6  C   UNL     1     -16.647 -12.402  -2.366  1.00  0.00    -0.000 C 
HETATM    7  C   UNL     1     -16.569 -10.950  -2.789  1.00  0.00     0.006 C 
HETATM    8  C   UNL     1     -18.003 -10.548  -3.047  1.00  0.00     0.006 C 
HETATM    9  C   UNL     1     -18.799 -10.656  -1.739  1.00  0.00     0.003 C 
HETATM   10  C   UNL     1     -20.274 -10.124  -1.912  1.00  0.00    -0.035 C 
HETATM   11  C   UNL     1     -20.280  -8.755  -2.711  1.00  0.00     0.012 C 
HETATM   12  C   UNL     1     -21.461  -7.825  -2.444  1.00  0.00     0.033 C 
HETATM   13  C   UNL     1     -21.619  -7.628  -0.938  1.00  0.00     0.126 C 
HETATM   14  C   UNL     1     -22.024  -8.980  -0.249  1.00  0.00    -0.017 C 
HETATM   15  C   UNL     1     -20.742  -9.856  -0.409  1.00  0.00     0.004 C 
HETATM   16  C   UNL     1     -20.560 -11.009   0.598  1.00  0.00     0.007 C 
HETATM   17  C   UNL     1     -19.087 -11.503   0.612  1.00  0.00     0.011 C 
HETATM   18  C   UNL     1     -18.629 -11.982  -0.805  1.00  0.00    -0.032 C 
HETATM   19  C   UNL     1     -17.106 -12.578  -0.885  1.00  0.00    -0.032 C 
HETATM   20  C   UNL     1     -17.037 -14.112  -0.521  1.00  0.00     0.011 C 
HETATM   21  C   UNL     1     -15.991 -14.987  -1.197  1.00  0.00     0.013 C 
HETATM   22  C   UNL     1     -16.137 -11.810   0.058  1.00  0.00     0.016 C 
HETATM   23  C   UNL     1     -19.606 -13.184  -1.049  1.00  0.00     0.016 C 
HETATM   24  C   UNL     1     -22.370  -8.671   1.223  1.00  0.00     0.018 C 
HETATM   25  C   UNL     1     -23.274  -9.677  -0.824  1.00  0.00     0.018 C 
HETATM   26  C   UNL     1     -21.052 -11.079  -2.865  1.00  0.00     0.016 C 
ENDROOT
BRANCH   1  27
HETATM   27  C   UNL     1     -13.630 -13.585  -4.516  1.00  0.00    -0.089 C 
HETATM   28  C   UNL     1     -13.248 -14.266  -5.796  1.00  0.00     0.043 C 
HETATM   29  C   UNL     1     -12.643 -13.393  -3.610  1.00  0.00     0.014 C 
ENDBRANCH   1  27
BRANCH   4  30
HETATM   30  C   UNL     1     -14.873 -15.916  -3.218  1.00  0.00     0.173 C 
BRANCH  30  31
HETATM   31  O   UNL     1     -14.043 -16.422  -2.148  1.00  0.00    -0.400 OA
HETATM   32  H   UNL     1     -13.900 -15.720  -1.495  1.00  0.00     0.209 HD
ENDBRANCH  30  31
ENDBRANCH   4  30
BRANCH  13  33
HETATM   33  O   UNL     1     -22.444  -6.537  -0.642  1.00  0.00    -0.395 OA
HETATM   34  H   UNL     1     -23.359  -6.834  -0.817  1.00  0.00     0.210 HD
ENDBRANCH  13  33
TORSDOF 4
BEGIN_RES ARG D 557
REMARK  4 active torsions:
REMARK  status: ('A' for Active; 'I' for Inactive)
REMARK    1  A    between atoms: CA   and  CB  
REMARK    2  A    between atoms: CB   and  CG  
REMARK    3  A    between atoms: CG   and  CD  
REMARK    4  A    between atoms: CD   and  NE  
REMARK       I    between atoms: NE   and  CZ  
REMARK       I    between atoms: CZ   and  NH1 
REMARK       I    between atoms: CZ   and  NH2 
ROOT
ATOM      1  CA  ARG D 557     -26.217   2.705 -17.014  1.00 35.49     0.159 C 
ENDROOT
BRANCH   1   2
ATOM      2  CB  ARG D 557     -26.789   1.319 -17.183  1.00 35.49     0.034 C 
BRANCH   2   3
ATOM      3  CG  ARG D 557     -25.833   0.205 -17.179  1.00 35.49     0.027 C 
BRANCH   3   4
ATOM      4  CD  ARG D 557     -24.758   0.388 -16.177  1.00 35.49     0.116 C 
BRANCH   4   5
ATOM      5  NE  ARG D 557     -24.932  -0.467 -15.033  1.00 35.49    -0.212 N 
ATOM      6  CZ  ARG D 557     -24.104  -1.412 -14.647  1.00 35.49     0.666 C 
ATOM      7  NH1 ARG D 557     -22.993  -1.693 -15.303  1.00 35.49    -0.235 N 
ATOM      8  NH2 ARG D 557     -24.410  -2.076 -13.570  1.00 35.49    -0.235 N 
ATOM      9  HH  ARG D 557     -22.771  -1.268 -16.013  1.00 35.49     0.174 HD
ATOM     10  HH  ARG D 557     -22.490  -2.319 -15.003  1.00 35.49     0.174 HD
ATOM     11  HH  ARG D 557     -25.130  -1.867 -13.163  1.00 35.49     0.174 HD
ATOM     12  HH  ARG D 557     -23.899  -2.691 -13.288  1.00 35.49     0.174 HD
ATOM     13  HE  ARG D 557     -25.657  -0.403 -14.593  1.00 35.49     0.178 HD
ENDBRANCH   4   5
ENDBRANCH   3   4
ENDBRANCH   2   3
ENDBRANCH   1   2
END_RES ARG D 557
BEGIN_RES GLU D 570
REMARK  3 active torsions:
REMARK  status: ('A' for Active; 'I' for Inactive)
REMARK    5  A    between atoms: CA   and  CB  
REMARK    6  A    between atoms: CB   and  CG  
REMARK    7  A    between atoms: CG   and  CD  
ROOT
ATOM     14  CA  GLU D 570     -18.033  -6.348 -13.375  1.00 32.92     0.160 C 
ENDROOT
BRANCH  14  15
ATOM     15  CB  GLU D 570     -19.500  -6.345 -13.794  1.00 32.92     0.043 C 
BRANCH  15  16
ATOM     16  CG  GLU D 570     -20.432  -5.486 -13.018  1.00 32.92     0.100 C 
BRANCH  16  17
ATOM     17  CD  GLU D 570     -21.772  -5.310 -13.694  1.00 32.92     0.185 C 
ATOM     18  OE1 GLU D 570     -22.323  -4.193 -13.662  1.00 32.92    -0.647 OA
ATOM     19  OE2 GLU D 570     -22.283  -6.304 -14.247  1.00 32.92    -0.647 OA
ENDBRANCH  16  17
ENDBRANCH  15  16
ENDBRANCH  14  15
END_RES GLU D 570
ENDMDL
MODEL 7
REMARK VINA RESULT:      -6.6      1.733      2.777
REMARK  4 active torsions:
REMARK  status: ('A' for Active; 'I' for Inactive)
REMARK    1  A    between atoms: C_2  and  C_4 
REMARK    2  A    between atoms: C_7  and  C_31 
REMARK    3  A    between atoms: C_16  and  O_29 
REMARK    4  A    between atoms: C_31  and  O_32 
ROOT
HETATM    1  C   UNL     1     -21.376 -10.129  -0.920  1.00  0.00     0.018 C 
HETATM    2  C   UNL     1     -22.288 -10.743  -2.051  1.00  0.00     0.010 C 
HETATM    3  C   UNL     1     -21.940 -10.053  -3.417  1.00  0.00     0.012 C 
HETATM    4  C   UNL     1     -21.073  -8.860  -2.945  1.00  0.00    -0.014 C 
HETATM    5  C   UNL     1     -20.260  -9.573  -1.812  1.00  0.00     0.009 C 
HETATM    6  C   UNL     1     -19.356 -10.674  -2.441  1.00  0.00    -0.000 C 
HETATM    7  C   UNL     1     -18.827 -11.699  -1.460  1.00  0.00     0.006 C 
HETATM    8  C   UNL     1     -18.773 -12.989  -2.247  1.00  0.00     0.006 C 
HETATM    9  C   UNL     1     -17.778 -12.831  -3.405  1.00  0.00     0.003 C 
HETATM   10  C   UNL     1     -17.578 -14.186  -4.187  1.00  0.00    -0.035 C 
HETATM   11  C   UNL     1     -17.398 -15.391  -3.172  1.00  0.00     0.012 C 
HETATM   12  C   UNL     1     -16.611 -16.593  -3.687  1.00  0.00     0.033 C 
HETATM   13  C   UNL     1     -15.284 -16.115  -4.273  1.00  0.00     0.126 C 
HETATM   14  C   UNL     1     -15.536 -15.238  -5.551  1.00  0.00    -0.017 C 
HETATM   15  C   UNL     1     -16.207 -13.954  -4.972  1.00  0.00     0.004 C 
HETATM   16  C   UNL     1     -16.092 -12.670  -5.817  1.00  0.00     0.007 C 
HETATM   17  C   UNL     1     -16.398 -11.412  -4.957  1.00  0.00     0.011 C 
HETATM   18  C   UNL     1     -17.826 -11.484  -4.323  1.00  0.00    -0.032 C 
HETATM   19  C   UNL     1     -18.268 -10.176  -3.443  1.00  0.00    -0.032 C 
HETATM   20  C   UNL     1     -18.896  -9.033  -4.331  1.00  0.00     0.011 C 
HETATM   21  C   UNL     1     -19.975  -8.140  -3.736  1.00  0.00     0.013 C 
HETATM   22  C   UNL     1     -17.067  -9.578  -2.656  1.00  0.00     0.016 C 
HETATM   23  C   UNL     1     -18.727 -11.500  -5.607  1.00  0.00     0.016 C 
HETATM   24  C   UNL     1     -14.167 -14.966  -6.210  1.00  0.00     0.018 C 
HETATM   25  C   UNL     1     -16.396 -15.890  -6.653  1.00  0.00     0.018 C 
HETATM   26  C   UNL     1     -18.902 -14.552  -4.921  1.00  0.00     0.016 C 
ENDROOT
BRANCH   1  27
HETATM   27  C   UNL     1     -21.829  -9.006   0.055  1.00  0.00    -0.089 C 
HETATM   28  C   UNL     1     -23.295  -8.769   0.263  1.00  0.00     0.043 C 
HETATM   29  C   UNL     1     -20.980  -8.210   0.746  1.00  0.00     0.014 C 
ENDBRANCH   1  27
BRANCH   4  30
HETATM   30  C   UNL     1     -22.166  -7.793  -2.606  1.00  0.00     0.173 C 
BRANCH  30  31
HETATM   31  O   UNL     1     -21.837  -6.504  -3.172  1.00  0.00    -0.400 OA
HETATM   32  H   UNL     1     -22.599  -5.912  -3.082  1.00  0.00     0.209 HD
ENDBRANCH  30  31
ENDBRANCH   4  30
BRANCH  13  33
HETATM   33  O   UNL     1     -14.382 -17.172  -4.443  1.00  0.00    -0.395 OA
HETATM   34  H   UNL     1     -14.225 -17.241  -5.406  1.00  0.00     0.210 HD
ENDBRANCH  13  33
TORSDOF 4
BEGIN_RES ARG D 557
REMARK  4 active torsions:
REMARK  status: ('A' for Active; 'I' for Inactive)
REMARK    1  A    between atoms: CA   and  CB  
REMARK    2  A    between atoms: CB   and  CG  
REMARK    3  A    between atoms: CG   and  CD  
REMARK    4  A    between atoms: CD   and  NE  
REMARK       I    between atoms: NE   and  CZ  
REMARK       I    between atoms: CZ   and  NH1 
REMARK       I    between atoms: CZ   and  NH2 
ROOT
ATOM      1  CA  ARG D 557     -26.217   2.705 -17.014  1.00 35.49     0.159 C 
ENDROOT
BRANCH   1   2
ATOM      2  CB  ARG D 557     -26.789   1.319 -17.183  1.00 35.49     0.034 C 
BRANCH   2   3
ATOM      3  CG  ARG D 557     -25.837   0.202 -17.149  1.00 35.49     0.027 C 
BRANCH   3   4
ATOM      4  CD  ARG D 557     -24.756   0.413 -16.159  1.00 35.49     0.116 C 
BRANCH   4   5
ATOM      5  NE  ARG D 557     -24.900  -0.440 -15.009  1.00 35.49    -0.212 N 
ATOM      6  CZ  ARG D 557     -24.079  -1.406 -14.661  1.00 35.49     0.666 C 
ATOM      7  NH1 ARG D 557     -23.005  -1.712 -15.366  1.00 35.49    -0.235 N 
ATOM      8  NH2 ARG D 557     -24.354  -2.065 -13.573  1.00 35.49    -0.235 N 
ATOM      9  HH  ARG D 557     -22.804  -1.290 -16.084  1.00 35.49     0.174 HD
ATOM     10  HH  ARG D 557     -22.505  -2.350 -15.089  1.00 35.49     0.174 HD
ATOM     11  HH  ARG D 557     -25.050  -1.840 -13.134  1.00 35.49     0.174 HD
ATOM     12  HH  ARG D 557     -23.845  -2.692 -13.315  1.00 35.49     0.174 HD
ATOM     13  HE  ARG D 557     -25.603  -0.360 -14.538  1.00 35.49     0.178 HD
ENDBRANCH   4   5
ENDBRANCH   3   4
ENDBRANCH   2   3
ENDBRANCH   1   2
END_RES ARG D 557
BEGIN_RES GLU D 570
REMARK  3 active torsions:
REMARK  status: ('A' for Active; 'I' for Inactive)
REMARK    5  A    between atoms: CA   and  CB  
REMARK    6  A    between atoms: CB   and  CG  
REMARK    7  A    between atoms: CG   and  CD  
ROOT
ATOM     14  CA  GLU D 570     -18.033  -6.348 -13.375  1.00 32.92     0.160 C 
ENDROOT
BRANCH  14  15
ATOM     15  CB  GLU D 570     -19.500  -6.345 -13.794  1.00 32.92     0.043 C 
BRANCH  15  16
ATOM     16  CG  GLU D 570     -20.442  -5.533 -12.982  1.00 32.92     0.100 C 
BRANCH  16  17
ATOM     17  CD  GLU D 570     -21.724  -5.209 -13.714  1.00 32.92     0.185 C 
ATOM     18  OE1 GLU D 570     -22.162  -6.018 -14.554  1.00 32.92    -0.647 OA
ATOM     19  OE2 GLU D 570     -22.286  -4.126 -13.457  1.00 32.92    -0.647 OA
ENDBRANCH  16  17
ENDBRANCH  15  16
ENDBRANCH  14  15
END_RES GLU D 570
ENDMDL
MODEL 8
REMARK VINA RESULT:      -6.6      2.715      7.413
REMARK  4 active torsions:
REMARK  status: ('A' for Active; 'I' for Inactive)
REMARK    1  A    between atoms: C_2  and  C_4 
REMARK    2  A    between atoms: C_7  and  C_31 
REMARK    3  A    between atoms: C_16  and  O_29 
REMARK    4  A    between atoms: C_31  and  O_32 
ROOT
HETATM    1  C   UNL     1     -14.854 -14.111  -3.397  1.00  0.00     0.018 C 
HETATM    2  C   UNL     1     -16.093 -14.915  -3.948  1.00  0.00     0.010 C 
HETATM    3  C   UNL     1     -16.817 -15.622  -2.748  1.00  0.00     0.012 C 
HETATM    4  C   UNL     1     -15.775 -15.447  -1.616  1.00  0.00    -0.014 C 
HETATM    5  C   UNL     1     -15.300 -13.989  -1.936  1.00  0.00     0.009 C 
HETATM    6  C   UNL     1     -16.486 -13.002  -1.726  1.00  0.00    -0.000 C 
HETATM    7  C   UNL     1     -16.306 -11.644  -2.370  1.00  0.00     0.006 C 
HETATM    8  C   UNL     1     -17.697 -11.235  -2.798  1.00  0.00     0.006 C 
HETATM    9  C   UNL     1     -18.586 -11.096  -1.555  1.00  0.00     0.003 C 
HETATM   10  C   UNL     1     -20.017 -10.544  -1.923  1.00  0.00    -0.035 C 
HETATM   11  C   UNL     1     -19.899  -9.324  -2.930  1.00  0.00     0.012 C 
HETATM   12  C   UNL     1     -21.047  -8.319  -2.908  1.00  0.00     0.033 C 
HETATM   13  C   UNL     1     -21.298  -7.872  -1.469  1.00  0.00     0.126 C 
HETATM   14  C   UNL     1     -21.818  -9.075  -0.605  1.00  0.00    -0.017 C 
HETATM   15  C   UNL     1     -20.574 -10.014  -0.523  1.00  0.00     0.004 C 
HETATM   16  C   UNL     1     -20.520 -10.992   0.667  1.00  0.00     0.007 C 
HETATM   17  C   UNL     1     -19.078 -11.534   0.873  1.00  0.00     0.011 C 
HETATM   18  C   UNL     1     -18.548 -12.256  -0.409  1.00  0.00    -0.032 C 
HETATM   19  C   UNL     1     -17.055 -12.915  -0.275  1.00  0.00    -0.032 C 
HETATM   20  C   UNL     1     -17.089 -14.369   0.335  1.00  0.00     0.011 C 
HETATM   21  C   UNL     1     -16.043 -15.383  -0.109  1.00  0.00     0.013 C 
HETATM   22  C   UNL     1     -16.116 -12.040   0.603  1.00  0.00     0.016 C 
HETATM   23  C   UNL     1     -19.565 -13.444  -0.530  1.00  0.00     0.016 C 
HETATM   24  C   UNL     1     -22.249  -8.516   0.767  1.00  0.00     0.018 C 
HETATM   25  C   UNL     1     -23.058  -9.809  -1.155  1.00  0.00     0.018 C 
HETATM   26  C   UNL     1     -20.773 -11.612  -2.767  1.00  0.00     0.016 C 
ENDROOT
BRANCH   1  27
HETATM   27  C   UNL     1     -13.391 -14.637  -3.420  1.00  0.00    -0.089 C 
HETATM   28  C   UNL     1     -12.985 -15.619  -4.478  1.00  0.00     0.043 C 
HETATM   29  C   UNL     1     -12.435 -14.264  -2.537  1.00  0.00     0.014 C 
ENDBRANCH   1  27
BRANCH   4  30
HETATM   30  C   UNL     1     -14.836 -16.674  -1.862  1.00  0.00     0.173 C 
BRANCH  30  31
HETATM   31  O   UNL     1     -13.990 -16.927  -0.718  1.00  0.00    -0.400 OA
HETATM   32  H   UNL     1     -13.885 -16.108  -0.210  1.00  0.00     0.209 HD
ENDBRANCH  30  31
ENDBRANCH   4  30
BRANCH  13  33
HETATM   33  O   UNL     1     -22.086  -6.716  -1.417  1.00  0.00    -0.395 OA
HETATM   34  H   UNL     1     -22.032  -6.311  -2.306  1.00  0.00     0.210 HD
ENDBRANCH  13  33
TORSDOF 4
BEGIN_RES ARG D 557
REMARK  4 active torsions:
REMARK  status: ('A' for Active; 'I' for Inactive)
REMARK    1  A    between atoms: CA   and  CB  
REMARK    2  A    between atoms: CB   and  CG  
REMARK    3  A    between atoms: CG   and  CD  
REMARK    4  A    between atoms: CD   and  NE  
REMARK       I    between atoms: NE   and  CZ  
REMARK       I    between atoms: CZ   and  NH1 
REMARK       I    between atoms: CZ   and  NH2 
ROOT
ATOM      1  CA  ARG D 557     -26.217   2.705 -17.014  1.00 35.49     0.159 C 
ENDROOT
BRANCH   1   2
ATOM      2  CB  ARG D 557     -26.789   1.319 -17.183  1.00 35.49     0.034 C 
BRANCH   2   3
ATOM      3  CG  ARG D 557     -28.234   1.225 -17.422  1.00 35.49     0.027 C 
BRANCH   3   4
ATOM      4  CD  ARG D 557     -28.902   0.291 -16.488  1.00 35.49     0.116 C 
BRANCH   4   5
ATOM      5  NE  ARG D 557     -29.303  -0.930 -17.136  1.00 35.49    -0.212 N 
ATOM      6  CZ  ARG D 557     -28.686  -2.087 -17.045  1.00 35.49     0.666 C 
ATOM      7  NH1 ARG D 557     -27.586  -2.250 -16.333  1.00 35.49    -0.235 N 
ATOM      8  NH2 ARG D 557     -29.203  -3.095 -17.684  1.00 35.49    -0.235 N 
ATOM      9  HH  ARG D 557     -27.229  -1.600 -15.903  1.00 35.49     0.174 HD
ATOM     10  HH  ARG D 557     -27.229  -3.028 -16.308  1.00 35.49     0.174 HD
ATOM     11  HH  ARG D 557     -29.918  -2.963 -18.130  1.00 35.49     0.174 HD
ATOM     12  HH  ARG D 557     -28.836  -3.859 -17.646  1.00 35.49     0.174 HD
ATOM     13  HE  ARG D 557     -29.961  -0.899 -17.673  1.00 35.49     0.178 HD
ENDBRANCH   4   5
ENDBRANCH   3   4
ENDBRANCH   2   3
ENDBRANCH   1   2
END_RES ARG D 557
BEGIN_RES GLU D 570
REMARK  3 active torsions:
REMARK  status: ('A' for Active; 'I' for Inactive)
REMARK    5  A    between atoms: CA   and  CB  
REMARK    6  A    between atoms: CB   and  CG  
REMARK    7  A    between atoms: CG   and  CD  
ROOT
ATOM     14  CA  GLU D 570     -18.033  -6.348 -13.375  1.00 32.92     0.160 C 
ENDROOT
BRANCH  14  15
ATOM     15  CB  GLU D 570     -19.500  -6.345 -13.794  1.00 32.92     0.043 C 
BRANCH  15  16
ATOM     16  CG  GLU D 570     -19.797  -6.259 -15.247  1.00 32.92     0.100 C 
BRANCH  16  17
ATOM     17  CD  GLU D 570     -20.798  -7.292 -15.707  1.00 32.92     0.185 C 
ATOM     18  OE1 GLU D 570     -21.767  -6.930 -16.401  1.00 32.92    -0.647 OA
ATOM     19  OE2 GLU D 570     -20.621  -8.475 -15.355  1.00 32.92    -0.647 OA
ENDBRANCH  16  17
ENDBRANCH  15  16
ENDBRANCH  14  15
END_RES GLU D 570
ENDMDL
MODEL 9
REMARK VINA RESULT:      -6.4      2.944      6.176
REMARK  4 active torsions:
REMARK  status: ('A' for Active; 'I' for Inactive)
REMARK    1  A    between atoms: C_2  and  C_4 
REMARK    2  A    between atoms: C_7  and  C_31 
REMARK    3  A    between atoms: C_16  and  O_29 
REMARK    4  A    between atoms: C_31  and  O_32 
ROOT
HETATM    1  C   UNL     1     -21.648  -8.800  -4.564  1.00  0.00     0.018 C 
HETATM    2  C   UNL     1     -21.292 -10.000  -5.522  1.00  0.00     0.010 C 
HETATM    3  C   UNL     1     -19.906 -10.599  -5.095  1.00  0.00     0.012 C 
HETATM    4  C   UNL     1     -19.392  -9.514  -4.118  1.00  0.00    -0.014 C 
HETATM    5  C   UNL     1     -20.736  -9.174  -3.390  1.00  0.00     0.009 C 
HETATM    6  C   UNL     1     -21.222 -10.421  -2.595  1.00  0.00    -0.000 C 
HETATM    7  C   UNL     1     -22.678 -10.383  -2.179  1.00  0.00     0.006 C 
HETATM    8  C   UNL     1     -23.133 -11.823  -2.247  1.00  0.00     0.006 C 
HETATM    9  C   UNL     1     -22.334 -12.651  -1.231  1.00  0.00     0.003 C 
HETATM   10  C   UNL     1     -22.853 -14.139  -1.159  1.00  0.00    -0.035 C 
HETATM   11  C   UNL     1     -24.438 -14.173  -1.109  1.00  0.00     0.012 C 
HETATM   12  C   UNL     1     -25.065 -15.393  -0.442  1.00  0.00     0.033 C 
HETATM   13  C   UNL     1     -24.429 -15.601   0.931  1.00  0.00     0.126 C 
HETATM   14  C   UNL     1     -22.912 -15.976   0.780  1.00  0.00    -0.017 C 
HETATM   15  C   UNL     1     -22.275 -14.659   0.235  1.00  0.00     0.004 C 
HETATM   16  C   UNL     1     -20.767 -14.464   0.485  1.00  0.00     0.007 C 
HETATM   17  C   UNL     1     -20.363 -12.975   0.298  1.00  0.00     0.011 C 
HETATM   18  C   UNL     1     -20.717 -12.460  -1.136  1.00  0.00    -0.032 C 
HETATM   19  C   UNL     1     -20.279 -10.915  -1.453  1.00  0.00    -0.032 C 
HETATM   20  C   UNL     1     -18.788 -10.801  -1.956  1.00  0.00     0.011 C 
HETATM   21  C   UNL     1     -18.421  -9.705  -2.946  1.00  0.00     0.013 C 
HETATM   22  C   UNL     1     -20.444 -10.001  -0.206  1.00  0.00     0.016 C 
HETATM   23  C   UNL     1     -19.813 -13.386  -2.022  1.00  0.00     0.016 C 
HETATM   24  C   UNL     1     -22.386 -16.375   2.175  1.00  0.00     0.018 C 
HETATM   25  C   UNL     1     -22.608 -17.183  -0.131  1.00  0.00     0.018 C 
HETATM   26  C   UNL     1     -22.539 -14.854  -2.506  1.00  0.00     0.016 C 
ENDROOT
BRANCH   1  27
HETATM   27  C   UNL     1     -21.409  -7.303  -4.912  1.00  0.00    -0.089 C 
HETATM   28  C   UNL     1     -21.251  -6.905  -6.349  1.00  0.00     0.043 C 
HETATM   29  C   UNL     1     -21.335  -6.311  -3.994  1.00  0.00     0.014 C 
ENDBRANCH   1  27
BRANCH   4  30
HETATM   30  C   UNL     1     -18.726  -8.497  -5.102  1.00  0.00     0.173 C 
BRANCH  30  31
HETATM   31  O   UNL     1     -18.241  -9.157  -6.293  1.00  0.00    -0.400 OA
HETATM   32  H   UNL     1     -18.524  -8.657  -7.073  1.00  0.00     0.209 HD
ENDBRANCH  30  31
ENDBRANCH   4  30
BRANCH  13  33
HETATM   33  O   UNL     1     -25.183 -16.472   1.725  1.00  0.00    -0.395 OA
HETATM   34  H   UNL     1     -24.891 -17.375   1.487  1.00  0.00     0.210 HD
ENDBRANCH  13  33
TORSDOF 4
BEGIN_RES ARG D 557
REMARK  4 active torsions:
REMARK  status: ('A' for Active; 'I' for Inactive)
REMARK    1  A    between atoms: CA   and  CB  
REMARK    2  A    between atoms: CB   and  CG  
REMARK    3  A    between atoms: CG   and  CD  
REMARK    4  A    between atoms: CD   and  NE  
REMARK       I    between atoms: NE   and  CZ  
REMARK       I    between atoms: CZ   and  NH1 
REMARK       I    between atoms: CZ   and  NH2 
ROOT
ATOM      1  CA  ARG D 557     -26.217   2.705 -17.014  1.00 35.49     0.159 C 
ENDROOT
BRANCH   1   2
ATOM      2  CB  ARG D 557     -26.789   1.319 -17.183  1.00 35.49     0.034 C 
BRANCH   2   3
ATOM      3  CG  ARG D 557     -25.845   0.199 -17.087  1.00 35.49     0.027 C 
BRANCH   3   4
ATOM      4  CD  ARG D 557     -24.796   0.431 -16.068  1.00 35.49     0.116 C 
BRANCH   4   5
ATOM      5  NE  ARG D 557     -24.947  -0.432 -14.927  1.00 35.49    -0.212 N 
ATOM      6  CZ  ARG D 557     -24.148  -1.425 -14.603  1.00 35.49     0.666 C 
ATOM      7  NH1 ARG D 557     -23.095  -1.752 -15.328  1.00 35.49    -0.235 N 
ATOM      8  NH2 ARG D 557     -24.426  -2.090 -13.520  1.00 35.49    -0.235 N 
ATOM      9  HH  ARG D 557     -22.892  -1.327 -16.044  1.00 35.49     0.174 HD
ATOM     10  HH  ARG D 557     -22.608  -2.408 -15.067  1.00 35.49     0.174 HD
ATOM     11  HH  ARG D 557     -25.109  -1.852 -13.068  1.00 35.49     0.174 HD
ATOM     12  HH  ARG D 557     -23.932  -2.735 -13.277  1.00 35.49     0.174 HD
ATOM     13  HE  ARG D 557     -25.641  -0.339 -14.444  1.00 35.49     0.178 HD
ENDBRANCH   4   5
ENDBRANCH   3   4
ENDBRANCH   2   3
ENDBRANCH   1   2
END_RES ARG D 557
BEGIN_RES GLU D 570
REMARK  3 active torsions:
REMARK  status: ('A' for Active; 'I' for Inactive)
REMARK    5  A    between atoms: CA   and  CB  
REMARK    6  A    between atoms: CB   and  CG  
REMARK    7  A    between atoms: CG   and  CD  
ROOT
ATOM     14  CA  GLU D 570     -18.033  -6.348 -13.375  1.00 32.92     0.160 C 
ENDROOT
BRANCH  14  15
ATOM     15  CB  GLU D 570     -19.500  -6.345 -13.794  1.00 32.92     0.043 C 
BRANCH  15  16
ATOM     16  CG  GLU D 570     -20.443  -5.534 -12.981  1.00 32.92     0.100 C 
BRANCH  16  17
ATOM     17  CD  GLU D 570     -21.572  -4.949 -13.796  1.00 32.92     0.185 C 
ATOM     18  OE1 GLU D 570     -22.340  -4.125 -13.263  1.00 32.92    -0.647 OA
ATOM     19  OE2 GLU D 570     -21.701  -5.332 -14.976  1.00 32.92    -0.647 OA
ENDBRANCH  16  17
ENDBRANCH  15  16
ENDBRANCH  14  15
END_RES GLU D 570
ENDMDL
