MODEL 1
REMARK VINA RESULT:      -3.3      0.000      0.000
REMARK  0 active torsions:
REMARK  status: ('A' for Active; 'I' for Inactive)
ROOT
HETATM    1  C   UNL     1     -23.845  -7.495 -16.268  1.00  0.00     0.129 C 
HETATM    2  C   UNL     1     -24.964  -6.750 -15.593  1.00  0.00     0.168 C 
HETATM    3  O   UNL     1     -24.892  -5.502 -15.574  1.00  0.00    -0.648 OA
HETATM    4  O   UNL     1     -26.023  -7.430 -15.394  1.00  0.00    -0.648 OA
ENDROOT
TORSDOF 0
BEGIN_RES ARG D 557
REMARK  4 active torsions:
REMARK  status: ('A' for Active; 'I' for Inactive)
REMARK    1  A    between atoms: CA   and  CB  
REMARK    2  A    between atoms: CB   and  CG  
REMARK    3  A    between atoms: CG   and  CD  
REMARK    4  A    between atoms: CD   and  NE  
REMARK       I    between atoms: NE   and  CZ  
REMARK       I    between atoms: CZ   and  NH1 
REMARK       I    between atoms: CZ   and  NH2 
ROOT
ATOM      1  CA  ARG D 557     -26.217   2.705 -17.014  1.00 35.49     0.159 C 
ENDROOT
BRANCH   1   2
ATOM      2  CB  ARG D 557     -26.789   1.319 -17.183  1.00 35.49     0.034 C 
BRANCH   2   3
ATOM      3  CG  ARG D 557     -25.865   0.195 -16.989  1.00 35.49     0.027 C 
BRANCH   3   4
ATOM      4  CD  ARG D 557     -26.261  -0.672 -15.856  1.00 35.49     0.116 C 
BRANCH   4   5
ATOM      5  NE  ARG D 557     -25.167  -0.922 -14.956  1.00 35.49    -0.212 N 
ATOM      6  CZ  ARG D 557     -24.959  -2.036 -14.289  1.00 35.49     0.666 C 
ATOM      7  NH1 ARG D 557     -25.772  -3.073 -14.370  1.00 35.49    -0.235 N 
ATOM      8  NH2 ARG D 557     -23.901  -2.095 -13.533  1.00 35.49    -0.235 N 
ATOM      9  HH  ARG D 557     -26.473  -3.057 -14.863  1.00 35.49     0.174 HD
ATOM     10  HH  ARG D 557     -25.584  -3.774 -13.915  1.00 35.49     0.174 HD
ATOM     11  HH  ARG D 557     -23.390  -1.412 -13.506  1.00 35.49     0.174 HD
ATOM     12  HH  ARG D 557     -23.732  -2.798 -13.091  1.00 35.49     0.174 HD
ATOM     13  HE  ARG D 557     -24.633  -0.281 -14.788  1.00 35.49     0.178 HD
ENDBRANCH   4   5
ENDBRANCH   3   4
ENDBRANCH   2   3
ENDBRANCH   1   2
END_RES ARG D 557
BEGIN_RES GLU D 570
REMARK  3 active torsions:
REMARK  status: ('A' for Active; 'I' for Inactive)
REMARK    5  A    between atoms: CA   and  CB  
REMARK    6  A    between atoms: CB   and  CG  
REMARK    7  A    between atoms: CG   and  CD  
ROOT
ATOM     14  CA  GLU D 570     -18.033  -6.348 -13.375  1.00 32.92     0.160 C 
ENDROOT
BRANCH  14  15
ATOM     15  CB  GLU D 570     -19.500  -6.345 -13.794  1.00 32.92     0.043 C 
BRANCH  15  16
ATOM     16  CG  GLU D 570     -20.449  -5.566 -12.958  1.00 32.92     0.100 C 
BRANCH  16  17
ATOM     17  CD  GLU D 570     -21.684  -5.134 -13.714  1.00 32.92     0.185 C 
ATOM     18  OE1 GLU D 570     -22.734  -4.913 -13.082  1.00 32.92    -0.647 OA
ATOM     19  OE2 GLU D 570     -21.604  -5.033 -14.954  1.00 32.92    -0.647 OA
ENDBRANCH  16  17
ENDBRANCH  15  16
ENDBRANCH  14  15
END_RES GLU D 570
ENDMDL
MODEL 2
REMARK VINA RESULT:      -3.3      2.294      3.629
REMARK  0 active torsions:
REMARK  status: ('A' for Active; 'I' for Inactive)
ROOT
HETATM    1  C   UNL     1     -23.923  -5.020 -10.405  1.00  0.00     0.129 C 
HETATM    2  C   UNL     1     -24.335  -3.580 -10.543  1.00  0.00     0.168 C 
HETATM    3  O   UNL     1     -25.418  -3.242 -10.017  1.00  0.00    -0.648 OA
HETATM    4  O   UNL     1     -23.405  -2.783 -10.891  1.00  0.00    -0.648 OA
ENDROOT
TORSDOF 0
BEGIN_RES ARG D 557
REMARK  4 active torsions:
REMARK  status: ('A' for Active; 'I' for Inactive)
REMARK    1  A    between atoms: CA   and  CB  
REMARK    2  A    between atoms: CB   and  CG  
REMARK    3  A    between atoms: CG   and  CD  
REMARK    4  A    between atoms: CD   and  NE  
REMARK       I    between atoms: NE   and  CZ  
REMARK       I    between atoms: CZ   and  NH1 
REMARK       I    between atoms: CZ   and  NH2 
ROOT
ATOM      1  CA  ARG D 557     -26.217   2.705 -17.014  1.00 35.49     0.159 C 
ENDROOT
BRANCH   1   2
ATOM      2  CB  ARG D 557     -26.789   1.319 -17.183  1.00 35.49     0.034 C 
BRANCH   2   3
ATOM      3  CG  ARG D 557     -25.833   0.205 -17.182  1.00 35.49     0.027 C 
BRANCH   3   4
ATOM      4  CD  ARG D 557     -24.727   0.412 -16.220  1.00 35.49     0.116 C 
BRANCH   4   5
ATOM      5  NE  ARG D 557     -24.862  -0.418 -15.052  1.00 35.49    -0.212 N 
ATOM      6  CZ  ARG D 557     -24.043  -1.383 -14.696  1.00 35.49     0.666 C 
ATOM      7  NH1 ARG D 557     -22.981  -1.710 -15.408  1.00 35.49    -0.235 N 
ATOM      8  NH2 ARG D 557     -24.309  -2.019 -13.592  1.00 35.49    -0.235 N 
ATOM      9  HH  ARG D 557     -22.786  -1.304 -16.137  1.00 35.49     0.174 HD
ATOM     10  HH  ARG D 557     -22.482  -2.347 -15.125  1.00 35.49     0.174 HD
ATOM     11  HH  ARG D 557     -24.997  -1.781 -13.149  1.00 35.49     0.174 HD
ATOM     12  HH  ARG D 557     -23.802  -2.645 -13.328  1.00 35.49     0.174 HD
ATOM     13  HE  ARG D 557     -25.559  -0.324 -14.573  1.00 35.49     0.178 HD
ENDBRANCH   4   5
ENDBRANCH   3   4
ENDBRANCH   2   3
ENDBRANCH   1   2
END_RES ARG D 557
BEGIN_RES GLU D 570
REMARK  3 active torsions:
REMARK  status: ('A' for Active; 'I' for Inactive)
REMARK    5  A    between atoms: CA   and  CB  
REMARK    6  A    between atoms: CB   and  CG  
REMARK    7  A    between atoms: CG   and  CD  
ROOT
ATOM     14  CA  GLU D 570     -18.033  -6.348 -13.375  1.00 32.92     0.160 C 
ENDROOT
BRANCH  14  15
ATOM     15  CB  GLU D 570     -19.500  -6.345 -13.794  1.00 32.92     0.043 C 
BRANCH  15  16
ATOM     16  CG  GLU D 570     -20.439  -5.518 -12.993  1.00 32.92     0.100 C 
BRANCH  16  17
ATOM     17  CD  GLU D 570     -21.746  -5.255 -13.703  1.00 32.92     0.185 C 
ATOM     18  OE1 GLU D 570     -22.271  -6.172 -14.364  1.00 32.92    -0.647 OA
ATOM     19  OE2 GLU D 570     -22.242  -4.115 -13.612  1.00 32.92    -0.647 OA
ENDBRANCH  16  17
ENDBRANCH  15  16
ENDBRANCH  14  15
END_RES GLU D 570
ENDMDL
MODEL 3
REMARK VINA RESULT:      -3.2      2.255      3.487
REMARK  0 active torsions:
REMARK  status: ('A' for Active; 'I' for Inactive)
ROOT
HETATM    1  C   UNL     1     -23.291  -4.260 -10.199  1.00  0.00     0.129 C 
HETATM    2  C   UNL     1     -24.565  -3.471 -10.323  1.00  0.00     0.168 C 
HETATM    3  O   UNL     1     -24.952  -2.846  -9.312  1.00  0.00    -0.648 OA
HETATM    4  O   UNL     1     -24.951  -3.251 -11.517  1.00  0.00    -0.648 OA
ENDROOT
TORSDOF 0
BEGIN_RES ARG D 557
REMARK  4 active torsions:
REMARK  status: ('A' for Active; 'I' for Inactive)
REMARK    1  A    between atoms: CA   and  CB  
REMARK    2  A    between atoms: CB   and  CG  
REMARK    3  A    between atoms: CG   and  CD  
REMARK    4  A    between atoms: CD   and  NE  
REMARK       I    between atoms: NE   and  CZ  
REMARK       I    between atoms: CZ   and  NH1 
REMARK       I    between atoms: CZ   and  NH2 
ROOT
ATOM      1  CA  ARG D 557     -26.217   2.705 -17.014  1.00 35.49     0.159 C 
ENDROOT
BRANCH   1   2
ATOM      2  CB  ARG D 557     -26.789   1.319 -17.183  1.00 35.49     0.034 C 
BRANCH   2   3
ATOM      3  CG  ARG D 557     -25.853   0.197 -17.043  1.00 35.49     0.027 C 
BRANCH   3   4
ATOM      4  CD  ARG D 557     -26.167  -0.657 -15.874  1.00 35.49     0.116 C 
BRANCH   4   5
ATOM      5  NE  ARG D 557     -25.075  -0.717 -14.938  1.00 35.49    -0.212 N 
ATOM      6  CZ  ARG D 557     -24.624  -1.804 -14.354  1.00 35.49     0.666 C 
ATOM      7  NH1 ARG D 557     -25.155  -2.995 -14.563  1.00 35.49    -0.235 N 
ATOM      8  NH2 ARG D 557     -23.610  -1.675 -13.548  1.00 35.49    -0.235 N 
ATOM      9  HH  ARG D 557     -25.821  -3.103 -15.091  1.00 35.49     0.174 HD
ATOM     10  HH  ARG D 557     -24.816  -3.668 -14.156  1.00 35.49     0.174 HD
ATOM     11  HH  ARG D 557     -23.283  -0.895 -13.438  1.00 35.49     0.174 HD
ATOM     12  HH  ARG D 557     -23.288  -2.355 -13.155  1.00 35.49     0.174 HD
ATOM     13  HE  ARG D 557     -24.722   0.015 -14.690  1.00 35.49     0.178 HD
ENDBRANCH   4   5
ENDBRANCH   3   4
ENDBRANCH   2   3
ENDBRANCH   1   2
END_RES ARG D 557
BEGIN_RES GLU D 570
REMARK  3 active torsions:
REMARK  status: ('A' for Active; 'I' for Inactive)
REMARK    5  A    between atoms: CA   and  CB  
REMARK    6  A    between atoms: CB   and  CG  
REMARK    7  A    between atoms: CG   and  CD  
ROOT
ATOM     14  CA  GLU D 570     -18.033  -6.348 -13.375  1.00 32.92     0.160 C 
ENDROOT
BRANCH  14  15
ATOM     15  CB  GLU D 570     -19.500  -6.345 -13.794  1.00 32.92     0.043 C 
BRANCH  15  16
ATOM     16  CG  GLU D 570     -20.442  -5.533 -12.982  1.00 32.92     0.100 C 
BRANCH  16  17
ATOM     17  CD  GLU D 570     -21.750  -5.265 -13.689  1.00 32.92     0.185 C 
ATOM     18  OE1 GLU D 570     -22.296  -4.153 -13.552  1.00 32.92    -0.647 OA
ATOM     19  OE2 GLU D 570     -22.243  -6.183 -14.374  1.00 32.92    -0.647 OA
ENDBRANCH  16  17
ENDBRANCH  15  16
ENDBRANCH  14  15
END_RES GLU D 570
ENDMDL
MODEL 4
REMARK VINA RESULT:      -3.1      1.898      2.273
REMARK  0 active torsions:
REMARK  status: ('A' for Active; 'I' for Inactive)
ROOT
HETATM    1  C   UNL     1     -27.917  -7.052 -15.655  1.00  0.00     0.129 C 
HETATM    2  C   UNL     1     -26.488  -6.692 -15.957  1.00  0.00     0.168 C 
HETATM    3  O   UNL     1     -26.278  -5.585 -16.499  1.00  0.00    -0.648 OA
HETATM    4  O   UNL     1     -25.615  -7.392 -15.349  1.00  0.00    -0.648 OA
ENDROOT
TORSDOF 0
BEGIN_RES ARG D 557
REMARK  4 active torsions:
REMARK  status: ('A' for Active; 'I' for Inactive)
REMARK    1  A    between atoms: CA   and  CB  
REMARK    2  A    between atoms: CB   and  CG  
REMARK    3  A    between atoms: CG   and  CD  
REMARK    4  A    between atoms: CD   and  NE  
REMARK       I    between atoms: NE   and  CZ  
REMARK       I    between atoms: CZ   and  NH1 
REMARK       I    between atoms: CZ   and  NH2 
ROOT
ATOM      1  CA  ARG D 557     -26.217   2.705 -17.014  1.00 35.49     0.159 C 
ENDROOT
BRANCH   1   2
ATOM      2  CB  ARG D 557     -26.789   1.319 -17.183  1.00 35.49     0.034 C 
BRANCH   2   3
ATOM      3  CG  ARG D 557     -28.219   1.155 -16.894  1.00 35.49     0.027 C 
BRANCH   3   4
ATOM      4  CD  ARG D 557     -28.593  -0.263 -16.683  1.00 35.49     0.116 C 
BRANCH   4   5
ATOM      5  NE  ARG D 557     -27.576  -0.991 -15.971  1.00 35.49    -0.212 N 
ATOM      6  CZ  ARG D 557     -27.375  -2.288 -16.033  1.00 35.49     0.666 C 
ATOM      7  NH1 ARG D 557     -28.121  -3.087 -16.774  1.00 35.49    -0.235 N 
ATOM      8  NH2 ARG D 557     -26.392  -2.777 -15.335  1.00 35.49    -0.235 N 
ATOM      9  HH  ARG D 557     -28.771  -2.787 -17.243  1.00 35.49     0.174 HD
ATOM     10  HH  ARG D 557     -27.940  -3.925 -16.778  1.00 35.49     0.174 HD
ATOM     11  HH  ARG D 557     -25.922  -2.237 -14.872  1.00 35.49     0.174 HD
ATOM     12  HH  ARG D 557     -26.228  -3.609 -15.353  1.00 35.49     0.174 HD
ATOM     13  HE  ARG D 557     -27.096  -0.565 -15.413  1.00 35.49     0.178 HD
ENDBRANCH   4   5
ENDBRANCH   3   4
ENDBRANCH   2   3
ENDBRANCH   1   2
END_RES ARG D 557
BEGIN_RES GLU D 570
REMARK  3 active torsions:
REMARK  status: ('A' for Active; 'I' for Inactive)
REMARK    5  A    between atoms: CA   and  CB  
REMARK    6  A    between atoms: CB   and  CG  
REMARK    7  A    between atoms: CG   and  CD  
ROOT
ATOM     14  CA  GLU D 570     -18.033  -6.348 -13.375  1.00 32.92     0.160 C 
ENDROOT
BRANCH  14  15
ATOM     15  CB  GLU D 570     -19.500  -6.345 -13.794  1.00 32.92     0.043 C 
BRANCH  15  16
ATOM     16  CG  GLU D 570     -20.447  -5.557 -12.964  1.00 32.92     0.100 C 
BRANCH  16  17
ATOM     17  CD  GLU D 570     -21.704  -5.172 -13.709  1.00 32.92     0.185 C 
ATOM     18  OE1 GLU D 570     -22.771  -5.057 -13.077  1.00 32.92    -0.647 OA
ATOM     19  OE2 GLU D 570     -21.624  -4.999 -14.941  1.00 32.92    -0.647 OA
ENDBRANCH  16  17
ENDBRANCH  15  16
ENDBRANCH  14  15
END_RES GLU D 570
ENDMDL
MODEL 5
REMARK VINA RESULT:      -2.8      3.319      4.598
REMARK  0 active torsions:
REMARK  status: ('A' for Active; 'I' for Inactive)
ROOT
HETATM    1  C   UNL     1     -23.582  -4.227  -9.832  1.00  0.00     0.129 C 
HETATM    2  C   UNL     1     -24.572  -3.281 -10.454  1.00  0.00     0.168 C 
HETATM    3  O   UNL     1     -24.379  -2.952 -11.644  1.00  0.00    -0.648 OA
HETATM    4  O   UNL     1     -25.674  -3.163  -9.826  1.00  0.00    -0.648 OA
ENDROOT
TORSDOF 0
BEGIN_RES ARG D 557
REMARK  4 active torsions:
REMARK  status: ('A' for Active; 'I' for Inactive)
REMARK    1  A    between atoms: CA   and  CB  
REMARK    2  A    between atoms: CB   and  CG  
REMARK    3  A    between atoms: CG   and  CD  
REMARK    4  A    between atoms: CD   and  NE  
REMARK       I    between atoms: NE   and  CZ  
REMARK       I    between atoms: CZ   and  NH1 
REMARK       I    between atoms: CZ   and  NH2 
ROOT
ATOM      1  CA  ARG D 557     -26.217   2.705 -17.014  1.00 35.49     0.159 C 
ENDROOT
BRANCH   1   2
ATOM      2  CB  ARG D 557     -26.789   1.319 -17.183  1.00 35.49     0.034 C 
BRANCH   2   3
ATOM      3  CG  ARG D 557     -28.232   1.226 -17.438  1.00 35.49     0.027 C 
BRANCH   3   4
ATOM      4  CD  ARG D 557     -28.913   0.306 -16.499  1.00 35.49     0.116 C 
BRANCH   4   5
ATOM      5  NE  ARG D 557     -29.282  -0.935 -17.128  1.00 35.49    -0.212 N 
ATOM      6  CZ  ARG D 557     -28.636  -2.074 -17.019  1.00 35.49     0.666 C 
ATOM      7  NH1 ARG D 557     -27.531  -2.197 -16.306  1.00 35.49    -0.235 N 
ATOM      8  NH2 ARG D 557     -29.127  -3.105 -17.642  1.00 35.49    -0.235 N 
ATOM      9  HH  ARG D 557     -27.191  -1.532 -15.886  1.00 35.49     0.174 HD
ATOM     10  HH  ARG D 557     -27.154  -2.965 -16.270  1.00 35.49     0.174 HD
ATOM     11  HH  ARG D 557     -29.846  -2.998 -18.089  1.00 35.49     0.174 HD
ATOM     12  HH  ARG D 557     -28.740  -3.858 -17.592  1.00 35.49     0.174 HD
ATOM     13  HE  ARG D 557     -29.942  -0.929 -17.665  1.00 35.49     0.178 HD
ENDBRANCH   4   5
ENDBRANCH   3   4
ENDBRANCH   2   3
ENDBRANCH   1   2
END_RES ARG D 557
BEGIN_RES GLU D 570
REMARK  3 active torsions:
REMARK  status: ('A' for Active; 'I' for Inactive)
REMARK    5  A    between atoms: CA   and  CB  
REMARK    6  A    between atoms: CB   and  CG  
REMARK    7  A    between atoms: CG   and  CD  
ROOT
ATOM     14  CA  GLU D 570     -18.033  -6.348 -13.375  1.00 32.92     0.160 C 
ENDROOT
BRANCH  14  15
ATOM     15  CB  GLU D 570     -19.500  -6.345 -13.794  1.00 32.92     0.043 C 
BRANCH  15  16
ATOM     16  CG  GLU D 570     -19.804  -6.055 -15.219  1.00 32.92     0.100 C 
BRANCH  16  17
ATOM     17  CD  GLU D 570     -21.149  -5.394 -15.412  1.00 32.92     0.185 C 
ATOM     18  OE1 GLU D 570     -21.526  -5.114 -16.566  1.00 32.92    -0.647 OA
ATOM     19  OE2 GLU D 570     -21.826  -5.139 -14.396  1.00 32.92    -0.647 OA
ENDBRANCH  16  17
ENDBRANCH  15  16
ENDBRANCH  14  15
END_RES GLU D 570
ENDMDL
MODEL 6
REMARK VINA RESULT:      -2.7      9.057     10.865
REMARK  0 active torsions:
REMARK  status: ('A' for Active; 'I' for Inactive)
ROOT
HETATM    1  C   UNL     1     -11.177   6.006 -20.270  1.00  0.00     0.129 C 
HETATM    2  C   UNL     1      -9.813   5.913 -19.642  1.00  0.00     0.168 C 
HETATM    3  O   UNL     1      -8.841   6.303 -20.323  1.00  0.00    -0.648 OA
HETATM    4  O   UNL     1      -9.811   5.755 -18.378  1.00  0.00    -0.648 OA
ENDROOT
TORSDOF 0
BEGIN_RES ARG D 557
REMARK  4 active torsions:
REMARK  status: ('A' for Active; 'I' for Inactive)
REMARK    1  A    between atoms: CA   and  CB  
REMARK    2  A    between atoms: CB   and  CG  
REMARK    3  A    between atoms: CG   and  CD  
REMARK    4  A    between atoms: CD   and  NE  
REMARK       I    between atoms: NE   and  CZ  
REMARK       I    between atoms: CZ   and  NH1 
REMARK       I    between atoms: CZ   and  NH2 
ROOT
ATOM      1  CA  ARG D 557     -26.217   2.705 -17.014  1.00 35.49     0.159 C 
ENDROOT
BRANCH   1   2
ATOM      2  CB  ARG D 557     -26.789   1.319 -17.183  1.00 35.49     0.034 C 
BRANCH   2   3
ATOM      3  CG  ARG D 557     -25.835   0.203 -17.159  1.00 35.49     0.027 C 
BRANCH   3   4
ATOM      4  CD  ARG D 557     -24.753   0.407 -16.169  1.00 35.49     0.116 C 
BRANCH   4   5
ATOM      5  NE  ARG D 557     -24.902  -0.444 -15.019  1.00 35.49    -0.212 N 
ATOM      6  CZ  ARG D 557     -24.086  -1.414 -14.670  1.00 35.49     0.666 C 
ATOM      7  NH1 ARG D 557     -23.014  -1.726 -15.374  1.00 35.49    -0.235 N 
ATOM      8  NH2 ARG D 557     -24.365  -2.071 -13.582  1.00 35.49    -0.235 N 
ATOM      9  HH  ARG D 557     -22.810  -1.306 -16.092  1.00 35.49     0.174 HD
ATOM     10  HH  ARG D 557     -22.517  -2.367 -15.097  1.00 35.49     0.174 HD
ATOM     11  HH  ARG D 557     -25.060  -1.843 -13.144  1.00 35.49     0.174 HD
ATOM     12  HH  ARG D 557     -23.860  -2.701 -13.323  1.00 35.49     0.174 HD
ATOM     13  HE  ARG D 557     -25.605  -0.361 -14.548  1.00 35.49     0.178 HD
ENDBRANCH   4   5
ENDBRANCH   3   4
ENDBRANCH   2   3
ENDBRANCH   1   2
END_RES ARG D 557
BEGIN_RES GLU D 570
REMARK  3 active torsions:
REMARK  status: ('A' for Active; 'I' for Inactive)
REMARK    5  A    between atoms: CA   and  CB  
REMARK    6  A    between atoms: CB   and  CG  
REMARK    7  A    between atoms: CG   and  CD  
ROOT
ATOM     14  CA  GLU D 570     -18.033  -6.348 -13.375  1.00 32.92     0.160 C 
ENDROOT
BRANCH  14  15
ATOM     15  CB  GLU D 570     -19.500  -6.345 -13.794  1.00 32.92     0.043 C 
BRANCH  15  16
ATOM     16  CG  GLU D 570     -20.448  -5.558 -12.963  1.00 32.92     0.100 C 
BRANCH  16  17
ATOM     17  CD  GLU D 570     -21.742  -5.249 -13.678  1.00 32.92     0.185 C 
ATOM     18  OE1 GLU D 570     -22.262  -6.126 -14.395  1.00 32.92    -0.647 OA
ATOM     19  OE2 GLU D 570     -22.233  -4.113 -13.533  1.00 32.92    -0.647 OA
ENDBRANCH  16  17
ENDBRANCH  15  16
ENDBRANCH  14  15
END_RES GLU D 570
ENDMDL
MODEL 7
REMARK VINA RESULT:      -2.6      2.919      4.248
REMARK  0 active torsions:
REMARK  status: ('A' for Active; 'I' for Inactive)
ROOT
HETATM    1  C   UNL     1     -23.150  -3.680 -10.303  1.00  0.00     0.129 C 
HETATM    2  C   UNL     1     -24.540  -3.327 -10.757  1.00  0.00     0.168 C 
HETATM    3  O   UNL     1     -25.409  -3.173  -9.872  1.00  0.00    -0.648 OA
HETATM    4  O   UNL     1     -24.625  -2.905 -11.955  1.00  0.00    -0.648 OA
ENDROOT
TORSDOF 0
BEGIN_RES ARG D 557
REMARK  4 active torsions:
REMARK  status: ('A' for Active; 'I' for Inactive)
REMARK    1  A    between atoms: CA   and  CB  
REMARK    2  A    between atoms: CB   and  CG  
REMARK    3  A    between atoms: CG   and  CD  
REMARK    4  A    between atoms: CD   and  NE  
REMARK       I    between atoms: NE   and  CZ  
REMARK       I    between atoms: CZ   and  NH1 
REMARK       I    between atoms: CZ   and  NH2 
ROOT
ATOM      1  CA  ARG D 557     -26.217   2.705 -17.014  1.00 35.49     0.159 C 
ENDROOT
BRANCH   1   2
ATOM      2  CB  ARG D 557     -26.789   1.319 -17.183  1.00 35.49     0.034 C 
BRANCH   2   3
ATOM      3  CG  ARG D 557     -25.958   0.200 -16.721  1.00 35.49     0.027 C 
BRANCH   3   4
ATOM      4  CD  ARG D 557     -26.752  -0.850 -16.043  1.00 35.49     0.116 C 
BRANCH   4   5
ATOM      5  NE  ARG D 557     -28.000  -1.104 -16.712  1.00 35.49    -0.212 N 
ATOM      6  CZ  ARG D 557     -28.517  -2.288 -16.949  1.00 35.49     0.666 C 
ATOM      7  NH1 ARG D 557     -27.915  -3.409 -16.595  1.00 35.49    -0.235 N 
ATOM      8  NH2 ARG D 557     -29.671  -2.330 -17.550  1.00 35.49    -0.235 N 
ATOM      9  HH  ARG D 557     -27.156  -3.405 -16.197  1.00 35.49     0.174 HD
ATOM     10  HH  ARG D 557     -28.302  -4.152 -16.774  1.00 35.49     0.174 HD
ATOM     11  HH  ARG D 557     -30.040  -1.591 -17.760  1.00 35.49     0.174 HD
ATOM     12  HH  ARG D 557     -30.038  -3.076 -17.716  1.00 35.49     0.174 HD
ATOM     13  HE  ARG D 557     -28.420  -0.440 -17.039  1.00 35.49     0.178 HD
ENDBRANCH   4   5
ENDBRANCH   3   4
ENDBRANCH   2   3
ENDBRANCH   1   2
END_RES ARG D 557
BEGIN_RES GLU D 570
REMARK  3 active torsions:
REMARK  status: ('A' for Active; 'I' for Inactive)
REMARK    5  A    between atoms: CA   and  CB  
REMARK    6  A    between atoms: CB   and  CG  
REMARK    7  A    between atoms: CG   and  CD  
ROOT
ATOM     14  CA  GLU D 570     -18.033  -6.348 -13.375  1.00 32.92     0.160 C 
ENDROOT
BRANCH  14  15
ATOM     15  CB  GLU D 570     -19.500  -6.345 -13.794  1.00 32.92     0.043 C 
BRANCH  15  16
ATOM     16  CG  GLU D 570     -20.441  -5.527 -12.986  1.00 32.92     0.100 C 
BRANCH  16  17
ATOM     17  CD  GLU D 570     -21.727  -5.216 -13.715  1.00 32.92     0.185 C 
ATOM     18  OE1 GLU D 570     -22.152  -4.045 -13.720  1.00 32.92    -0.647 OA
ATOM     19  OE2 GLU D 570     -22.325  -6.157 -14.274  1.00 32.92    -0.647 OA
ENDBRANCH  16  17
ENDBRANCH  15  16
ENDBRANCH  14  15
END_RES GLU D 570
ENDMDL
MODEL 8
REMARK VINA RESULT:      -2.6      3.077      4.045
REMARK  0 active torsions:
REMARK  status: ('A' for Active; 'I' for Inactive)
ROOT
HETATM    1  C   UNL     1     -23.417  -4.192 -10.856  1.00  0.00     0.129 C 
HETATM    2  C   UNL     1     -24.613  -3.297 -11.035  1.00  0.00     0.168 C 
HETATM    3  O   UNL     1     -24.957  -3.028 -12.206  1.00  0.00    -0.648 OA
HETATM    4  O   UNL     1     -25.347  -3.165 -10.003  1.00  0.00    -0.648 OA
ENDROOT
TORSDOF 0
BEGIN_RES ARG D 557
REMARK  4 active torsions:
REMARK  status: ('A' for Active; 'I' for Inactive)
REMARK    1  A    between atoms: CA   and  CB  
REMARK    2  A    between atoms: CB   and  CG  
REMARK    3  A    between atoms: CG   and  CD  
REMARK    4  A    between atoms: CD   and  NE  
REMARK       I    between atoms: NE   and  CZ  
REMARK       I    between atoms: CZ   and  NH1 
REMARK       I    between atoms: CZ   and  NH2 
ROOT
ATOM      1  CA  ARG D 557     -26.217   2.705 -17.014  1.00 35.49     0.159 C 
ENDROOT
BRANCH   1   2
ATOM      2  CB  ARG D 557     -26.789   1.319 -17.183  1.00 35.49     0.034 C 
BRANCH   2   3
ATOM      3  CG  ARG D 557     -28.211   1.148 -16.862  1.00 35.49     0.027 C 
BRANCH   3   4
ATOM      4  CD  ARG D 557     -28.549  -0.255 -16.528  1.00 35.49     0.116 C 
BRANCH   4   5
ATOM      5  NE  ARG D 557     -27.492  -0.910 -15.804  1.00 35.49    -0.212 N 
ATOM      6  CZ  ARG D 557     -27.198  -2.189 -15.863  1.00 35.49     0.666 C 
ATOM      7  NH1 ARG D 557     -27.878  -3.039 -16.611  1.00 35.49    -0.235 N 
ATOM      8  NH2 ARG D 557     -26.191  -2.608 -15.154  1.00 35.49    -0.235 N 
ATOM      9  HH  ARG D 557     -28.544  -2.785 -17.087  1.00 35.49     0.174 HD
ATOM     10  HH  ARG D 557     -27.640  -3.862 -16.612  1.00 35.49     0.174 HD
ATOM     11  HH  ARG D 557     -25.765  -2.035 -14.687  1.00 35.49     0.174 HD
ATOM     12  HH  ARG D 557     -25.969  -3.426 -15.169  1.00 35.49     0.174 HD
ATOM     13  HE  ARG D 557     -27.048  -0.450 -15.242  1.00 35.49     0.178 HD
ENDBRANCH   4   5
ENDBRANCH   3   4
ENDBRANCH   2   3
ENDBRANCH   1   2
END_RES ARG D 557
BEGIN_RES GLU D 570
REMARK  3 active torsions:
REMARK  status: ('A' for Active; 'I' for Inactive)
REMARK    5  A    between atoms: CA   and  CB  
REMARK    6  A    between atoms: CB   and  CG  
REMARK    7  A    between atoms: CG   and  CD  
ROOT
ATOM     14  CA  GLU D 570     -18.033  -6.348 -13.375  1.00 32.92     0.160 C 
ENDROOT
BRANCH  14  15
ATOM     15  CB  GLU D 570     -19.500  -6.345 -13.794  1.00 32.92     0.043 C 
BRANCH  15  16
ATOM     16  CG  GLU D 570     -20.093  -7.639 -14.219  1.00 32.92     0.100 C 
BRANCH  16  17
ATOM     17  CD  GLU D 570     -20.688  -7.587 -15.607  1.00 32.92     0.185 C 
ATOM     18  OE1 GLU D 570     -21.028  -8.651 -16.160  1.00 32.92    -0.647 OA
ATOM     19  OE2 GLU D 570     -20.801  -6.472 -16.153  1.00 32.92    -0.647 OA
ENDBRANCH  16  17
ENDBRANCH  15  16
ENDBRANCH  14  15
END_RES GLU D 570
ENDMDL
MODEL 9
REMARK VINA RESULT:      -2.5      6.640      8.243
REMARK  0 active torsions:
REMARK  status: ('A' for Active; 'I' for Inactive)
ROOT
HETATM    1  C   UNL     1     -21.038  -7.668  -1.852  1.00  0.00     0.129 C 
HETATM    2  C   UNL     1     -22.144  -6.698  -1.535  1.00  0.00     0.168 C 
HETATM    3  O   UNL     1     -22.479  -5.898  -2.434  1.00  0.00    -0.648 OA
HETATM    4  O   UNL     1     -22.844  -6.994  -0.513  1.00  0.00    -0.648 OA
ENDROOT
TORSDOF 0
BEGIN_RES ARG D 557
REMARK  4 active torsions:
REMARK  status: ('A' for Active; 'I' for Inactive)
REMARK    1  A    between atoms: CA   and  CB  
REMARK    2  A    between atoms: CB   and  CG  
REMARK    3  A    between atoms: CG   and  CD  
REMARK    4  A    between atoms: CD   and  NE  
REMARK       I    between atoms: NE   and  CZ  
REMARK       I    between atoms: CZ   and  NH1 
REMARK       I    between atoms: CZ   and  NH2 
ROOT
ATOM      1  CA  ARG D 557     -26.217   2.705 -17.014  1.00 35.49     0.159 C 
ENDROOT
BRANCH   1   2
ATOM      2  CB  ARG D 557     -26.789   1.319 -17.183  1.00 35.49     0.034 C 
BRANCH   2   3
ATOM      3  CG  ARG D 557     -28.233   1.226 -17.433  1.00 35.49     0.027 C 
BRANCH   3   4
ATOM      4  CD  ARG D 557     -28.909   0.301 -16.495  1.00 35.49     0.116 C 
BRANCH   4   5
ATOM      5  NE  ARG D 557     -29.294  -0.931 -17.131  1.00 35.49    -0.212 N 
ATOM      6  CZ  ARG D 557     -28.662  -2.079 -17.029  1.00 35.49     0.666 C 
ATOM      7  NH1 ARG D 557     -27.559  -2.220 -16.317  1.00 35.49    -0.235 N 
ATOM      8  NH2 ARG D 557     -29.166  -3.100 -17.659  1.00 35.49    -0.235 N 
ATOM      9  HH  ARG D 557     -27.211  -1.562 -15.893  1.00 35.49     0.174 HD
ATOM     10  HH  ARG D 557     -27.191  -2.993 -16.285  1.00 35.49     0.174 HD
ATOM     11  HH  ARG D 557     -29.883  -2.981 -18.105  1.00 35.49     0.174 HD
ATOM     12  HH  ARG D 557     -28.788  -3.858 -17.614  1.00 35.49     0.174 HD
ATOM     13  HE  ARG D 557     -29.953  -0.914 -17.668  1.00 35.49     0.178 HD
ENDBRANCH   4   5
ENDBRANCH   3   4
ENDBRANCH   2   3
ENDBRANCH   1   2
END_RES ARG D 557
BEGIN_RES GLU D 570
REMARK  3 active torsions:
REMARK  status: ('A' for Active; 'I' for Inactive)
REMARK    5  A    between atoms: CA   and  CB  
REMARK    6  A    between atoms: CB   and  CG  
REMARK    7  A    between atoms: CG   and  CD  
ROOT
ATOM     14  CA  GLU D 570     -18.033  -6.348 -13.375  1.00 32.92     0.160 C 
ENDROOT
BRANCH  14  15
ATOM     15  CB  GLU D 570     -19.500  -6.345 -13.794  1.00 32.92     0.043 C 
BRANCH  15  16
ATOM     16  CG  GLU D 570     -20.443  -5.538 -12.978  1.00 32.92     0.100 C 
BRANCH  16  17
ATOM     17  CD  GLU D 570     -21.728  -5.217 -13.706  1.00 32.92     0.185 C 
ATOM     18  OE1 GLU D 570     -22.068  -5.925 -14.674  1.00 32.92    -0.647 OA
ATOM     19  OE2 GLU D 570     -22.392  -4.237 -13.316  1.00 32.92    -0.647 OA
ENDBRANCH  16  17
ENDBRANCH  15  16
ENDBRANCH  14  15
END_RES GLU D 570
ENDMDL
