MODEL 1
REMARK VINA RESULT:      -0.9      0.000      0.000
REMARK  3 active torsions:
REMARK  status: ('A' for Active; 'I' for Inactive)
REMARK    1  A    between atoms: C_11  and  N_36 
REMARK    2  A    between atoms: N_28  and  C_29 
REMARK    3  A    between atoms: C_69  and  C_70 
ROOT
HETATM    1  C   UNL     1     -17.504 -13.061  -2.034  1.00  0.00     0.041 A 
HETATM    2  C   UNL     1     -16.424 -11.792  -1.356  1.00  0.00     0.055 A 
HETATM    3  C   UNL     1     -15.592 -10.632  -2.447  1.00  0.00     0.000 A 
HETATM    4  C   UNL     1     -15.732 -10.838  -4.227  1.00  0.00     0.076 A 
HETATM    5  C   UNL     1     -16.812 -12.115  -4.943  1.00  0.00     0.072 A 
HETATM    6  C   UNL     1     -17.640 -13.273  -3.839  1.00  0.00     0.206 A 
HETATM    7  N   UNL     1     -18.296 -14.376  -4.430  1.00  0.00    -0.014 N 
HETATM    8  C   UNL     1     -18.713 -15.592  -3.961  1.00  0.00     0.260 C 
HETATM    9  N   UNL     1     -19.580 -16.399  -4.500  1.00  0.00    -0.316 N 
ATOM     10  HN  UNL     1     -19.722 -17.334  -4.117  1.00  0.00     0.169 HD
HETATM   11  C   UNL     1     -20.292 -15.984  -5.577  1.00  0.00     0.149 C 
HETATM   12  N   UNL     1     -21.572 -16.096  -5.623  1.00  0.00    -0.356 N 
ATOM     13  HN  UNL     1     -22.078 -15.714  -6.422  1.00  0.00     0.163 HD
HETATM   14  C   UNL     1     -22.328 -16.766  -4.541  1.00  0.00     0.260 A 
HETATM   15  C   UNL     1     -22.380 -15.949  -3.245  1.00  0.00     0.432 C 
HETATM   16  C   UNL     1     -23.311 -16.469  -2.134  1.00  0.00     0.076 C 
HETATM   17  C   UNL     1     -24.803 -16.356  -2.440  1.00  0.00     0.059 C 
HETATM   18  C   UNL     1     -25.662 -16.624  -1.195  1.00  0.00    -0.014 C 
HETATM   19  C   UNL     1     -27.142 -16.515  -1.551  1.00  0.00     0.057 C 
HETATM   20  N   UNL     1     -27.939 -16.813  -0.374  1.00  0.00    -0.383 N 
ATOM     21  HN  UNL     1     -27.491 -17.142   0.481  1.00  0.00     0.160 HD
HETATM   22  C   UNL     1     -29.212 -16.658  -0.420  1.00  0.00     0.146 C 
HETATM   23  N   UNL     1     -29.927 -16.238  -1.503  1.00  0.00     0.000 N 
HETATM   24  N   UNL     1     -29.808 -16.878   0.779  1.00  0.00    -0.318 N 
ATOM     25  HN  UNL     1     -29.196 -16.925   1.593  1.00  0.00     0.169 HD
HETATM   26  C   UNL     1     -31.072 -17.033   0.994  1.00  0.00     0.241 C 
HETATM   27  N   UNL     1     -32.053 -17.033   0.046  1.00  0.00     0.000 N 
HETATM   28  N   UNL     1     -31.591 -17.183   2.260  1.00  0.00    -0.074 N 
HETATM   29  N   UNL     1     -19.614 -15.481  -6.649  1.00  0.00     0.000 NA
HETATM   30  N   UNL     1     -18.092 -16.110  -2.869  1.00  0.00     0.000 NA
HETATM   31 CL   UNL     1     -14.472  -9.509  -1.794  1.00  0.00    -0.093 Cl
HETATM   32  H   UNL     1     -18.655 -14.148  -5.351  1.00  0.00     0.289 HD
HETATM   33  H   UNL     1     -29.359 -15.826  -2.227  1.00  0.00     0.017 HD
HETATM   34  H   UNL     1     -30.660 -15.604  -1.202  1.00  0.00     0.017 HD
HETATM   35  H   UNL     1     -31.720 -17.334  -0.868  1.00  0.00     0.024 HD
HETATM   36  H   UNL     1     -32.956 -17.406   0.294  1.00  0.00     0.028 HD
HETATM   37  H   UNL     1     -32.352 -17.837   2.365  1.00  0.00     0.267 HD
HETATM   38  H   UNL     1     -18.713 -15.939  -6.740  1.00  0.00     0.000 HD
HETATM   39  H   UNL     1     -20.168 -15.602  -7.493  1.00  0.00     0.000 HD
HETATM   40  H   UNL     1     -18.526 -15.737  -2.030  1.00  0.00     0.000 HD
HETATM   41  H   UNL     1     -18.356 -17.097  -2.840  1.00  0.00     0.000 HD
HETATM   42  C   UNL     2     -15.792 -12.613  -3.204  1.00  0.00    -0.025 C 
HETATM   43  C   UNL     2     -17.525 -11.261  -3.165  1.00  0.00     0.008 C 
HETATM   44  C   UNL     2     -18.053  -9.823  -4.131  1.00  0.00     0.185 C 
HETATM   45  C   UNL     2     -19.019  -8.841  -3.306  1.00  0.00     0.004 C 
HETATM   46  C   UNL     2     -20.022  -7.918  -4.071  1.00  0.00     0.039 C 
HETATM   47  C   UNL     2     -20.183  -8.117  -5.566  1.00  0.00     0.052 C 
HETATM   48  O   UNL     2     -19.391  -8.656  -6.324  1.00  0.00    -0.656 OA
HETATM   49  O   UNL     2     -21.354  -7.624  -6.020  1.00  0.00    -0.962 OA
HETATM   50  O   UNL     2     -21.379  -8.007  -3.556  1.00  0.00     0.000 OA
HETATM   51  O   UNL     2     -19.724  -9.433  -2.209  1.00  0.00     0.000 OA
HETATM   52  O   UNL     2     -17.108  -8.956  -4.763  1.00  0.00     0.000 OA
HETATM   53  O   UNL     2     -19.077 -11.733  -3.105  1.00  0.00     0.000 OA
HETATM   54  O   UNL     2     -15.637 -14.045  -2.712  1.00  0.00     0.000 OA
HETATM   55  H   UNL     2     -21.832  -6.956  -5.482  1.00  0.00     0.013 HD
HETATM   56  H   UNL     2     -21.634  -8.949  -3.617  1.00  0.00     0.000 HD
HETATM   57  H   UNL     2     -19.748 -10.410  -2.314  1.00  0.00     0.000 HD
HETATM   58  H   UNL     2     -17.296  -8.987  -5.724  1.00  0.00     0.018 HD
HETATM   59  H   UNL     2     -19.332 -11.978  -4.017  1.00  0.00     0.018 HD
HETATM   60  H   UNL     2     -15.944 -14.654  -3.402  1.00  0.00     0.056 HD
HETATM   61  C   UNL     3     -15.594 -15.971  -0.430  1.00  0.00    -0.011 C 
HETATM   62  C   UNL     3     -14.290 -15.215  -0.171  1.00  0.00    -0.004 C 
HETATM   63  C   UNL     3     -13.178 -15.995   0.534  1.00  0.00     0.006 C 
HETATM   64  C   UNL     3     -11.835 -15.198   0.554  1.00  0.00     0.028 C 
HETATM   65  C   UNL     3     -11.903 -13.799   1.228  1.00  0.00     0.203 C 
HETATM   66  C   UNL     3     -10.546 -13.109   1.099  1.00  0.00     0.155 A 
HETATM   67  O   UNL     3      -9.557 -13.380   1.763  1.00  0.00    -0.356 OA
HETATM   68  O   UNL     3     -10.545 -12.127   0.160  1.00  0.00     0.000 OA
HETATM   69  O   UNL     3     -12.838 -12.896   0.586  1.00  0.00     0.000 OA
HETATM   70  O   UNL     3     -10.855 -16.036   1.179  1.00  0.00     0.000 OA
HETATM   71  O   UNL     3     -13.518 -16.384   1.869  1.00  0.00     0.000 OA
HETATM   72  O   UNL     3     -13.688 -14.681  -1.358  1.00  0.00     0.000 OA
HETATM   73  O   UNL     3     -15.413 -17.092  -1.283  1.00  0.00     0.000 OA
HETATM   74  H   UNL     3     -11.480 -11.959  -0.092  1.00  0.00     0.000 HD
HETATM   75  H   UNL     3     -13.043 -13.235  -0.317  1.00  0.00     0.000 HD
HETATM   76  H   UNL     3     -11.291 -16.449   1.950  1.00  0.00     0.000 HD
HETATM   77  H   UNL     3     -14.165 -15.756   2.230  1.00  0.00     0.000 HD
HETATM   78  H   UNL     3     -13.567 -15.429  -1.975  1.00  0.00     0.000 HD
HETATM   79  H   UNL     3     -15.941 -16.907  -2.084  1.00  0.00     0.000 HD
ENDROOT
BRANCH  28  80
HETATM   80  C   UNL     1     -30.821 -16.991   3.430  1.00  0.00     0.180 A 
HETATM   81  C   UNL     1     -31.427 -16.518   4.604  1.00  0.00     0.045 A 
HETATM   82  C   UNL     1     -30.674 -16.214   5.740  1.00  0.00     0.220 A 
HETATM   83  C   UNL     1     -29.297 -16.390   5.713  1.00  0.00    -0.006 A 
HETATM   84  C   UNL     1     -28.673 -16.872   4.563  1.00  0.00     0.014 A 
HETATM   85 CL   UNL     1     -28.363 -15.993   7.101  1.00  0.00    -0.093 Cl
HETATM   86  C   UNL     1     -29.432 -17.171   3.422  1.00  0.00     0.006 A 
ENDBRANCH  28  80
TORSDOF 3
BEGIN_RES ARG D 557
REMARK  4 active torsions:
REMARK  status: ('A' for Active; 'I' for Inactive)
REMARK    1  A    between atoms: CA   and  CB  
REMARK    2  A    between atoms: CB   and  CG  
REMARK    3  A    between atoms: CG   and  CD  
REMARK    4  A    between atoms: CD   and  NE  
REMARK       I    between atoms: NE   and  CZ  
REMARK       I    between atoms: CZ   and  NH1 
REMARK       I    between atoms: CZ   and  NH2 
ROOT
ATOM      1  CA  ARG D 557     -26.217   2.705 -17.014  1.00 35.49     0.159 C 
ENDROOT
BRANCH   1   2
ATOM      2  CB  ARG D 557     -26.789   1.319 -17.183  1.00 35.49     0.034 C 
BRANCH   2   3
ATOM      3  CG  ARG D 557     -28.231   1.227 -17.444  1.00 35.49     0.027 C 
BRANCH   3   4
ATOM      4  CD  ARG D 557     -28.913   0.295 -16.517  1.00 35.49     0.116 C 
BRANCH   4   5
ATOM      5  NE  ARG D 557     -29.231  -0.960 -17.146  1.00 35.49    -0.212 N 
ATOM      6  CZ  ARG D 557     -28.586  -2.092 -16.971  1.00 35.49     0.666 C 
ATOM      7  NH1 ARG D 557     -27.532  -2.193 -16.182  1.00 35.49    -0.235 N 
ATOM      8  NH2 ARG D 557     -29.026  -3.138 -17.607  1.00 35.49    -0.235 N 
ATOM      9  HH  ARG D 557     -27.226  -1.517 -15.752  1.00 35.49     0.174 HD
ATOM     10  HH  ARG D 557     -27.153  -2.957 -16.104  1.00 35.49     0.174 HD
ATOM     11  HH  ARG D 557     -29.713  -3.045 -18.104  1.00 35.49     0.174 HD
ATOM     12  HH  ARG D 557     -28.638  -3.887 -17.516  1.00 35.49     0.174 HD
ATOM     13  HE  ARG D 557     -29.851  -0.970 -17.727  1.00 35.49     0.178 HD
ENDBRANCH   4   5
ENDBRANCH   3   4
ENDBRANCH   2   3
ENDBRANCH   1   2
END_RES ARG D 557
BEGIN_RES GLU D 570
REMARK  3 active torsions:
REMARK  status: ('A' for Active; 'I' for Inactive)
REMARK    5  A    between atoms: CA   and  CB  
REMARK    6  A    between atoms: CB   and  CG  
REMARK    7  A    between atoms: CG   and  CD  
ROOT
ATOM     14  CA  GLU D 570     -18.033  -6.348 -13.375  1.00 32.92     0.160 C 
ENDROOT
BRANCH  14  15
ATOM     15  CB  GLU D 570     -19.500  -6.345 -13.794  1.00 32.92     0.043 C 
BRANCH  15  16
ATOM     16  CG  GLU D 570     -19.878  -5.502 -14.957  1.00 32.92     0.100 C 
BRANCH  16  17
ATOM     17  CD  GLU D 570     -21.370  -5.301 -15.080  1.00 32.92     0.185 C 
ATOM     18  OE1 GLU D 570     -21.803  -4.455 -15.886  1.00 32.92    -0.647 OA
ATOM     19  OE2 GLU D 570     -22.114  -5.986 -14.350  1.00 32.92    -0.647 OA
ENDBRANCH  16  17
ENDBRANCH  15  16
ENDBRANCH  14  15
END_RES GLU D 570
ENDMDL
