MODEL 1
REMARK VINA RESULT:      -4.7      0.000      0.000
REMARK WARNING: 32 MAX_TORS EXCEEDED!!!
REMARK  36 active torsions:
REMARK  status: ('A' for Active; 'I' for Inactive)
REMARK    1  A    between atoms: C_2  and  C_3 
REMARK    2  A    between atoms: C_2  and  O_55 
REMARK    3  A    between atoms: C_3  and  O_4 
REMARK    4  A    between atoms: O_4  and  C_5 
REMARK    5  A    between atoms: C_5  and  C_6 
REMARK    6  A    between atoms: C_7  and  O_50 
REMARK    7  A    between atoms: C_8  and  O_45 
REMARK    8  A    between atoms: C_9  and  O_40 
REMARK    9  A    between atoms: C_10  and  O_12 
REMARK   10  A    between atoms: O_12  and  C_13 
REMARK   11  A    between atoms: C_14  and  C_34 
REMARK   12  A    between atoms: C_16  and  O_29 
REMARK   13  A    between atoms: C_17  and  O_24 
REMARK   14  A    between atoms: C_18  and  O_19 
REMARK   15  A    between atoms: O_19  and  C_20 
REMARK   16  A    between atoms: C_20  and  C_21 
REMARK   17  A    between atoms: C_21  and  O_23 
REMARK   18  A    between atoms: O_24  and  C_25 
REMARK   19  A    between atoms: C_25  and  C_26 
REMARK   20  A    between atoms: C_26  and  O_28 
REMARK   21  A    between atoms: O_29  and  C_30 
REMARK   22  A    between atoms: C_30  and  C_31 
REMARK   23  A    between atoms: C_31  and  O_33 
REMARK   24  A    between atoms: C_34  and  O_35 
REMARK   25  A    between atoms: O_35  and  C_36 
REMARK   26  A    between atoms: C_36  and  C_37 
REMARK   27  A    between atoms: C_37  and  O_39 
REMARK   28  A    between atoms: O_40  and  C_41 
REMARK   29  A    between atoms: C_41  and  C_42 
REMARK   30  A    between atoms: C_42  and  O_44 
REMARK   31  A    between atoms: O_45  and  C_46 
REMARK   32  A    between atoms: C_46  and  C_47 
REMARK   33  A    between atoms: C_47  and  O_49 
REMARK   34  A    between atoms: O_50  and  C_51 
REMARK   35  A    between atoms: C_51  and  C_52 
REMARK   36  A    between atoms: C_52  and  O_54 
ROOT
HETATM    1  O   UNL     1     -20.432 -13.094  -3.380  1.00  0.00    -0.348 OA
ENDROOT
BRANCH   1   2
HETATM    2  C   UNL     1     -19.934 -11.760  -3.574  1.00  0.00     0.292 C 
HETATM    3  C   UNL     1     -20.915 -10.650  -3.082  1.00  0.00     0.208 C 
HETATM    4  C   UNL     1     -20.257  -9.287  -3.459  1.00  0.00     0.186 C 
HETATM    5  C   UNL     1     -20.230  -9.203  -4.995  1.00  0.00     0.184 C 
HETATM    6  C   UNL     1     -19.321 -10.332  -5.517  1.00  0.00     0.180 C 
HETATM    7  O   UNL     1     -19.381 -11.603  -4.867  1.00  0.00    -0.348 OA
BRANCH   3   8
HETATM    8  O   UNL     1     -22.323 -10.829  -3.325  1.00  0.00    -0.376 OA
BRANCH   8   9
HETATM    9  C   UNL     1     -23.264 -11.232  -2.348  1.00  0.00     0.199 C 
BRANCH   9  10
HETATM   10  C   UNL     1     -22.678 -11.681  -1.010  1.00  0.00     0.138 C 
HETATM   11  C   UNL     1     -23.675 -11.409   0.087  1.00  0.00     0.041 C 
BRANCH  10  12
HETATM   12  O   UNL     1     -22.298 -13.052  -1.081  1.00  0.00    -0.394 OA
HETATM   13  H   UNL     1     -22.897 -13.565  -0.513  1.00  0.00     0.210 HD
ENDBRANCH  10  12
ENDBRANCH   9  10
ENDBRANCH   8   9
ENDBRANCH   3   8
BRANCH   4  14
HETATM   14  O   UNL     1     -20.883  -8.203  -2.762  1.00  0.00    -0.378 OA
BRANCH  14  15
HETATM   15  C   UNL     1     -20.862  -8.386  -1.335  1.00  0.00     0.199 C 
BRANCH  15  16
HETATM   16  C   UNL     1     -22.192  -7.968  -0.694  1.00  0.00     0.138 C 
HETATM   17  C   UNL     1     -22.153  -7.976   0.824  1.00  0.00     0.041 C 
BRANCH  16  18
HETATM   18  O   UNL     1     -22.565  -6.664  -1.146  1.00  0.00    -0.394 OA
HETATM   19  H   UNL     1     -21.738  -6.170  -1.293  1.00  0.00     0.210 HD
ENDBRANCH  16  18
ENDBRANCH  15  16
ENDBRANCH  14  15
ENDBRANCH   4  14
BRANCH   5  20
HETATM   20  O   UNL     1     -19.896  -7.932  -5.594  1.00  0.00    -0.378 OA
BRANCH  20  21
HETATM   21  C   UNL     1     -21.109  -7.303  -6.083  1.00  0.00     0.199 C 
BRANCH  21  22
HETATM   22  C   UNL     1     -21.375  -5.952  -5.417  1.00  0.00     0.138 C 
HETATM   23  C   UNL     1     -22.091  -5.031  -6.401  1.00  0.00     0.041 C 
BRANCH  22  24
HETATM   24  O   UNL     1     -22.200  -6.090  -4.261  1.00  0.00    -0.394 OA
HETATM   25  H   UNL     1     -23.040  -5.628  -4.425  1.00  0.00     0.210 HD
ENDBRANCH  22  24
ENDBRANCH  21  22
ENDBRANCH  20  21
ENDBRANCH   5  20
BRANCH   6  26
HETATM   26  C   UNL     1     -17.879  -9.829  -5.610  1.00  0.00     0.202 C 
BRANCH  26  27
HETATM   27  O   UNL     1     -16.986 -10.936  -5.631  1.00  0.00    -0.386 OA
BRANCH  27  28
HETATM   28  C   UNL     1     -15.764 -10.591  -4.973  1.00  0.00     0.199 C 
BRANCH  28  29
HETATM   29  C   UNL     1     -15.974 -10.731  -3.470  1.00  0.00     0.138 C 
HETATM   30  C   UNL     1     -15.923  -9.386  -2.758  1.00  0.00     0.041 C 
BRANCH  29  31
HETATM   31  O   UNL     1     -14.941 -11.567  -2.943  1.00  0.00    -0.394 OA
HETATM   32  H   UNL     1     -15.083 -12.442  -3.353  1.00  0.00     0.210 HD
ENDBRANCH  29  31
ENDBRANCH  28  29
ENDBRANCH  27  28
ENDBRANCH  26  27
ENDBRANCH   6  26
ENDBRANCH   1   2
BRANCH   1  33
HETATM   33  C   UNL     1     -19.457 -14.185  -3.320  1.00  0.00     0.187 C 
HETATM   34  C   UNL     1     -19.220 -14.957  -4.678  1.00  0.00     0.180 C 
HETATM   35  O   UNL     1     -17.924 -15.579  -4.803  1.00  0.00    -0.348 OA
HETATM   36  C   UNL     1     -16.856 -14.697  -4.502  1.00  0.00     0.291 C 
HETATM   37  C   UNL     1     -16.868 -14.477  -2.975  1.00  0.00     0.208 C 
HETATM   38  C   UNL     1     -18.131 -13.621  -2.674  1.00  0.00     0.186 C 
BRANCH  34  39
HETATM   39  C   UNL     1     -19.561 -14.308  -6.043  1.00  0.00     0.202 C 
BRANCH  39  40
HETATM   40  O   UNL     1     -20.557 -15.006  -6.808  1.00  0.00    -0.386 OA
BRANCH  40  41
HETATM   41  C   UNL     1     -21.710 -15.271  -5.991  1.00  0.00     0.199 C 
BRANCH  41  42
HETATM   42  C   UNL     1     -22.851 -14.258  -6.178  1.00  0.00     0.138 C 
HETATM   43  C   UNL     1     -24.246 -14.869  -6.149  1.00  0.00     0.041 C 
BRANCH  42  44
HETATM   44  O   UNL     1     -22.769 -13.273  -5.138  1.00  0.00    -0.394 OA
HETATM   45  H   UNL     1     -22.372 -13.685  -4.352  1.00  0.00     0.210 HD
ENDBRANCH  42  44
ENDBRANCH  41  42
ENDBRANCH  40  41
ENDBRANCH  39  40
ENDBRANCH  34  39
BRANCH  36  46
HETATM   46  O   UNL     1     -15.586 -15.231  -4.886  1.00  0.00    -0.356 OA
BRANCH  46  47
HETATM   47  C   UNL     1     -14.602 -14.236  -5.165  1.00  0.00     0.202 C 
BRANCH  47  48
HETATM   48  C   UNL     1     -13.246 -14.924  -5.407  1.00  0.00     0.138 C 
HETATM   49  C   UNL     1     -12.851 -15.882  -4.288  1.00  0.00     0.041 C 
BRANCH  48  50
HETATM   50  O   UNL     1     -13.280 -15.663  -6.628  1.00  0.00    -0.394 OA
HETATM   51  H   UNL     1     -12.408 -16.087  -6.725  1.00  0.00     0.210 HD
ENDBRANCH  48  50
ENDBRANCH  47  48
ENDBRANCH  46  47
ENDBRANCH  36  46
BRANCH  37  52
HETATM   52  O   UNL     1     -16.831 -15.718  -2.192  1.00  0.00    -0.376 OA
BRANCH  52  53
HETATM   53  C   UNL     1     -15.496 -16.019  -1.726  1.00  0.00     0.199 C 
BRANCH  53  54
HETATM   54  C   UNL     1     -14.920 -15.003  -0.727  1.00  0.00     0.138 C 
HETATM   55  C   UNL     1     -14.022 -15.622   0.330  1.00  0.00     0.041 C 
BRANCH  54  56
HETATM   56  O   UNL     1     -14.183 -13.994  -1.415  1.00  0.00    -0.394 OA
HETATM   57  H   UNL     1     -13.290 -13.997  -1.023  1.00  0.00     0.210 HD
ENDBRANCH  54  56
ENDBRANCH  53  54
ENDBRANCH  52  53
ENDBRANCH  37  52
BRANCH  38  58
HETATM   58  O   UNL     1     -18.262 -13.363  -1.232  1.00  0.00    -0.378 OA
BRANCH  58  59
HETATM   59  C   UNL     1     -17.805 -12.041  -0.879  1.00  0.00     0.199 C 
BRANCH  59  60
HETATM   60  C   UNL     1     -16.915 -11.935   0.381  1.00  0.00     0.138 C 
HETATM   61  C   UNL     1     -16.898 -13.147   1.294  1.00  0.00     0.041 C 
BRANCH  60  62
HETATM   62  O   UNL     1     -15.574 -11.584   0.048  1.00  0.00    -0.394 OA
HETATM   63  H   UNL     1     -15.541 -11.443  -0.917  1.00  0.00     0.210 HD
ENDBRANCH  60  62
ENDBRANCH  59  60
ENDBRANCH  58  59
ENDBRANCH  38  58
ENDBRANCH   1  33
TORSDOF 36
BEGIN_RES ARG D 557
REMARK  4 active torsions:
REMARK  status: ('A' for Active; 'I' for Inactive)
REMARK    1  A    between atoms: CA   and  CB  
REMARK    2  A    between atoms: CB   and  CG  
REMARK    3  A    between atoms: CG   and  CD  
REMARK    4  A    between atoms: CD   and  NE  
REMARK       I    between atoms: NE   and  CZ  
REMARK       I    between atoms: CZ   and  NH1 
REMARK       I    between atoms: CZ   and  NH2 
ROOT
ATOM      1  CA  ARG D 557     -26.217   2.705 -17.014  1.00 35.49     0.159 C 
ENDROOT
BRANCH   1   2
ATOM      2  CB  ARG D 557     -26.789   1.319 -17.183  1.00 35.49     0.034 C 
BRANCH   2   3
ATOM      3  CG  ARG D 557     -28.233   1.226 -17.429  1.00 35.49     0.027 C 
BRANCH   3   4
ATOM      4  CD  ARG D 557     -28.906   0.297 -16.493  1.00 35.49     0.116 C 
BRANCH   4   5
ATOM      5  NE  ARG D 557     -29.297  -0.931 -17.135  1.00 35.49    -0.212 N 
ATOM      6  CZ  ARG D 557     -28.672  -2.083 -17.034  1.00 35.49     0.666 C 
ATOM      7  NH1 ARG D 557     -27.572  -2.232 -16.320  1.00 35.49    -0.235 N 
ATOM      8  NH2 ARG D 557     -29.180  -3.099 -17.669  1.00 35.49    -0.235 N 
ATOM      9  HH  ARG D 557     -27.221  -1.578 -15.892  1.00 35.49     0.174 HD
ATOM     10  HH  ARG D 557     -27.209  -3.008 -16.289  1.00 35.49     0.174 HD
ATOM     11  HH  ARG D 557     -29.895  -2.974 -18.116  1.00 35.49     0.174 HD
ATOM     12  HH  ARG D 557     -28.807  -3.859 -17.625  1.00 35.49     0.174 HD
ATOM     13  HE  ARG D 557     -29.955  -0.908 -17.673  1.00 35.49     0.178 HD
ENDBRANCH   4   5
ENDBRANCH   3   4
ENDBRANCH   2   3
ENDBRANCH   1   2
END_RES ARG D 557
BEGIN_RES GLU D 570
REMARK  3 active torsions:
REMARK  status: ('A' for Active; 'I' for Inactive)
REMARK    5  A    between atoms: CA   and  CB  
REMARK    6  A    between atoms: CB   and  CG  
REMARK    7  A    between atoms: CG   and  CD  
ROOT
ATOM     14  CA  GLU D 570     -18.033  -6.348 -13.375  1.00 32.92     0.160 C 
ENDROOT
BRANCH  14  15
ATOM     15  CB  GLU D 570     -19.500  -6.345 -13.794  1.00 32.92     0.043 C 
BRANCH  15  16
ATOM     16  CG  GLU D 570     -20.448  -5.558 -12.963  1.00 32.92     0.100 C 
BRANCH  16  17
ATOM     17  CD  GLU D 570     -21.703  -5.169 -13.709  1.00 32.92     0.185 C 
ATOM     18  OE1 GLU D 570     -21.642  -4.983 -14.940  1.00 32.92    -0.647 OA
ATOM     19  OE2 GLU D 570     -22.754  -5.033 -13.053  1.00 32.92    -0.647 OA
ENDBRANCH  16  17
ENDBRANCH  15  16
ENDBRANCH  14  15
END_RES GLU D 570
ENDMDL
MODEL 2
REMARK VINA RESULT:      -4.7      1.839      2.527
REMARK WARNING: 32 MAX_TORS EXCEEDED!!!
REMARK  36 active torsions:
REMARK  status: ('A' for Active; 'I' for Inactive)
REMARK    1  A    between atoms: C_2  and  C_3 
REMARK    2  A    between atoms: C_2  and  O_55 
REMARK    3  A    between atoms: C_3  and  O_4 
REMARK    4  A    between atoms: O_4  and  C_5 
REMARK    5  A    between atoms: C_5  and  C_6 
REMARK    6  A    between atoms: C_7  and  O_50 
REMARK    7  A    between atoms: C_8  and  O_45 
REMARK    8  A    between atoms: C_9  and  O_40 
REMARK    9  A    between atoms: C_10  and  O_12 
REMARK   10  A    between atoms: O_12  and  C_13 
REMARK   11  A    between atoms: C_14  and  C_34 
REMARK   12  A    between atoms: C_16  and  O_29 
REMARK   13  A    between atoms: C_17  and  O_24 
REMARK   14  A    between atoms: C_18  and  O_19 
REMARK   15  A    between atoms: O_19  and  C_20 
REMARK   16  A    between atoms: C_20  and  C_21 
REMARK   17  A    between atoms: C_21  and  O_23 
REMARK   18  A    between atoms: O_24  and  C_25 
REMARK   19  A    between atoms: C_25  and  C_26 
REMARK   20  A    between atoms: C_26  and  O_28 
REMARK   21  A    between atoms: O_29  and  C_30 
REMARK   22  A    between atoms: C_30  and  C_31 
REMARK   23  A    between atoms: C_31  and  O_33 
REMARK   24  A    between atoms: C_34  and  O_35 
REMARK   25  A    between atoms: O_35  and  C_36 
REMARK   26  A    between atoms: C_36  and  C_37 
REMARK   27  A    between atoms: C_37  and  O_39 
REMARK   28  A    between atoms: O_40  and  C_41 
REMARK   29  A    between atoms: C_41  and  C_42 
REMARK   30  A    between atoms: C_42  and  O_44 
REMARK   31  A    between atoms: O_45  and  C_46 
REMARK   32  A    between atoms: C_46  and  C_47 
REMARK   33  A    between atoms: C_47  and  O_49 
REMARK   34  A    between atoms: O_50  and  C_51 
REMARK   35  A    between atoms: C_51  and  C_52 
REMARK   36  A    between atoms: C_52  and  O_54 
ROOT
HETATM    1  O   UNL     1     -20.736 -13.135  -3.162  1.00  0.00    -0.348 OA
ENDROOT
BRANCH   1   2
HETATM    2  C   UNL     1     -20.092 -11.865  -3.360  1.00  0.00     0.292 C 
HETATM    3  C   UNL     1     -20.955 -10.650  -2.896  1.00  0.00     0.208 C 
HETATM    4  C   UNL     1     -20.146  -9.371  -3.274  1.00  0.00     0.186 C 
HETATM    5  C   UNL     1     -20.083  -9.309  -4.810  1.00  0.00     0.184 C 
HETATM    6  C   UNL     1     -19.294 -10.536  -5.305  1.00  0.00     0.180 C 
HETATM    7  O   UNL     1     -19.503 -11.785  -4.644  1.00  0.00    -0.348 OA
BRANCH   3   8
HETATM    8  O   UNL     1     -22.369 -10.677  -3.164  1.00  0.00    -0.376 OA
BRANCH   8   9
HETATM    9  C   UNL     1     -23.332 -11.305  -2.339  1.00  0.00     0.199 C 
BRANCH   9  10
HETATM   10  C   UNL     1     -22.906 -11.549  -0.891  1.00  0.00     0.138 C 
HETATM   11  C   UNL     1     -24.032 -11.160   0.032  1.00  0.00     0.041 C 
BRANCH  10  12
HETATM   12  O   UNL     1     -22.502 -12.905  -0.726  1.00  0.00    -0.394 OA
HETATM   13  H   UNL     1     -22.842 -13.419  -1.477  1.00  0.00     0.210 HD
ENDBRANCH  10  12
ENDBRANCH   9  10
ENDBRANCH   8   9
ENDBRANCH   3   8
BRANCH   4  14
HETATM   14  O   UNL     1     -20.662  -8.217  -2.600  1.00  0.00    -0.378 OA
BRANCH  14  15
HETATM   15  C   UNL     1     -20.819  -8.436  -1.187  1.00  0.00     0.199 C 
BRANCH  15  16
HETATM   16  C   UNL     1     -22.190  -7.955  -0.692  1.00  0.00     0.138 C 
HETATM   17  C   UNL     1     -22.324  -7.981   0.820  1.00  0.00     0.041 C 
BRANCH  16  18
HETATM   18  O   UNL     1     -22.442  -6.629  -1.162  1.00  0.00    -0.394 OA
HETATM   19  H   UNL     1     -23.260  -6.668  -1.690  1.00  0.00     0.210 HD
ENDBRANCH  16  18
ENDBRANCH  15  16
ENDBRANCH  14  15
ENDBRANCH   4  14
BRANCH   5  20
HETATM   20  O   UNL     1     -19.602  -8.089  -5.416  1.00  0.00    -0.378 OA
BRANCH  20  21
HETATM   21  C   UNL     1     -20.736  -7.295  -5.853  1.00  0.00     0.199 C 
BRANCH  21  22
HETATM   22  C   UNL     1     -20.810  -5.943  -5.141  1.00  0.00     0.138 C 
HETATM   23  C   UNL     1     -21.189  -4.858  -6.145  1.00  0.00     0.041 C 
BRANCH  22  24
HETATM   24  O   UNL     1     -21.791  -5.948  -4.105  1.00  0.00    -0.394 OA
HETATM   25  H   UNL     1     -21.432  -6.432  -3.343  1.00  0.00     0.210 HD
ENDBRANCH  22  24
ENDBRANCH  21  22
ENDBRANCH  20  21
ENDBRANCH   5  20
BRANCH   6  26
HETATM   26  C   UNL     1     -17.804 -10.194  -5.377  1.00  0.00     0.202 C 
BRANCH  26  27
HETATM   27  O   UNL     1     -17.041 -11.393  -5.442  1.00  0.00    -0.386 OA
BRANCH  27  28
HETATM   28  C   UNL     1     -15.644 -11.085  -5.418  1.00  0.00     0.199 C 
BRANCH  28  29
HETATM   29  C   UNL     1     -14.883 -12.350  -5.040  1.00  0.00     0.138 C 
HETATM   30  C   UNL     1     -13.412 -12.268  -5.422  1.00  0.00     0.041 C 
BRANCH  29  31
HETATM   31  O   UNL     1     -15.473 -13.457  -5.726  1.00  0.00    -0.394 OA
HETATM   32  H   UNL     1     -16.238 -13.085  -6.206  1.00  0.00     0.210 HD
ENDBRANCH  29  31
ENDBRANCH  28  29
ENDBRANCH  27  28
ENDBRANCH  26  27
ENDBRANCH   6  26
ENDBRANCH   1   2
BRANCH   1  33
HETATM   33  C   UNL     1     -19.907 -14.260  -2.724  1.00  0.00     0.187 C 
HETATM   34  C   UNL     1     -19.501 -15.283  -3.858  1.00  0.00     0.180 C 
HETATM   35  O   UNL     1     -18.276 -16.004  -3.611  1.00  0.00    -0.348 OA
HETATM   36  C   UNL     1     -17.198 -15.157  -3.251  1.00  0.00     0.291 C 
HETATM   37  C   UNL     1     -17.474 -14.660  -1.816  1.00  0.00     0.208 C 
HETATM   38  C   UNL     1     -18.676 -13.679  -1.926  1.00  0.00     0.186 C 
BRANCH  34  39
HETATM   39  C   UNL     1     -19.511 -14.874  -5.352  1.00  0.00     0.202 C 
BRANCH  39  40
HETATM   40  O   UNL     1     -18.218 -14.580  -5.904  1.00  0.00    -0.386 OA
BRANCH  40  41
HETATM   41  C   UNL     1     -18.028 -15.309  -7.129  1.00  0.00     0.199 C 
BRANCH  41  42
HETATM   42  C   UNL     1     -17.563 -14.438  -8.307  1.00  0.00     0.138 C 
HETATM   43  C   UNL     1     -18.494 -14.460  -9.511  1.00  0.00     0.041 C 
BRANCH  42  44
HETATM   44  O   UNL     1     -17.440 -13.081  -7.856  1.00  0.00    -0.394 OA
HETATM   45  H   UNL     1     -17.097 -13.086  -6.946  1.00  0.00     0.210 HD
ENDBRANCH  42  44
ENDBRANCH  41  42
ENDBRANCH  40  41
ENDBRANCH  39  40
ENDBRANCH  34  39
BRANCH  36  46
HETATM   46  O   UNL     1     -15.941 -15.838  -3.274  1.00  0.00    -0.356 OA
BRANCH  46  47
HETATM   47  C   UNL     1     -14.879 -15.110  -2.659  1.00  0.00     0.202 C 
BRANCH  47  48
HETATM   48  C   UNL     1     -13.552 -15.482  -3.345  1.00  0.00     0.138 C 
HETATM   49  C   UNL     1     -12.354 -14.715  -2.794  1.00  0.00     0.041 C 
BRANCH  48  50
HETATM   50  O   UNL     1     -13.291 -16.877  -3.190  1.00  0.00    -0.394 OA
HETATM   51  H   UNL     1     -14.055 -17.350  -3.566  1.00  0.00     0.210 HD
ENDBRANCH  48  50
ENDBRANCH  47  48
ENDBRANCH  46  47
ENDBRANCH  36  46
BRANCH  37  52
HETATM   52  O   UNL     1     -17.713 -15.735  -0.847  1.00  0.00    -0.376 OA
BRANCH  52  53
HETATM   53  C   UNL     1     -16.720 -15.741   0.204  1.00  0.00     0.199 C 
BRANCH  53  54
HETATM   54  C   UNL     1     -17.292 -15.651   1.628  1.00  0.00     0.138 C 
HETATM   55  C   UNL     1     -16.425 -14.859   2.590  1.00  0.00     0.041 C 
BRANCH  54  56
HETATM   56  O   UNL     1     -18.594 -15.069   1.605  1.00  0.00    -0.394 OA
HETATM   57  H   UNL     1     -18.808 -14.923   0.664  1.00  0.00     0.210 HD
ENDBRANCH  54  56
ENDBRANCH  53  54
ENDBRANCH  52  53
ENDBRANCH  37  52
BRANCH  38  58
HETATM   58  O   UNL     1     -19.048 -13.152  -0.604  1.00  0.00    -0.378 OA
BRANCH  58  59
HETATM   59  C   UNL     1     -18.336 -11.938  -0.290  1.00  0.00     0.199 C 
BRANCH  59  60
HETATM   60  C   UNL     1     -16.809 -12.070  -0.085  1.00  0.00     0.138 C 
HETATM   61  C   UNL     1     -15.932 -11.390  -1.120  1.00  0.00     0.041 C 
BRANCH  60  62
HETATM   62  O   UNL     1     -16.415 -11.638   1.216  1.00  0.00    -0.394 OA
HETATM   63  H   UNL     1     -17.017 -10.916   1.477  1.00  0.00     0.210 HD
ENDBRANCH  60  62
ENDBRANCH  59  60
ENDBRANCH  58  59
ENDBRANCH  38  58
ENDBRANCH   1  33
TORSDOF 36
BEGIN_RES ARG D 557
REMARK  4 active torsions:
REMARK  status: ('A' for Active; 'I' for Inactive)
REMARK    1  A    between atoms: CA   and  CB  
REMARK    2  A    between atoms: CB   and  CG  
REMARK    3  A    between atoms: CG   and  CD  
REMARK    4  A    between atoms: CD   and  NE  
REMARK       I    between atoms: NE   and  CZ  
REMARK       I    between atoms: CZ   and  NH1 
REMARK       I    between atoms: CZ   and  NH2 
ROOT
ATOM      1  CA  ARG D 557     -26.217   2.705 -17.014  1.00 35.49     0.159 C 
ENDROOT
BRANCH   1   2
ATOM      2  CB  ARG D 557     -26.789   1.319 -17.183  1.00 35.49     0.034 C 
BRANCH   2   3
ATOM      3  CG  ARG D 557     -25.864   0.195 -16.996  1.00 35.49     0.027 C 
BRANCH   3   4
ATOM      4  CD  ARG D 557     -26.266  -0.687 -15.876  1.00 35.49     0.116 C 
BRANCH   4   5
ATOM      5  NE  ARG D 557     -25.196  -0.890 -14.935  1.00 35.49    -0.212 N 
ATOM      6  CZ  ARG D 557     -24.881  -2.032 -14.366  1.00 35.49     0.666 C 
ATOM      7  NH1 ARG D 557     -25.547  -3.148 -14.598  1.00 35.49    -0.235 N 
ATOM      8  NH2 ARG D 557     -23.865  -2.036 -13.552  1.00 35.49    -0.235 N 
ATOM      9  HH  ARG D 557     -26.217  -3.169 -15.132  1.00 35.49     0.174 HD
ATOM     10  HH  ARG D 557     -25.293  -3.863 -14.200  1.00 35.49     0.174 HD
ATOM     11  HH  ARG D 557     -23.450  -1.302 -13.427  1.00 35.49     0.174 HD
ATOM     12  HH  ARG D 557     -23.629  -2.755 -13.168  1.00 35.49     0.174 HD
ATOM     13  HE  ARG D 557     -24.761  -0.209 -14.672  1.00 35.49     0.178 HD
ENDBRANCH   4   5
ENDBRANCH   3   4
ENDBRANCH   2   3
ENDBRANCH   1   2
END_RES ARG D 557
BEGIN_RES GLU D 570
REMARK  3 active torsions:
REMARK  status: ('A' for Active; 'I' for Inactive)
REMARK    5  A    between atoms: CA   and  CB  
REMARK    6  A    between atoms: CB   and  CG  
REMARK    7  A    between atoms: CG   and  CD  
ROOT
ATOM     14  CA  GLU D 570     -18.033  -6.348 -13.375  1.00 32.92     0.160 C 
ENDROOT
BRANCH  14  15
ATOM     15  CB  GLU D 570     -19.500  -6.345 -13.794  1.00 32.92     0.043 C 
BRANCH  15  16
ATOM     16  CG  GLU D 570     -20.447  -5.557 -12.964  1.00 32.92     0.100 C 
BRANCH  16  17
ATOM     17  CD  GLU D 570     -21.687  -5.139 -13.721  1.00 32.92     0.185 C 
ATOM     18  OE1 GLU D 570     -22.719  -4.858 -13.082  1.00 32.92    -0.647 OA
ATOM     19  OE2 GLU D 570     -21.630  -5.109 -14.966  1.00 32.92    -0.647 OA
ENDBRANCH  16  17
ENDBRANCH  15  16
ENDBRANCH  14  15
END_RES GLU D 570
ENDMDL
MODEL 3
REMARK VINA RESULT:      -4.6      1.825      7.895
REMARK WARNING: 32 MAX_TORS EXCEEDED!!!
REMARK  36 active torsions:
REMARK  status: ('A' for Active; 'I' for Inactive)
REMARK    1  A    between atoms: C_2  and  C_3 
REMARK    2  A    between atoms: C_2  and  O_55 
REMARK    3  A    between atoms: C_3  and  O_4 
REMARK    4  A    between atoms: O_4  and  C_5 
REMARK    5  A    between atoms: C_5  and  C_6 
REMARK    6  A    between atoms: C_7  and  O_50 
REMARK    7  A    between atoms: C_8  and  O_45 
REMARK    8  A    between atoms: C_9  and  O_40 
REMARK    9  A    between atoms: C_10  and  O_12 
REMARK   10  A    between atoms: O_12  and  C_13 
REMARK   11  A    between atoms: C_14  and  C_34 
REMARK   12  A    between atoms: C_16  and  O_29 
REMARK   13  A    between atoms: C_17  and  O_24 
REMARK   14  A    between atoms: C_18  and  O_19 
REMARK   15  A    between atoms: O_19  and  C_20 
REMARK   16  A    between atoms: C_20  and  C_21 
REMARK   17  A    between atoms: C_21  and  O_23 
REMARK   18  A    between atoms: O_24  and  C_25 
REMARK   19  A    between atoms: C_25  and  C_26 
REMARK   20  A    between atoms: C_26  and  O_28 
REMARK   21  A    between atoms: O_29  and  C_30 
REMARK   22  A    between atoms: C_30  and  C_31 
REMARK   23  A    between atoms: C_31  and  O_33 
REMARK   24  A    between atoms: C_34  and  O_35 
REMARK   25  A    between atoms: O_35  and  C_36 
REMARK   26  A    between atoms: C_36  and  C_37 
REMARK   27  A    between atoms: C_37  and  O_39 
REMARK   28  A    between atoms: O_40  and  C_41 
REMARK   29  A    between atoms: C_41  and  C_42 
REMARK   30  A    between atoms: C_42  and  O_44 
REMARK   31  A    between atoms: O_45  and  C_46 
REMARK   32  A    between atoms: C_46  and  C_47 
REMARK   33  A    between atoms: C_47  and  O_49 
REMARK   34  A    between atoms: O_50  and  C_51 
REMARK   35  A    between atoms: C_51  and  C_52 
REMARK   36  A    between atoms: C_52  and  O_54 
ROOT
HETATM    1  O   UNL     1     -19.360 -10.324  -1.625  1.00  0.00    -0.348 OA
ENDROOT
BRANCH   1   2
HETATM    2  C   UNL     1     -19.185 -11.511  -0.833  1.00  0.00     0.292 C 
HETATM    3  C   UNL     1     -17.702 -11.989  -0.745  1.00  0.00     0.208 C 
HETATM    4  C   UNL     1     -17.720 -13.324   0.061  1.00  0.00     0.186 C 
HETATM    5  C   UNL     1     -18.469 -14.361  -0.794  1.00  0.00     0.184 C 
HETATM    6  C   UNL     1     -19.924 -13.883  -0.958  1.00  0.00     0.180 C 
HETATM    7  O   UNL     1     -20.158 -12.487  -1.152  1.00  0.00    -0.348 OA
BRANCH   3   8
HETATM    8  O   UNL     1     -16.889 -11.908  -1.930  1.00  0.00    -0.376 OA
BRANCH   8   9
HETATM    9  C   UNL     1     -15.699 -11.151  -2.040  1.00  0.00     0.199 C 
BRANCH   9  10
HETATM   10  C   UNL     1     -15.801  -9.872  -2.871  1.00  0.00     0.138 C 
HETATM   11  C   UNL     1     -15.611 -10.208  -4.328  1.00  0.00     0.041 C 
BRANCH  10  12
HETATM   12  O   UNL     1     -17.042  -9.222  -2.612  1.00  0.00    -0.394 OA
HETATM   13  H   UNL     1     -17.156  -8.511  -3.264  1.00  0.00     0.210 HD
ENDBRANCH  10  12
ENDBRANCH   9  10
ENDBRANCH   8   9
ENDBRANCH   3   8
BRANCH   4  14
HETATM   14  O   UNL     1     -16.405 -13.678   0.503  1.00  0.00    -0.378 OA
BRANCH  14  15
HETATM   15  C   UNL     1     -16.112 -13.161   1.814  1.00  0.00     0.199 C 
BRANCH  15  16
HETATM   16  C   UNL     1     -14.972 -13.939   2.484  1.00  0.00     0.138 C 
HETATM   17  C   UNL     1     -15.454 -14.917   3.540  1.00  0.00     0.041 C 
BRANCH  16  18
HETATM   18  O   UNL     1     -14.217 -14.648   1.498  1.00  0.00    -0.394 OA
HETATM   19  H   UNL     1     -14.850 -14.949   0.822  1.00  0.00     0.210 HD
ENDBRANCH  16  18
ENDBRANCH  15  16
ENDBRANCH  14  15
ENDBRANCH   4  14
BRANCH   5  20
HETATM   20  O   UNL     1     -18.408 -15.745  -0.382  1.00  0.00    -0.378 OA
BRANCH  20  21
HETATM   21  C   UNL     1     -17.691 -16.509  -1.385  1.00  0.00     0.199 C 
BRANCH  21  22
HETATM   22  C   UNL     1     -16.301 -16.937  -0.909  1.00  0.00     0.138 C 
HETATM   23  C   UNL     1     -15.238 -16.184  -1.703  1.00  0.00     0.041 C 
BRANCH  22  24
HETATM   24  O   UNL     1     -16.107 -16.647   0.474  1.00  0.00    -0.394 OA
HETATM   25  H   UNL     1     -16.932 -16.274   0.829  1.00  0.00     0.210 HD
ENDBRANCH  22  24
ENDBRANCH  21  22
ENDBRANCH  20  21
ENDBRANCH   5  20
BRANCH   6  26
HETATM   26  C   UNL     1     -20.777 -14.429   0.190  1.00  0.00     0.202 C 
BRANCH  26  27
HETATM   27  O   UNL     1     -21.572 -13.383   0.735  1.00  0.00    -0.386 OA
BRANCH  27  28
HETATM   28  C   UNL     1     -22.959 -13.714   0.622  1.00  0.00     0.199 C 
BRANCH  28  29
HETATM   29  C   UNL     1     -23.489 -13.116  -0.676  1.00  0.00     0.138 C 
HETATM   30  C   UNL     1     -23.919 -11.666  -0.504  1.00  0.00     0.041 C 
BRANCH  29  31
HETATM   31  O   UNL     1     -24.620 -13.881  -1.099  1.00  0.00    -0.394 OA
HETATM   32  H   UNL     1     -25.003 -14.251  -0.281  1.00  0.00     0.210 HD
ENDBRANCH  29  31
ENDBRANCH  28  29
ENDBRANCH  27  28
ENDBRANCH  26  27
ENDBRANCH   6  26
ENDBRANCH   1   2
BRANCH   1  33
HETATM   33  C   UNL     1     -20.368 -10.355  -2.688  1.00  0.00     0.187 C 
HETATM   34  C   UNL     1     -21.320  -9.096  -2.754  1.00  0.00     0.180 C 
HETATM   35  O   UNL     1     -21.873  -8.824  -4.058  1.00  0.00    -0.348 OA
HETATM   36  C   UNL     1     -20.892  -8.801  -5.082  1.00  0.00     0.291 C 
HETATM   37  C   UNL     1     -20.446 -10.260  -5.312  1.00  0.00     0.208 C 
HETATM   38  C   UNL     1     -19.633 -10.665  -4.050  1.00  0.00     0.186 C 
BRANCH  34  39
HETATM   39  C   UNL     1     -20.906  -7.741  -2.129  1.00  0.00     0.202 C 
BRANCH  39  40
HETATM   40  O   UNL     1     -21.987  -6.816  -1.929  1.00  0.00    -0.386 OA
BRANCH  40  41
HETATM   41  C   UNL     1     -22.327  -6.750  -0.533  1.00  0.00     0.199 C 
BRANCH  41  42
HETATM   42  C   UNL     1     -22.481  -8.126   0.135  1.00  0.00     0.138 C 
HETATM   43  C   UNL     1     -21.468  -8.406   1.237  1.00  0.00     0.041 C 
BRANCH  42  44
HETATM   44  O   UNL     1     -23.798  -8.220   0.699  1.00  0.00    -0.394 OA
HETATM   45  H   UNL     1     -24.182  -7.328   0.741  1.00  0.00     0.210 HD
ENDBRANCH  42  44
ENDBRANCH  41  42
ENDBRANCH  40  41
ENDBRANCH  39  40
ENDBRANCH  34  39
BRANCH  36  46
HETATM   46  O   UNL     1     -21.400  -8.269  -6.309  1.00  0.00    -0.356 OA
BRANCH  46  47
HETATM   47  C   UNL     1     -21.627  -6.860  -6.277  1.00  0.00     0.202 C 
BRANCH  47  48
HETATM   48  C   UNL     1     -20.333  -6.154  -5.833  1.00  0.00     0.138 C 
HETATM   49  C   UNL     1     -19.641  -5.401  -6.964  1.00  0.00     0.041 C 
BRANCH  48  50
HETATM   50  O   UNL     1     -20.614  -5.220  -4.790  1.00  0.00    -0.394 OA
HETATM   51  H   UNL     1     -21.495  -5.446  -4.439  1.00  0.00     0.210 HD
ENDBRANCH  48  50
ENDBRANCH  47  48
ENDBRANCH  46  47
ENDBRANCH  36  46
BRANCH  37  52
HETATM   52  O   UNL     1     -21.550 -11.186  -5.591  1.00  0.00    -0.376 OA
BRANCH  52  53
HETATM   53  C   UNL     1     -21.351 -11.900  -6.831  1.00  0.00     0.199 C 
BRANCH  53  54
HETATM   54  C   UNL     1     -21.118 -13.411  -6.673  1.00  0.00     0.138 C 
HETATM   55  C   UNL     1     -22.397 -14.223  -6.565  1.00  0.00     0.041 C 
BRANCH  54  56
HETATM   56  O   UNL     1     -20.352 -13.913  -7.766  1.00  0.00    -0.394 OA
HETATM   57  H   UNL     1     -19.807 -14.636  -7.405  1.00  0.00     0.210 HD
ENDBRANCH  54  56
ENDBRANCH  53  54
ENDBRANCH  52  53
ENDBRANCH  37  52
BRANCH  38  58
HETATM   58  O   UNL     1     -19.169 -12.058  -4.146  1.00  0.00    -0.378 OA
BRANCH  58  59
HETATM   59  C   UNL     1     -18.160 -12.218  -5.165  1.00  0.00     0.199 C 
BRANCH  59  60
HETATM   60  C   UNL     1     -17.465 -13.598  -5.232  1.00  0.00     0.138 C 
HETATM   61  C   UNL     1     -16.411 -13.766  -6.309  1.00  0.00     0.041 C 
BRANCH  60  62
HETATM   62  O   UNL     1     -16.907 -13.965  -3.972  1.00  0.00    -0.394 OA
HETATM   63  H   UNL     1     -17.571 -13.758  -3.288  1.00  0.00     0.210 HD
ENDBRANCH  60  62
ENDBRANCH  59  60
ENDBRANCH  58  59
ENDBRANCH  38  58
ENDBRANCH   1  33
TORSDOF 36
BEGIN_RES ARG D 557
REMARK  4 active torsions:
REMARK  status: ('A' for Active; 'I' for Inactive)
REMARK    1  A    between atoms: CA   and  CB  
REMARK    2  A    between atoms: CB   and  CG  
REMARK    3  A    between atoms: CG   and  CD  
REMARK    4  A    between atoms: CD   and  NE  
REMARK       I    between atoms: NE   and  CZ  
REMARK       I    between atoms: CZ   and  NH1 
REMARK       I    between atoms: CZ   and  NH2 
ROOT
ATOM      1  CA  ARG D 557     -26.217   2.705 -17.014  1.00 35.49     0.159 C 
ENDROOT
BRANCH   1   2
ATOM      2  CB  ARG D 557     -26.789   1.319 -17.183  1.00 35.49     0.034 C 
BRANCH   2   3
ATOM      3  CG  ARG D 557     -28.227   1.163 -16.934  1.00 35.49     0.027 C 
BRANCH   3   4
ATOM      4  CD  ARG D 557     -28.603  -0.243 -16.662  1.00 35.49     0.116 C 
BRANCH   4   5
ATOM      5  NE  ARG D 557     -27.572  -0.953 -15.951  1.00 35.49    -0.212 N 
ATOM      6  CZ  ARG D 557     -27.348  -2.246 -16.013  1.00 35.49     0.666 C 
ATOM      7  NH1 ARG D 557     -28.083  -3.059 -16.749  1.00 35.49    -0.235 N 
ATOM      8  NH2 ARG D 557     -26.354  -2.717 -15.316  1.00 35.49    -0.235 N 
ATOM      9  HH  ARG D 557     -28.740  -2.771 -17.217  1.00 35.49     0.174 HD
ATOM     10  HH  ARG D 557     -27.888  -3.894 -16.752  1.00 35.49     0.174 HD
ATOM     11  HH  ARG D 557     -25.893  -2.167 -14.856  1.00 35.49     0.174 HD
ATOM     12  HH  ARG D 557     -26.177  -3.546 -15.334  1.00 35.49     0.174 HD
ATOM     13  HE  ARG D 557     -27.097  -0.517 -15.397  1.00 35.49     0.178 HD
ENDBRANCH   4   5
ENDBRANCH   3   4
ENDBRANCH   2   3
ENDBRANCH   1   2
END_RES ARG D 557
BEGIN_RES GLU D 570
REMARK  3 active torsions:
REMARK  status: ('A' for Active; 'I' for Inactive)
REMARK    5  A    between atoms: CA   and  CB  
REMARK    6  A    between atoms: CB   and  CG  
REMARK    7  A    between atoms: CG   and  CD  
ROOT
ATOM     14  CA  GLU D 570     -18.033  -6.348 -13.375  1.00 32.92     0.160 C 
ENDROOT
BRANCH  14  15
ATOM     15  CB  GLU D 570     -19.500  -6.345 -13.794  1.00 32.92     0.043 C 
BRANCH  15  16
ATOM     16  CG  GLU D 570     -20.441  -5.528 -12.985  1.00 32.92     0.100 C 
BRANCH  16  17
ATOM     17  CD  GLU D 570     -21.744  -5.250 -13.699  1.00 32.92     0.185 C 
ATOM     18  OE1 GLU D 570     -22.220  -6.123 -14.450  1.00 32.92    -0.647 OA
ATOM     19  OE2 GLU D 570     -22.285  -4.142 -13.518  1.00 32.92    -0.647 OA
ENDBRANCH  16  17
ENDBRANCH  15  16
ENDBRANCH  14  15
END_RES GLU D 570
ENDMDL
MODEL 4
REMARK VINA RESULT:      -4.6      1.985      7.963
REMARK WARNING: 32 MAX_TORS EXCEEDED!!!
REMARK  36 active torsions:
REMARK  status: ('A' for Active; 'I' for Inactive)
REMARK    1  A    between atoms: C_2  and  C_3 
REMARK    2  A    between atoms: C_2  and  O_55 
REMARK    3  A    between atoms: C_3  and  O_4 
REMARK    4  A    between atoms: O_4  and  C_5 
REMARK    5  A    between atoms: C_5  and  C_6 
REMARK    6  A    between atoms: C_7  and  O_50 
REMARK    7  A    between atoms: C_8  and  O_45 
REMARK    8  A    between atoms: C_9  and  O_40 
REMARK    9  A    between atoms: C_10  and  O_12 
REMARK   10  A    between atoms: O_12  and  C_13 
REMARK   11  A    between atoms: C_14  and  C_34 
REMARK   12  A    between atoms: C_16  and  O_29 
REMARK   13  A    between atoms: C_17  and  O_24 
REMARK   14  A    between atoms: C_18  and  O_19 
REMARK   15  A    between atoms: O_19  and  C_20 
REMARK   16  A    between atoms: C_20  and  C_21 
REMARK   17  A    between atoms: C_21  and  O_23 
REMARK   18  A    between atoms: O_24  and  C_25 
REMARK   19  A    between atoms: C_25  and  C_26 
REMARK   20  A    between atoms: C_26  and  O_28 
REMARK   21  A    between atoms: O_29  and  C_30 
REMARK   22  A    between atoms: C_30  and  C_31 
REMARK   23  A    between atoms: C_31  and  O_33 
REMARK   24  A    between atoms: C_34  and  O_35 
REMARK   25  A    between atoms: O_35  and  C_36 
REMARK   26  A    between atoms: C_36  and  C_37 
REMARK   27  A    between atoms: C_37  and  O_39 
REMARK   28  A    between atoms: O_40  and  C_41 
REMARK   29  A    between atoms: C_41  and  C_42 
REMARK   30  A    between atoms: C_42  and  O_44 
REMARK   31  A    between atoms: O_45  and  C_46 
REMARK   32  A    between atoms: C_46  and  C_47 
REMARK   33  A    between atoms: C_47  and  O_49 
REMARK   34  A    between atoms: O_50  and  C_51 
REMARK   35  A    between atoms: C_51  and  C_52 
REMARK   36  A    between atoms: C_52  and  O_54 
ROOT
HETATM    1  O   UNL     1     -20.607 -12.723  -5.427  1.00  0.00    -0.348 OA
ENDROOT
BRANCH   1   2
HETATM    2  C   UNL     1     -19.206 -12.755  -5.107  1.00  0.00     0.292 C 
HETATM    3  C   UNL     1     -18.323 -13.370  -6.238  1.00  0.00     0.208 C 
HETATM    4  C   UNL     1     -16.867 -13.412  -5.680  1.00  0.00     0.186 C 
HETATM    5  C   UNL     1     -16.854 -14.415  -4.514  1.00  0.00     0.184 C 
HETATM    6  C   UNL     1     -17.774 -13.869  -3.405  1.00  0.00     0.180 C 
HETATM    7  O   UNL     1     -18.992 -13.231  -3.792  1.00  0.00    -0.348 OA
BRANCH   3   8
HETATM    8  O   UNL     1     -18.826 -14.519  -6.945  1.00  0.00    -0.376 OA
BRANCH   8   9
HETATM    9  C   UNL     1     -18.845 -14.651  -8.354  1.00  0.00     0.199 C 
BRANCH   9  10
HETATM   10  C   UNL     1     -18.144 -15.890  -8.913  1.00  0.00     0.138 C 
HETATM   11  C   UNL     1     -18.062 -15.781 -10.413  1.00  0.00     0.041 C 
BRANCH  10  12
HETATM   12  O   UNL     1     -16.867 -16.043  -8.301  1.00  0.00    -0.394 OA
HETATM   13  H   UNL     1     -16.187 -15.777  -8.941  1.00  0.00     0.210 HD
ENDBRANCH  10  12
ENDBRANCH   9  10
ENDBRANCH   8   9
ENDBRANCH   3   8
BRANCH   4  14
HETATM   14  O   UNL     1     -15.918 -13.630  -6.731  1.00  0.00    -0.378 OA
BRANCH  14  15
HETATM   15  C   UNL     1     -14.972 -12.551  -6.844  1.00  0.00     0.199 C 
BRANCH  15  16
HETATM   16  C   UNL     1     -13.607 -12.936  -6.261  1.00  0.00     0.138 C 
HETATM   17  C   UNL     1     -13.344 -12.324  -4.896  1.00  0.00     0.041 C 
BRANCH  16  18
HETATM   18  O   UNL     1     -13.499 -14.359  -6.164  1.00  0.00    -0.394 OA
HETATM   19  H   UNL     1     -13.584 -14.710  -7.069  1.00  0.00     0.210 HD
ENDBRANCH  16  18
ENDBRANCH  15  16
ENDBRANCH  14  15
ENDBRANCH   4  14
BRANCH   5  20
HETATM   20  O   UNL     1     -15.572 -14.821  -3.988  1.00  0.00    -0.378 OA
BRANCH  20  21
HETATM   21  C   UNL     1     -15.580 -16.255  -3.763  1.00  0.00     0.199 C 
BRANCH  21  22
HETATM   22  C   UNL     1     -14.762 -16.659  -2.535  1.00  0.00     0.138 C 
HETATM   23  C   UNL     1     -13.310 -16.888  -2.945  1.00  0.00     0.041 C 
BRANCH  22  24
HETATM   24  O   UNL     1     -14.784 -15.644  -1.533  1.00  0.00    -0.394 OA
HETATM   25  H   UNL     1     -14.318 -15.978  -0.747  1.00  0.00     0.210 HD
ENDBRANCH  22  24
ENDBRANCH  21  22
ENDBRANCH  20  21
ENDBRANCH   5  20
BRANCH   6  26
HETATM   26  C   UNL     1     -16.964 -12.981  -2.457  1.00  0.00     0.202 C 
BRANCH  26  27
HETATM   27  O   UNL     1     -16.764 -13.657  -1.222  1.00  0.00    -0.386 OA
BRANCH  27  28
HETATM   28  C   UNL     1     -17.634 -13.118  -0.223  1.00  0.00     0.199 C 
BRANCH  28  29
HETATM   29  C   UNL     1     -16.844 -12.981   1.074  1.00  0.00     0.138 C 
HETATM   30  C   UNL     1     -15.605 -12.114   0.900  1.00  0.00     0.041 C 
BRANCH  29  31
HETATM   31  O   UNL     1     -16.436 -14.283   1.497  1.00  0.00    -0.394 OA
HETATM   32  H   UNL     1     -15.537 -14.167   1.861  1.00  0.00     0.210 HD
ENDBRANCH  29  31
ENDBRANCH  28  29
ENDBRANCH  27  28
ENDBRANCH  26  27
ENDBRANCH   6  26
ENDBRANCH   1   2
BRANCH   1  33
HETATM   33  C   UNL     1     -21.382 -11.561  -4.983  1.00  0.00     0.187 C 
HETATM   34  C   UNL     1     -22.469 -11.856  -3.876  1.00  0.00     0.180 C 
HETATM   35  O   UNL     1     -22.799 -10.730  -3.036  1.00  0.00    -0.348 OA
HETATM   36  C   UNL     1     -21.656 -10.088  -2.497  1.00  0.00     0.291 C 
HETATM   37  C   UNL     1     -20.976  -9.330  -3.657  1.00  0.00     0.208 C 
HETATM   38  C   UNL     1     -20.367 -10.419  -4.585  1.00  0.00     0.186 C 
BRANCH  34  39
HETATM   39  C   UNL     1     -22.374 -13.106  -2.967  1.00  0.00     0.202 C 
BRANCH  39  40
HETATM   40  O   UNL     1     -23.158 -13.038  -1.765  1.00  0.00    -0.386 OA
BRANCH  40  41
HETATM   41  C   UNL     1     -22.338 -13.345  -0.624  1.00  0.00     0.199 C 
BRANCH  41  42
HETATM   42  C   UNL     1     -23.013 -14.277   0.395  1.00  0.00     0.138 C 
HETATM   43  C   UNL     1     -23.344 -13.617   1.727  1.00  0.00     0.041 C 
BRANCH  42  44
HETATM   44  O   UNL     1     -24.231 -14.778  -0.174  1.00  0.00    -0.394 OA
HETATM   45  H   UNL     1     -24.286 -15.733   0.003  1.00  0.00     0.210 HD
ENDBRANCH  42  44
ENDBRANCH  41  42
ENDBRANCH  40  41
ENDBRANCH  39  40
ENDBRANCH  34  39
BRANCH  36  46
HETATM   46  O   UNL     1     -21.991  -9.158  -1.465  1.00  0.00    -0.356 OA
BRANCH  46  47
HETATM   47  C   UNL     1     -22.918  -9.669  -0.507  1.00  0.00     0.202 C 
BRANCH  47  48
HETATM   48  C   UNL     1     -22.957  -8.722   0.707  1.00  0.00     0.138 C 
HETATM   49  C   UNL     1     -21.580  -8.217   1.120  1.00  0.00     0.041 C 
BRANCH  48  50
HETATM   50  O   UNL     1     -23.775  -7.588   0.421  1.00  0.00    -0.394 OA
HETATM   51  H   UNL     1     -24.662  -7.927   0.202  1.00  0.00     0.210 HD
ENDBRANCH  48  50
ENDBRANCH  47  48
ENDBRANCH  46  47
ENDBRANCH  36  46
BRANCH  37  52
HETATM   52  O   UNL     1     -21.868  -8.413  -4.376  1.00  0.00    -0.376 OA
BRANCH  52  53
HETATM   53  C   UNL     1     -21.453  -7.036  -4.231  1.00  0.00     0.199 C 
BRANCH  53  54
HETATM   54  C   UNL     1     -21.394  -6.241  -5.545  1.00  0.00     0.138 C 
HETATM   55  C   UNL     1     -20.445  -5.056  -5.505  1.00  0.00     0.041 C 
BRANCH  54  56
HETATM   56  O   UNL     1     -21.013  -7.092  -6.624  1.00  0.00    -0.394 OA
HETATM   57  H   UNL     1     -20.976  -6.525  -7.416  1.00  0.00     0.210 HD
ENDBRANCH  54  56
ENDBRANCH  53  54
ENDBRANCH  52  53
ENDBRANCH  37  52
BRANCH  38  58
HETATM   58  O   UNL     1     -19.705  -9.811  -5.749  1.00  0.00    -0.378 OA
BRANCH  58  59
HETATM   59  C   UNL     1     -18.532  -9.062  -5.368  1.00  0.00     0.199 C 
BRANCH  59  60
HETATM   60  C   UNL     1     -17.506  -9.799  -4.476  1.00  0.00     0.138 C 
HETATM   61  C   UNL     1     -16.080  -9.844  -4.990  1.00  0.00     0.041 C 
BRANCH  60  62
HETATM   62  O   UNL     1     -17.506  -9.287  -3.145  1.00  0.00    -0.394 OA
HETATM   63  H   UNL     1     -17.311 -10.032  -2.546  1.00  0.00     0.210 HD
ENDBRANCH  60  62
ENDBRANCH  59  60
ENDBRANCH  58  59
ENDBRANCH  38  58
ENDBRANCH   1  33
TORSDOF 36
BEGIN_RES ARG D 557
REMARK  4 active torsions:
REMARK  status: ('A' for Active; 'I' for Inactive)
REMARK    1  A    between atoms: CA   and  CB  
REMARK    2  A    between atoms: CB   and  CG  
REMARK    3  A    between atoms: CG   and  CD  
REMARK    4  A    between atoms: CD   and  NE  
REMARK       I    between atoms: NE   and  CZ  
REMARK       I    between atoms: CZ   and  NH1 
REMARK       I    between atoms: CZ   and  NH2 
ROOT
ATOM      1  CA  ARG D 557     -26.217   2.705 -17.014  1.00 35.49     0.159 C 
ENDROOT
BRANCH   1   2
ATOM      2  CB  ARG D 557     -26.789   1.319 -17.183  1.00 35.49     0.034 C 
BRANCH   2   3
ATOM      3  CG  ARG D 557     -28.231   1.167 -16.956  1.00 35.49     0.027 C 
BRANCH   3   4
ATOM      4  CD  ARG D 557     -28.611  -0.232 -16.656  1.00 35.49     0.116 C 
BRANCH   4   5
ATOM      5  NE  ARG D 557     -27.577  -0.933 -15.941  1.00 35.49    -0.212 N 
ATOM      6  CZ  ARG D 557     -27.340  -2.224 -16.004  1.00 35.49     0.666 C 
ATOM      7  NH1 ARG D 557     -28.062  -3.042 -16.747  1.00 35.49    -0.235 N 
ATOM      8  NH2 ARG D 557     -26.346  -2.687 -15.303  1.00 35.49    -0.235 N 
ATOM      9  HH  ARG D 557     -28.720  -2.759 -17.218  1.00 35.49     0.174 HD
ATOM     10  HH  ARG D 557     -27.859  -3.875 -16.751  1.00 35.49     0.174 HD
ATOM     11  HH  ARG D 557     -25.892  -2.134 -14.839  1.00 35.49     0.174 HD
ATOM     12  HH  ARG D 557     -26.159  -3.514 -15.322  1.00 35.49     0.174 HD
ATOM     13  HE  ARG D 557     -27.110  -0.494 -15.382  1.00 35.49     0.178 HD
ENDBRANCH   4   5
ENDBRANCH   3   4
ENDBRANCH   2   3
ENDBRANCH   1   2
END_RES ARG D 557
BEGIN_RES GLU D 570
REMARK  3 active torsions:
REMARK  status: ('A' for Active; 'I' for Inactive)
REMARK    5  A    between atoms: CA   and  CB  
REMARK    6  A    between atoms: CB   and  CG  
REMARK    7  A    between atoms: CG   and  CD  
ROOT
ATOM     14  CA  GLU D 570     -18.033  -6.348 -13.375  1.00 32.92     0.160 C 
ENDROOT
BRANCH  14  15
ATOM     15  CB  GLU D 570     -19.500  -6.345 -13.794  1.00 32.92     0.043 C 
BRANCH  15  16
ATOM     16  CG  GLU D 570     -19.796  -6.295 -15.249  1.00 32.92     0.100 C 
BRANCH  16  17
ATOM     17  CD  GLU D 570     -20.845  -7.297 -15.672  1.00 32.92     0.185 C 
ATOM     18  OE1 GLU D 570     -21.947  -6.883 -16.082  1.00 32.92    -0.647 OA
ATOM     19  OE2 GLU D 570     -20.568  -8.508 -15.577  1.00 32.92    -0.647 OA
ENDBRANCH  16  17
ENDBRANCH  15  16
ENDBRANCH  14  15
END_RES GLU D 570
ENDMDL
MODEL 5
REMARK VINA RESULT:      -4.6      2.318      5.566
REMARK WARNING: 32 MAX_TORS EXCEEDED!!!
REMARK  36 active torsions:
REMARK  status: ('A' for Active; 'I' for Inactive)
REMARK    1  A    between atoms: C_2  and  C_3 
REMARK    2  A    between atoms: C_2  and  O_55 
REMARK    3  A    between atoms: C_3  and  O_4 
REMARK    4  A    between atoms: O_4  and  C_5 
REMARK    5  A    between atoms: C_5  and  C_6 
REMARK    6  A    between atoms: C_7  and  O_50 
REMARK    7  A    between atoms: C_8  and  O_45 
REMARK    8  A    between atoms: C_9  and  O_40 
REMARK    9  A    between atoms: C_10  and  O_12 
REMARK   10  A    between atoms: O_12  and  C_13 
REMARK   11  A    between atoms: C_14  and  C_34 
REMARK   12  A    between atoms: C_16  and  O_29 
REMARK   13  A    between atoms: C_17  and  O_24 
REMARK   14  A    between atoms: C_18  and  O_19 
REMARK   15  A    between atoms: O_19  and  C_20 
REMARK   16  A    between atoms: C_20  and  C_21 
REMARK   17  A    between atoms: C_21  and  O_23 
REMARK   18  A    between atoms: O_24  and  C_25 
REMARK   19  A    between atoms: C_25  and  C_26 
REMARK   20  A    between atoms: C_26  and  O_28 
REMARK   21  A    between atoms: O_29  and  C_30 
REMARK   22  A    between atoms: C_30  and  C_31 
REMARK   23  A    between atoms: C_31  and  O_33 
REMARK   24  A    between atoms: C_34  and  O_35 
REMARK   25  A    between atoms: O_35  and  C_36 
REMARK   26  A    between atoms: C_36  and  C_37 
REMARK   27  A    between atoms: C_37  and  O_39 
REMARK   28  A    between atoms: O_40  and  C_41 
REMARK   29  A    between atoms: C_41  and  C_42 
REMARK   30  A    between atoms: C_42  and  O_44 
REMARK   31  A    between atoms: O_45  and  C_46 
REMARK   32  A    between atoms: C_46  and  C_47 
REMARK   33  A    between atoms: C_47  and  O_49 
REMARK   34  A    between atoms: O_50  and  C_51 
REMARK   35  A    between atoms: C_51  and  C_52 
REMARK   36  A    between atoms: C_52  and  O_54 
ROOT
HETATM    1  O   UNL     1     -22.093 -12.182  -4.001  1.00  0.00    -0.348 OA
ENDROOT
BRANCH   1   2
HETATM    2  C   UNL     1     -21.034 -11.227  -3.818  1.00  0.00     0.292 C 
HETATM    3  C   UNL     1     -20.862 -10.249  -5.023  1.00  0.00     0.208 C 
HETATM    4  C   UNL     1     -19.621  -9.363  -4.691  1.00  0.00     0.186 C 
HETATM    5  C   UNL     1     -18.390 -10.286  -4.691  1.00  0.00     0.184 C 
HETATM    6  C   UNL     1     -18.562 -11.310  -3.554  1.00  0.00     0.180 C 
HETATM    7  O   UNL     1     -19.864 -11.849  -3.322  1.00  0.00    -0.348 OA
BRANCH   3   8
HETATM    8  O   UNL     1     -20.998 -10.778  -6.354  1.00  0.00    -0.376 OA
BRANCH   8   9
HETATM    9  C   UNL     1     -20.906 -12.150  -6.688  1.00  0.00     0.199 C 
BRANCH   9  10
HETATM   10  C   UNL     1     -19.516 -12.643  -7.089  1.00  0.00     0.138 C 
HETATM   11  C   UNL     1     -19.645 -13.944  -7.838  1.00  0.00     0.041 C 
BRANCH  10  12
HETATM   12  O   UNL     1     -18.843 -11.639  -7.842  1.00  0.00    -0.394 OA
HETATM   13  H   UNL     1     -18.165 -11.234  -7.275  1.00  0.00     0.210 HD
ENDBRANCH  10  12
ENDBRANCH   9  10
ENDBRANCH   8   9
ENDBRANCH   3   8
BRANCH   4  14
HETATM   14  O   UNL     1     -19.568  -8.213  -5.542  1.00  0.00    -0.378 OA
BRANCH  14  15
HETATM   15  C   UNL     1     -20.510  -7.199  -5.149  1.00  0.00     0.199 C 
BRANCH  15  16
HETATM   16  C   UNL     1     -20.613  -6.086  -6.200  1.00  0.00     0.138 C 
HETATM   17  C   UNL     1     -20.151  -4.734  -5.689  1.00  0.00     0.041 C 
BRANCH  16  18
HETATM   18  O   UNL     1     -19.849  -6.435  -7.358  1.00  0.00    -0.394 OA
HETATM   19  H   UNL     1     -20.479  -6.516  -8.097  1.00  0.00     0.210 HD
ENDBRANCH  16  18
ENDBRANCH  15  16
ENDBRANCH  14  15
ENDBRANCH   4  14
BRANCH   5  20
HETATM   20  O   UNL     1     -17.085  -9.668  -4.656  1.00  0.00    -0.378 OA
BRANCH  20  21
HETATM   21  C   UNL     1     -16.318 -10.108  -5.807  1.00  0.00     0.199 C 
BRANCH  21  22
HETATM   22  C   UNL     1     -15.790 -11.535  -5.646  1.00  0.00     0.138 C 
HETATM   23  C   UNL     1     -14.958 -11.911  -6.868  1.00  0.00     0.041 C 
BRANCH  22  24
HETATM   24  O   UNL     1     -14.961 -11.660  -4.491  1.00  0.00    -0.394 OA
HETATM   25  H   UNL     1     -14.032 -11.652  -4.777  1.00  0.00     0.210 HD
ENDBRANCH  22  24
ENDBRANCH  21  22
ENDBRANCH  20  21
ENDBRANCH   5  20
BRANCH   6  26
HETATM   26  C   UNL     1     -17.960 -10.750  -2.262  1.00  0.00     0.202 C 
BRANCH  26  27
HETATM   27  O   UNL     1     -18.666 -11.268  -1.142  1.00  0.00    -0.386 OA
BRANCH  27  28
HETATM   28  C   UNL     1     -17.928 -12.342  -0.553  1.00  0.00     0.199 C 
BRANCH  28  29
HETATM   29  C   UNL     1     -16.510 -11.855  -0.281  1.00  0.00     0.138 C 
HETATM   30  C   UNL     1     -15.462 -12.854  -0.750  1.00  0.00     0.041 C 
BRANCH  29  31
HETATM   31  O   UNL     1     -16.359 -11.661   1.127  1.00  0.00    -0.394 OA
HETATM   32  H   UNL     1     -15.396 -11.688   1.290  1.00  0.00     0.210 HD
ENDBRANCH  29  31
ENDBRANCH  28  29
ENDBRANCH  27  28
ENDBRANCH  26  27
ENDBRANCH   6  26
ENDBRANCH   1   2
BRANCH   1  33
HETATM   33  C   UNL     1     -22.403 -13.080  -2.886  1.00  0.00     0.187 C 
HETATM   34  C   UNL     1     -21.797 -14.534  -3.001  1.00  0.00     0.180 C 
HETATM   35  O   UNL     1     -21.577 -15.199  -1.739  1.00  0.00    -0.348 OA
HETATM   36  C   UNL     1     -20.865 -14.401  -0.810  1.00  0.00     0.291 C 
HETATM   37  C   UNL     1     -21.829 -13.295  -0.331  1.00  0.00     0.208 C 
HETATM   38  C   UNL     1     -22.025 -12.341  -1.544  1.00  0.00     0.186 C 
BRANCH  34  39
HETATM   39  C   UNL     1     -20.574 -14.828  -3.904  1.00  0.00     0.202 C 
BRANCH  39  40
HETATM   40  O   UNL     1     -20.831 -15.736  -4.988  1.00  0.00    -0.386 OA
BRANCH  40  41
HETATM   41  C   UNL     1     -22.247 -15.951  -5.126  1.00  0.00     0.199 C 
BRANCH  41  42
HETATM   42  C   UNL     1     -22.848 -15.339  -6.401  1.00  0.00     0.138 C 
HETATM   43  C   UNL     1     -23.723 -16.293  -7.203  1.00  0.00     0.041 C 
BRANCH  42  44
HETATM   44  O   UNL     1     -23.640 -14.199  -6.036  1.00  0.00    -0.394 OA
HETATM   45  H   UNL     1     -24.108 -13.881  -6.828  1.00  0.00     0.210 HD
ENDBRANCH  42  44
ENDBRANCH  41  42
ENDBRANCH  40  41
ENDBRANCH  39  40
ENDBRANCH  34  39
BRANCH  36  46
HETATM   46  O   UNL     1     -20.419 -15.152   0.322  1.00  0.00    -0.356 OA
BRANCH  46  47
HETATM   47  C   UNL     1     -19.142 -15.765   0.141  1.00  0.00     0.202 C 
BRANCH  47  48
HETATM   48  C   UNL     1     -18.541 -16.089   1.520  1.00  0.00     0.138 C 
HETATM   49  C   UNL     1     -17.361 -15.196   1.887  1.00  0.00     0.041 C 
BRANCH  48  50
HETATM   50  O   UNL     1     -19.534 -15.947   2.536  1.00  0.00    -0.394 OA
HETATM   51  H   UNL     1     -19.065 -15.719   3.359  1.00  0.00     0.210 HD
ENDBRANCH  48  50
ENDBRANCH  47  48
ENDBRANCH  46  47
ENDBRANCH  36  46
BRANCH  37  52
HETATM   52  O   UNL     1     -23.102 -13.800   0.197  1.00  0.00    -0.376 OA
BRANCH  52  53
HETATM   53  C   UNL     1     -23.307 -13.406   1.573  1.00  0.00     0.199 C 
BRANCH  53  54
HETATM   54  C   UNL     1     -23.067 -14.520   2.603  1.00  0.00     0.138 C 
HETATM   55  C   UNL     1     -24.301 -14.892   3.406  1.00  0.00     0.041 C 
BRANCH  54  56
HETATM   56  O   UNL     1     -22.572 -15.693   1.961  1.00  0.00    -0.394 OA
HETATM   57  H   UNL     1     -22.935 -16.448   2.460  1.00  0.00     0.210 HD
ENDBRANCH  54  56
ENDBRANCH  53  54
ENDBRANCH  52  53
ENDBRANCH  37  52
BRANCH  38  58
HETATM   58  O   UNL     1     -22.952 -11.249  -1.211  1.00  0.00    -0.378 OA
BRANCH  58  59
HETATM   59  C   UNL     1     -22.336 -10.264  -0.354  1.00  0.00     0.199 C 
BRANCH  59  60
HETATM   60  C   UNL     1     -21.970  -8.914  -1.012  1.00  0.00     0.138 C 
HETATM   61  C   UNL     1     -22.438  -7.666  -0.287  1.00  0.00     0.041 C 
BRANCH  60  62
HETATM   62  O   UNL     1     -20.569  -8.813  -1.259  1.00  0.00    -0.394 OA
HETATM   63  H   UNL     1     -20.402  -9.190  -2.143  1.00  0.00     0.210 HD
ENDBRANCH  60  62
ENDBRANCH  59  60
ENDBRANCH  58  59
ENDBRANCH  38  58
ENDBRANCH   1  33
TORSDOF 36
BEGIN_RES ARG D 557
REMARK  4 active torsions:
REMARK  status: ('A' for Active; 'I' for Inactive)
REMARK    1  A    between atoms: CA   and  CB  
REMARK    2  A    between atoms: CB   and  CG  
REMARK    3  A    between atoms: CG   and  CD  
REMARK    4  A    between atoms: CD   and  NE  
REMARK       I    between atoms: NE   and  CZ  
REMARK       I    between atoms: CZ   and  NH1 
REMARK       I    between atoms: CZ   and  NH2 
ROOT
ATOM      1  CA  ARG D 557     -26.217   2.705 -17.014  1.00 35.49     0.159 C 
ENDROOT
BRANCH   1   2
ATOM      2  CB  ARG D 557     -26.789   1.319 -17.183  1.00 35.49     0.034 C 
BRANCH   2   3
ATOM      3  CG  ARG D 557     -25.949   0.199 -16.741  1.00 35.49     0.027 C 
BRANCH   3   4
ATOM      4  CD  ARG D 557     -26.741  -0.899 -16.142  1.00 35.49     0.116 C 
BRANCH   4   5
ATOM      5  NE  ARG D 557     -25.987  -1.643 -15.168  1.00 35.49    -0.212 N 
ATOM      6  CZ  ARG D 557     -24.786  -1.339 -14.732  1.00 35.49     0.666 C 
ATOM      7  NH1 ARG D 557     -24.117  -0.289 -15.169  1.00 35.49    -0.235 N 
ATOM      8  NH2 ARG D 557     -24.260  -2.117 -13.829  1.00 35.49    -0.235 N 
ATOM      9  HH  ARG D 557     -24.444   0.238 -15.761  1.00 35.49     0.174 HD
ATOM     10  HH  ARG D 557     -23.338  -0.139 -14.846  1.00 35.49     0.174 HD
ATOM     11  HH  ARG D 557     -24.719  -2.784 -13.560  1.00 35.49     0.174 HD
ATOM     12  HH  ARG D 557     -23.488  -1.951 -13.521  1.00 35.49     0.174 HD
ATOM     13  HE  ARG D 557     -26.313  -2.376 -14.886  1.00 35.49     0.178 HD
ENDBRANCH   4   5
ENDBRANCH   3   4
ENDBRANCH   2   3
ENDBRANCH   1   2
END_RES ARG D 557
BEGIN_RES GLU D 570
REMARK  3 active torsions:
REMARK  status: ('A' for Active; 'I' for Inactive)
REMARK    5  A    between atoms: CA   and  CB  
REMARK    6  A    between atoms: CB   and  CG  
REMARK    7  A    between atoms: CG   and  CD  
ROOT
ATOM     14  CA  GLU D 570     -18.033  -6.348 -13.375  1.00 32.92     0.160 C 
ENDROOT
BRANCH  14  15
ATOM     15  CB  GLU D 570     -19.500  -6.345 -13.794  1.00 32.92     0.043 C 
BRANCH  15  16
ATOM     16  CG  GLU D 570     -20.447  -5.556 -12.965  1.00 32.92     0.100 C 
BRANCH  16  17
ATOM     17  CD  GLU D 570     -21.668  -5.105 -13.732  1.00 32.92     0.185 C 
ATOM     18  OE1 GLU D 570     -21.630  -5.092 -14.977  1.00 32.92    -0.647 OA
ATOM     19  OE2 GLU D 570     -22.668  -4.745 -13.080  1.00 32.92    -0.647 OA
ENDBRANCH  16  17
ENDBRANCH  15  16
ENDBRANCH  14  15
END_RES GLU D 570
ENDMDL
MODEL 6
REMARK VINA RESULT:      -4.5      1.875      8.158
REMARK WARNING: 32 MAX_TORS EXCEEDED!!!
REMARK  36 active torsions:
REMARK  status: ('A' for Active; 'I' for Inactive)
REMARK    1  A    between atoms: C_2  and  C_3 
REMARK    2  A    between atoms: C_2  and  O_55 
REMARK    3  A    between atoms: C_3  and  O_4 
REMARK    4  A    between atoms: O_4  and  C_5 
REMARK    5  A    between atoms: C_5  and  C_6 
REMARK    6  A    between atoms: C_7  and  O_50 
REMARK    7  A    between atoms: C_8  and  O_45 
REMARK    8  A    between atoms: C_9  and  O_40 
REMARK    9  A    between atoms: C_10  and  O_12 
REMARK   10  A    between atoms: O_12  and  C_13 
REMARK   11  A    between atoms: C_14  and  C_34 
REMARK   12  A    between atoms: C_16  and  O_29 
REMARK   13  A    between atoms: C_17  and  O_24 
REMARK   14  A    between atoms: C_18  and  O_19 
REMARK   15  A    between atoms: O_19  and  C_20 
REMARK   16  A    between atoms: C_20  and  C_21 
REMARK   17  A    between atoms: C_21  and  O_23 
REMARK   18  A    between atoms: O_24  and  C_25 
REMARK   19  A    between atoms: C_25  and  C_26 
REMARK   20  A    between atoms: C_26  and  O_28 
REMARK   21  A    between atoms: O_29  and  C_30 
REMARK   22  A    between atoms: C_30  and  C_31 
REMARK   23  A    between atoms: C_31  and  O_33 
REMARK   24  A    between atoms: C_34  and  O_35 
REMARK   25  A    between atoms: O_35  and  C_36 
REMARK   26  A    between atoms: C_36  and  C_37 
REMARK   27  A    between atoms: C_37  and  O_39 
REMARK   28  A    between atoms: O_40  and  C_41 
REMARK   29  A    between atoms: C_41  and  C_42 
REMARK   30  A    between atoms: C_42  and  O_44 
REMARK   31  A    between atoms: O_45  and  C_46 
REMARK   32  A    between atoms: C_46  and  C_47 
REMARK   33  A    between atoms: C_47  and  O_49 
REMARK   34  A    between atoms: O_50  and  C_51 
REMARK   35  A    between atoms: C_51  and  C_52 
REMARK   36  A    between atoms: C_52  and  O_54 
ROOT
HETATM    1  O   UNL     1     -20.122 -12.456  -4.836  1.00  0.00    -0.348 OA
ENDROOT
BRANCH   1   2
HETATM    2  C   UNL     1     -18.850 -12.560  -4.174  1.00  0.00     0.292 C 
HETATM    3  C   UNL     1     -17.872 -13.567  -4.855  1.00  0.00     0.208 C 
HETATM    4  C   UNL     1     -16.600 -13.619  -3.954  1.00  0.00     0.186 C 
HETATM    5  C   UNL     1     -17.018 -14.246  -2.612  1.00  0.00     0.184 C 
HETATM    6  C   UNL     1     -18.039 -13.307  -1.944  1.00  0.00     0.180 C 
HETATM    7  O   UNL     1     -19.011 -12.667  -2.772  1.00  0.00    -0.348 OA
BRANCH   3   8
HETATM    8  O   UNL     1     -18.411 -14.802  -5.362  1.00  0.00    -0.376 OA
BRANCH   8   9
HETATM    9  C   UNL     1     -17.957 -15.459  -6.530  1.00  0.00     0.199 C 
BRANCH   9  10
HETATM   10  C   UNL     1     -17.700 -14.559  -7.739  1.00  0.00     0.138 C 
HETATM   11  C   UNL     1     -18.966 -13.820  -8.089  1.00  0.00     0.041 C 
BRANCH  10  12
HETATM   12  O   UNL     1     -16.609 -13.684  -7.469  1.00  0.00    -0.394 OA
HETATM   13  H   UNL     1     -16.669 -12.924  -8.072  1.00  0.00     0.210 HD
ENDBRANCH  10  12
ENDBRANCH   9  10
ENDBRANCH   8   9
ENDBRANCH   3   8
BRANCH   4  14
HETATM   14  O   UNL     1     -15.505 -14.233  -4.643  1.00  0.00    -0.378 OA
BRANCH  14  15
HETATM   15  C   UNL     1     -14.278 -13.498  -4.480  1.00  0.00     0.199 C 
BRANCH  15  16
HETATM   16  C   UNL     1     -13.377 -13.628  -5.715  1.00  0.00     0.138 C 
HETATM   17  C   UNL     1     -13.363 -15.027  -6.303  1.00  0.00     0.041 C 
BRANCH  16  18
HETATM   18  O   UNL     1     -13.790 -12.700  -6.722  1.00  0.00    -0.394 OA
HETATM   19  H   UNL     1     -13.400 -13.004  -7.562  1.00  0.00     0.210 HD
ENDBRANCH  16  18
ENDBRANCH  15  16
ENDBRANCH  14  15
ENDBRANCH   4  14
BRANCH   5  20
HETATM   20  O   UNL     1     -15.971 -14.633  -1.695  1.00  0.00    -0.378 OA
BRANCH  20  21
HETATM   21  C   UNL     1     -15.897 -16.081  -1.640  1.00  0.00     0.199 C 
BRANCH  21  22
HETATM   22  C   UNL     1     -14.618 -16.575  -0.961  1.00  0.00     0.138 C 
HETATM   23  C   UNL     1     -13.631 -15.419  -0.833  1.00  0.00     0.041 C 
BRANCH  22  24
HETATM   24  O   UNL     1     -14.879 -17.080   0.348  1.00  0.00    -0.394 OA
HETATM   25  H   UNL     1     -15.515 -16.488   0.785  1.00  0.00     0.210 HD
ENDBRANCH  22  24
ENDBRANCH  21  22
ENDBRANCH  20  21
ENDBRANCH   5  20
BRANCH   6  26
HETATM   26  C   UNL     1     -17.303 -12.287  -1.070  1.00  0.00     0.202 C 
BRANCH  26  27
HETATM   27  O   UNL     1     -17.558 -12.561   0.302  1.00  0.00    -0.386 OA
BRANCH  27  28
HETATM   28  C   UNL     1     -16.346 -12.454   1.055  1.00  0.00     0.199 C 
BRANCH  28  29
HETATM   29  C   UNL     1     -16.024 -13.825   1.639  1.00  0.00     0.138 C 
HETATM   30  C   UNL     1     -17.234 -14.749   1.631  1.00  0.00     0.041 C 
BRANCH  29  31
HETATM   31  O   UNL     1     -15.590 -13.652   2.990  1.00  0.00    -0.394 OA
HETATM   32  H   UNL     1     -15.807 -14.491   3.441  1.00  0.00     0.210 HD
ENDBRANCH  29  31
ENDBRANCH  28  29
ENDBRANCH  27  28
ENDBRANCH  26  27
ENDBRANCH   6  26
ENDBRANCH   1   2
BRANCH   1  33
HETATM   33  C   UNL     1     -20.712 -11.123  -4.976  1.00  0.00     0.187 C 
HETATM   34  C   UNL     1     -21.885 -10.794  -3.971  1.00  0.00     0.180 C 
HETATM   35  O   UNL     1     -22.062  -9.391  -3.686  1.00  0.00    -0.348 OA
HETATM   36  C   UNL     1     -20.855  -8.744  -3.320  1.00  0.00     0.291 C 
HETATM   37  C   UNL     1     -20.004  -8.621  -4.602  1.00  0.00     0.208 C 
HETATM   38  C   UNL     1     -19.542 -10.064  -4.951  1.00  0.00     0.186 C 
BRANCH  34  39
HETATM   39  C   UNL     1     -22.043 -11.566  -2.637  1.00  0.00     0.202 C 
BRANCH  39  40
HETATM   40  O   UNL     1     -21.753 -10.797  -1.459  1.00  0.00    -0.386 OA
BRANCH  40  41
HETATM   41  C   UNL     1     -22.347 -11.420  -0.306  1.00  0.00     0.199 C 
BRANCH  41  42
HETATM   42  C   UNL     1     -21.325 -11.905   0.735  1.00  0.00     0.138 C 
HETATM   43  C   UNL     1     -20.930 -13.369   0.591  1.00  0.00     0.041 C 
BRANCH  42  44
HETATM   44  O   UNL     1     -20.139 -11.106   0.625  1.00  0.00    -0.394 OA
HETATM   45  H   UNL     1     -19.417 -11.666   0.293  1.00  0.00     0.210 HD
ENDBRANCH  42  44
ENDBRANCH  41  42
ENDBRANCH  40  41
ENDBRANCH  39  40
ENDBRANCH  34  39
BRANCH  36  46
HETATM   46  O   UNL     1     -21.080  -7.438  -2.783  1.00  0.00    -0.356 OA
BRANCH  46  47
HETATM   47  C   UNL     1     -22.279  -7.328  -2.017  1.00  0.00     0.202 C 
BRANCH  47  48
HETATM   48  C   UNL     1     -21.927  -7.397  -0.520  1.00  0.00     0.138 C 
HETATM   49  C   UNL     1     -23.073  -7.909   0.344  1.00  0.00     0.041 C 
BRANCH  48  50
HETATM   50  O   UNL     1     -20.804  -8.256  -0.318  1.00  0.00    -0.394 OA
HETATM   51  H   UNL     1     -20.376  -7.970   0.509  1.00  0.00     0.210 HD
ENDBRANCH  48  50
ENDBRANCH  47  48
ENDBRANCH  46  47
ENDBRANCH  36  46
BRANCH  37  52
HETATM   52  O   UNL     1     -20.695  -7.967  -5.718  1.00  0.00    -0.376 OA
BRANCH  52  53
HETATM   53  C   UNL     1     -20.211  -6.622  -5.936  1.00  0.00     0.199 C 
BRANCH  53  54
HETATM   54  C   UNL     1     -21.252  -5.517  -5.694  1.00  0.00     0.138 C 
HETATM   55  C   UNL     1     -21.584  -4.704  -6.932  1.00  0.00     0.041 C 
BRANCH  54  56
HETATM   56  O   UNL     1     -22.459  -6.076  -5.180  1.00  0.00    -0.394 OA
HETATM   57  H   UNL     1     -22.216  -6.943  -4.804  1.00  0.00     0.210 HD
ENDBRANCH  54  56
ENDBRANCH  53  54
ENDBRANCH  52  53
ENDBRANCH  37  52
BRANCH  38  58
HETATM   58  O   UNL     1     -18.732 -10.076  -6.179  1.00  0.00    -0.378 OA
BRANCH  58  59
HETATM   59  C   UNL     1     -17.584  -9.210  -6.073  1.00  0.00     0.199 C 
BRANCH  59  60
HETATM   60  C   UNL     1     -16.238  -9.891  -5.735  1.00  0.00     0.138 C 
HETATM   61  C   UNL     1     -15.930 -10.075  -4.261  1.00  0.00     0.041 C 
BRANCH  60  62
HETATM   62  O   UNL     1     -16.105 -11.146  -6.399  1.00  0.00    -0.394 OA
HETATM   63  H   UNL     1     -16.894 -11.264  -6.960  1.00  0.00     0.210 HD
ENDBRANCH  60  62
ENDBRANCH  59  60
ENDBRANCH  58  59
ENDBRANCH  38  58
ENDBRANCH   1  33
TORSDOF 36
BEGIN_RES ARG D 557
REMARK  4 active torsions:
REMARK  status: ('A' for Active; 'I' for Inactive)
REMARK    1  A    between atoms: CA   and  CB  
REMARK    2  A    between atoms: CB   and  CG  
REMARK    3  A    between atoms: CG   and  CD  
REMARK    4  A    between atoms: CD   and  NE  
REMARK       I    between atoms: NE   and  CZ  
REMARK       I    between atoms: CZ   and  NH1 
REMARK       I    between atoms: CZ   and  NH2 
ROOT
ATOM      1  CA  ARG D 557     -26.217   2.705 -17.014  1.00 35.49     0.159 C 
ENDROOT
BRANCH   1   2
ATOM      2  CB  ARG D 557     -26.789   1.319 -17.183  1.00 35.49     0.034 C 
BRANCH   2   3
ATOM      3  CG  ARG D 557     -25.922   0.196 -16.806  1.00 35.49     0.027 C 
BRANCH   3   4
ATOM      4  CD  ARG D 557     -26.660  -0.872 -16.093  1.00 35.49     0.116 C 
BRANCH   4   5
ATOM      5  NE  ARG D 557     -25.865  -1.483 -15.060  1.00 35.49    -0.212 N 
ATOM      6  CZ  ARG D 557     -25.887  -2.753 -14.725  1.00 35.49     0.666 C 
ATOM      7  NH1 ARG D 557     -26.680  -3.629 -15.314  1.00 35.49    -0.235 N 
ATOM      8  NH2 ARG D 557     -25.082  -3.138 -13.777  1.00 35.49    -0.235 N 
ATOM      9  HH  ARG D 557     -27.216  -3.398 -15.942  1.00 35.49     0.174 HD
ATOM     10  HH  ARG D 557     -26.649  -4.445 -15.055  1.00 35.49     0.174 HD
ATOM     11  HH  ARG D 557     -24.576  -2.552 -13.419  1.00 35.49     0.174 HD
ATOM     12  HH  ARG D 557     -25.065  -3.951 -13.536  1.00 35.49     0.174 HD
ATOM     13  HE  ARG D 557     -25.378  -0.978 -14.579  1.00 35.49     0.178 HD
ENDBRANCH   4   5
ENDBRANCH   3   4
ENDBRANCH   2   3
ENDBRANCH   1   2
END_RES ARG D 557
BEGIN_RES GLU D 570
REMARK  3 active torsions:
REMARK  status: ('A' for Active; 'I' for Inactive)
REMARK    5  A    between atoms: CA   and  CB  
REMARK    6  A    between atoms: CB   and  CG  
REMARK    7  A    between atoms: CG   and  CD  
ROOT
ATOM     14  CA  GLU D 570     -18.033  -6.348 -13.375  1.00 32.92     0.160 C 
ENDROOT
BRANCH  14  15
ATOM     15  CB  GLU D 570     -19.500  -6.345 -13.794  1.00 32.92     0.043 C 
BRANCH  15  16
ATOM     16  CG  GLU D 570     -20.449  -5.567 -12.957  1.00 32.92     0.100 C 
BRANCH  16  17
ATOM     17  CD  GLU D 570     -21.703  -5.171 -13.701  1.00 32.92     0.185 C 
ATOM     18  OE1 GLU D 570     -22.658  -4.687 -13.063  1.00 32.92    -0.647 OA
ATOM     19  OE2 GLU D 570     -21.737  -5.362 -14.933  1.00 32.92    -0.647 OA
ENDBRANCH  16  17
ENDBRANCH  15  16
ENDBRANCH  14  15
END_RES GLU D 570
ENDMDL
MODEL 7
REMARK VINA RESULT:      -4.5      2.316      6.180
REMARK WARNING: 32 MAX_TORS EXCEEDED!!!
REMARK  36 active torsions:
REMARK  status: ('A' for Active; 'I' for Inactive)
REMARK    1  A    between atoms: C_2  and  C_3 
REMARK    2  A    between atoms: C_2  and  O_55 
REMARK    3  A    between atoms: C_3  and  O_4 
REMARK    4  A    between atoms: O_4  and  C_5 
REMARK    5  A    between atoms: C_5  and  C_6 
REMARK    6  A    between atoms: C_7  and  O_50 
REMARK    7  A    between atoms: C_8  and  O_45 
REMARK    8  A    between atoms: C_9  and  O_40 
REMARK    9  A    between atoms: C_10  and  O_12 
REMARK   10  A    between atoms: O_12  and  C_13 
REMARK   11  A    between atoms: C_14  and  C_34 
REMARK   12  A    between atoms: C_16  and  O_29 
REMARK   13  A    between atoms: C_17  and  O_24 
REMARK   14  A    between atoms: C_18  and  O_19 
REMARK   15  A    between atoms: O_19  and  C_20 
REMARK   16  A    between atoms: C_20  and  C_21 
REMARK   17  A    between atoms: C_21  and  O_23 
REMARK   18  A    between atoms: O_24  and  C_25 
REMARK   19  A    between atoms: C_25  and  C_26 
REMARK   20  A    between atoms: C_26  and  O_28 
REMARK   21  A    between atoms: O_29  and  C_30 
REMARK   22  A    between atoms: C_30  and  C_31 
REMARK   23  A    between atoms: C_31  and  O_33 
REMARK   24  A    between atoms: C_34  and  O_35 
REMARK   25  A    between atoms: O_35  and  C_36 
REMARK   26  A    between atoms: C_36  and  C_37 
REMARK   27  A    between atoms: C_37  and  O_39 
REMARK   28  A    between atoms: O_40  and  C_41 
REMARK   29  A    between atoms: C_41  and  C_42 
REMARK   30  A    between atoms: C_42  and  O_44 
REMARK   31  A    between atoms: O_45  and  C_46 
REMARK   32  A    between atoms: C_46  and  C_47 
REMARK   33  A    between atoms: C_47  and  O_49 
REMARK   34  A    between atoms: O_50  and  C_51 
REMARK   35  A    between atoms: C_51  and  C_52 
REMARK   36  A    between atoms: C_52  and  O_54 
ROOT
HETATM    1  O   UNL     1     -21.527 -11.974  -2.244  1.00  0.00    -0.348 OA
ENDROOT
BRANCH   1   2
HETATM    2  C   UNL     1     -20.511 -11.037  -2.637  1.00  0.00     0.292 C 
HETATM    3  C   UNL     1     -20.784 -10.364  -4.019  1.00  0.00     0.208 C 
HETATM    4  C   UNL     1     -19.545  -9.466  -4.320  1.00  0.00     0.186 C 
HETATM    5  C   UNL     1     -18.340 -10.403  -4.516  1.00  0.00     0.184 C 
HETATM    6  C   UNL     1     -18.086 -11.136  -3.185  1.00  0.00     0.180 C 
HETATM    7  O   UNL     1     -19.216 -11.567  -2.425  1.00  0.00    -0.348 OA
BRANCH   3   8
HETATM    8  O   UNL     1     -21.322 -11.177  -5.078  1.00  0.00    -0.376 OA
BRANCH   8   9
HETATM    9  C   UNL     1     -20.831 -12.454  -5.440  1.00  0.00     0.199 C 
BRANCH   9  10
HETATM   10  C   UNL     1     -20.874 -12.781  -6.933  1.00  0.00     0.138 C 
HETATM   11  C   UNL     1     -19.520 -12.520  -7.539  1.00  0.00     0.041 C 
BRANCH  10  12
HETATM   12  O   UNL     1     -21.314 -14.123  -7.123  1.00  0.00    -0.394 OA
HETATM   13  H   UNL     1     -20.601 -14.721  -6.842  1.00  0.00     0.210 HD
ENDBRANCH  10  12
ENDBRANCH   9  10
ENDBRANCH   8   9
ENDBRANCH   3   8
BRANCH   4  14
HETATM   14  O   UNL     1     -19.824  -8.541  -5.378  1.00  0.00    -0.378 OA
BRANCH  14  15
HETATM   15  C   UNL     1     -20.466  -7.344  -4.900  1.00  0.00     0.199 C 
BRANCH  15  16
HETATM   16  C   UNL     1     -20.575  -6.285  -6.004  1.00  0.00     0.138 C 
HETATM   17  C   UNL     1     -20.278  -4.878  -5.516  1.00  0.00     0.041 C 
BRANCH  16  18
HETATM   18  O   UNL     1     -19.687  -6.604  -7.079  1.00  0.00    -0.394 OA
HETATM   19  H   UNL     1     -19.057  -7.264  -6.737  1.00  0.00     0.210 HD
ENDBRANCH  16  18
ENDBRANCH  15  16
ENDBRANCH  14  15
ENDBRANCH   4  14
BRANCH   5  20
HETATM   20  O   UNL     1     -17.124  -9.834  -5.050  1.00  0.00    -0.378 OA
BRANCH  20  21
HETATM   21  C   UNL     1     -16.678 -10.635  -6.175  1.00  0.00     0.199 C 
BRANCH  21  22
HETATM   22  C   UNL     1     -15.662 -11.703  -5.764  1.00  0.00     0.138 C 
HETATM   23  C   UNL     1     -14.825 -12.101  -6.976  1.00  0.00     0.041 C 
BRANCH  22  24
HETATM   24  O   UNL     1     -14.777 -11.225  -4.753  1.00  0.00    -0.394 OA
HETATM   25  H   UNL     1     -13.878 -11.191  -5.122  1.00  0.00     0.210 HD
ENDBRANCH  22  24
ENDBRANCH  21  22
ENDBRANCH  20  21
ENDBRANCH   5  20
BRANCH   6  26
HETATM   26  C   UNL     1     -17.122 -10.316  -2.323  1.00  0.00     0.202 C 
BRANCH  26  27
HETATM   27  O   UNL     1     -15.957 -11.084  -2.047  1.00  0.00    -0.386 OA
BRANCH  27  28
HETATM   28  C   UNL     1     -16.057 -11.674  -0.748  1.00  0.00     0.199 C 
BRANCH  28  29
HETATM   29  C   UNL     1     -16.027 -13.190  -0.908  1.00  0.00     0.138 C 
HETATM   30  C   UNL     1     -15.279 -13.618  -2.162  1.00  0.00     0.041 C 
BRANCH  29  31
HETATM   31  O   UNL     1     -17.373 -13.664  -0.993  1.00  0.00    -0.394 OA
HETATM   32  H   UNL     1     -17.299 -14.613  -1.212  1.00  0.00     0.210 HD
ENDBRANCH  29  31
ENDBRANCH  28  29
ENDBRANCH  27  28
ENDBRANCH  26  27
ENDBRANCH   6  26
ENDBRANCH   1   2
BRANCH   1  33
HETATM   33  C   UNL     1     -21.404 -12.602  -0.927  1.00  0.00     0.187 C 
HETATM   34  C   UNL     1     -22.527 -12.214   0.115  1.00  0.00     0.180 C 
HETATM   35  O   UNL     1     -22.774 -13.204   1.135  1.00  0.00    -0.348 OA
HETATM   36  C   UNL     1     -22.967 -14.506   0.608  1.00  0.00     0.291 C 
HETATM   37  C   UNL     1     -21.590 -15.004   0.121  1.00  0.00     0.208 C 
HETATM   38  C   UNL     1     -21.248 -14.158  -1.138  1.00  0.00     0.186 C 
BRANCH  34  39
HETATM   39  C   UNL     1     -23.900 -11.667  -0.348  1.00  0.00     0.202 C 
BRANCH  39  40
HETATM   40  O   UNL     1     -24.151 -10.297   0.004  1.00  0.00    -0.386 OA
BRANCH  40  41
HETATM   41  C   UNL     1     -23.038  -9.475  -0.389  1.00  0.00     0.199 C 
BRANCH  41  42
HETATM   42  C   UNL     1     -22.906  -8.176   0.423  1.00  0.00     0.138 C 
HETATM   43  C   UNL     1     -21.634  -8.083   1.256  1.00  0.00     0.041 C 
BRANCH  42  44
HETATM   44  O   UNL     1     -22.936  -7.062  -0.481  1.00  0.00    -0.394 OA
HETATM   45  H   UNL     1     -23.197  -6.268   0.015  1.00  0.00     0.210 HD
ENDBRANCH  42  44
ENDBRANCH  41  42
ENDBRANCH  40  41
ENDBRANCH  39  40
ENDBRANCH  34  39
BRANCH  36  46
HETATM   46  O   UNL     1     -23.474 -15.418   1.586  1.00  0.00    -0.356 OA
BRANCH  46  47
HETATM   47  C   UNL     1     -24.042 -14.780   2.729  1.00  0.00     0.202 C 
BRANCH  47  48
HETATM   48  C   UNL     1     -23.212 -15.148   3.973  1.00  0.00     0.138 C 
HETATM   49  C   UNL     1     -23.298 -16.626   4.337  1.00  0.00     0.041 C 
BRANCH  48  50
HETATM   50  O   UNL     1     -21.838 -14.826   3.761  1.00  0.00    -0.394 OA
HETATM   51  H   UNL     1     -21.789 -14.338   2.919  1.00  0.00     0.210 HD
ENDBRANCH  48  50
ENDBRANCH  47  48
ENDBRANCH  46  47
ENDBRANCH  36  46
BRANCH  37  52
HETATM   52  O   UNL     1     -20.538 -14.945   1.141  1.00  0.00    -0.376 OA
BRANCH  52  53
HETATM   53  C   UNL     1     -19.752 -16.158   1.174  1.00  0.00     0.199 C 
BRANCH  53  54
HETATM   54  C   UNL     1     -18.253 -15.945   1.434  1.00  0.00     0.138 C 
HETATM   55  C   UNL     1     -17.738 -16.651   2.676  1.00  0.00     0.041 C 
BRANCH  54  56
HETATM   56  O   UNL     1     -17.487 -16.383   0.313  1.00  0.00    -0.394 OA
HETATM   57  H   UNL     1     -17.736 -15.801  -0.428  1.00  0.00     0.210 HD
ENDBRANCH  54  56
ENDBRANCH  53  54
ENDBRANCH  52  53
ENDBRANCH  37  52
BRANCH  38  58
HETATM   58  O   UNL     1     -19.934 -14.533  -1.684  1.00  0.00    -0.378 OA
BRANCH  58  59
HETATM   59  C   UNL     1     -20.054 -15.230  -2.941  1.00  0.00     0.199 C 
BRANCH  59  60
HETATM   60  C   UNL     1     -18.733 -15.689  -3.600  1.00  0.00     0.138 C 
HETATM   61  C   UNL     1     -18.045 -14.678  -4.499  1.00  0.00     0.041 C 
BRANCH  60  62
HETATM   62  O   UNL     1     -17.800 -16.162  -2.631  1.00  0.00    -0.394 OA
HETATM   63  H   UNL     1     -16.906 -16.011  -2.990  1.00  0.00     0.210 HD
ENDBRANCH  60  62
ENDBRANCH  59  60
ENDBRANCH  58  59
ENDBRANCH  38  58
ENDBRANCH   1  33
TORSDOF 36
BEGIN_RES ARG D 557
REMARK  4 active torsions:
REMARK  status: ('A' for Active; 'I' for Inactive)
REMARK    1  A    between atoms: CA   and  CB  
REMARK    2  A    between atoms: CB   and  CG  
REMARK    3  A    between atoms: CG   and  CD  
REMARK    4  A    between atoms: CD   and  NE  
REMARK       I    between atoms: NE   and  CZ  
REMARK       I    between atoms: CZ   and  NH1 
REMARK       I    between atoms: CZ   and  NH2 
ROOT
ATOM      1  CA  ARG D 557     -26.217   2.705 -17.014  1.00 35.49     0.159 C 
ENDROOT
BRANCH   1   2
ATOM      2  CB  ARG D 557     -26.789   1.319 -17.183  1.00 35.49     0.034 C 
BRANCH   2   3
ATOM      3  CG  ARG D 557     -28.231   1.226 -17.444  1.00 35.49     0.027 C 
BRANCH   3   4
ATOM      4  CD  ARG D 557     -28.915   0.304 -16.509  1.00 35.49     0.116 C 
BRANCH   4   5
ATOM      5  NE  ARG D 557     -28.141  -0.882 -16.254  1.00 35.49    -0.212 N 
ATOM      6  CZ  ARG D 557     -28.392  -2.081 -16.730  1.00 35.49     0.666 C 
ATOM      7  NH1 ARG D 557     -29.428  -2.332 -17.509  1.00 35.49    -0.235 N 
ATOM      8  NH2 ARG D 557     -27.570  -3.038 -16.412  1.00 35.49    -0.235 N 
ATOM      9  HH  ARG D 557     -29.981  -1.716 -17.733  1.00 35.49     0.174 HD
ATOM     10  HH  ARG D 557     -29.541  -3.133 -17.792  1.00 35.49     0.174 HD
ATOM     11  HH  ARG D 557     -26.906  -2.846 -15.913  1.00 35.49     0.174 HD
ATOM     12  HH  ARG D 557     -27.698  -3.824 -16.703  1.00 35.49     0.174 HD
ATOM     13  HE  ARG D 557     -27.496  -0.827 -15.703  1.00 35.49     0.178 HD
ENDBRANCH   4   5
ENDBRANCH   3   4
ENDBRANCH   2   3
ENDBRANCH   1   2
END_RES ARG D 557
BEGIN_RES GLU D 570
REMARK  3 active torsions:
REMARK  status: ('A' for Active; 'I' for Inactive)
REMARK    5  A    between atoms: CA   and  CB  
REMARK    6  A    between atoms: CB   and  CG  
REMARK    7  A    between atoms: CG   and  CD  
ROOT
ATOM     14  CA  GLU D 570     -18.033  -6.348 -13.375  1.00 32.92     0.160 C 
ENDROOT
BRANCH  14  15
ATOM     15  CB  GLU D 570     -19.500  -6.345 -13.794  1.00 32.92     0.043 C 
BRANCH  15  16
ATOM     16  CG  GLU D 570     -20.440  -5.521 -12.990  1.00 32.92     0.100 C 
BRANCH  16  17
ATOM     17  CD  GLU D 570     -21.742  -5.247 -13.705  1.00 32.92     0.185 C 
ATOM     18  OE1 GLU D 570     -22.320  -4.159 -13.515  1.00 32.92    -0.647 OA
ATOM     19  OE2 GLU D 570     -22.199  -6.137 -14.450  1.00 32.92    -0.647 OA
ENDBRANCH  16  17
ENDBRANCH  15  16
ENDBRANCH  14  15
END_RES GLU D 570
ENDMDL
MODEL 8
REMARK VINA RESULT:      -4.5      1.728      2.690
REMARK WARNING: 32 MAX_TORS EXCEEDED!!!
REMARK  36 active torsions:
REMARK  status: ('A' for Active; 'I' for Inactive)
REMARK    1  A    between atoms: C_2  and  C_3 
REMARK    2  A    between atoms: C_2  and  O_55 
REMARK    3  A    between atoms: C_3  and  O_4 
REMARK    4  A    between atoms: O_4  and  C_5 
REMARK    5  A    between atoms: C_5  and  C_6 
REMARK    6  A    between atoms: C_7  and  O_50 
REMARK    7  A    between atoms: C_8  and  O_45 
REMARK    8  A    between atoms: C_9  and  O_40 
REMARK    9  A    between atoms: C_10  and  O_12 
REMARK   10  A    between atoms: O_12  and  C_13 
REMARK   11  A    between atoms: C_14  and  C_34 
REMARK   12  A    between atoms: C_16  and  O_29 
REMARK   13  A    between atoms: C_17  and  O_24 
REMARK   14  A    between atoms: C_18  and  O_19 
REMARK   15  A    between atoms: O_19  and  C_20 
REMARK   16  A    between atoms: C_20  and  C_21 
REMARK   17  A    between atoms: C_21  and  O_23 
REMARK   18  A    between atoms: O_24  and  C_25 
REMARK   19  A    between atoms: C_25  and  C_26 
REMARK   20  A    between atoms: C_26  and  O_28 
REMARK   21  A    between atoms: O_29  and  C_30 
REMARK   22  A    between atoms: C_30  and  C_31 
REMARK   23  A    between atoms: C_31  and  O_33 
REMARK   24  A    between atoms: C_34  and  O_35 
REMARK   25  A    between atoms: O_35  and  C_36 
REMARK   26  A    between atoms: C_36  and  C_37 
REMARK   27  A    between atoms: C_37  and  O_39 
REMARK   28  A    between atoms: O_40  and  C_41 
REMARK   29  A    between atoms: C_41  and  C_42 
REMARK   30  A    between atoms: C_42  and  O_44 
REMARK   31  A    between atoms: O_45  and  C_46 
REMARK   32  A    between atoms: C_46  and  C_47 
REMARK   33  A    between atoms: C_47  and  O_49 
REMARK   34  A    between atoms: O_50  and  C_51 
REMARK   35  A    between atoms: C_51  and  C_52 
REMARK   36  A    between atoms: C_52  and  O_54 
ROOT
HETATM    1  O   UNL     1     -20.029 -12.742  -2.841  1.00  0.00    -0.348 OA
ENDROOT
BRANCH   1   2
HETATM    2  C   UNL     1     -19.573 -11.430  -3.208  1.00  0.00     0.292 C 
HETATM    3  C   UNL     1     -20.545 -10.288  -2.775  1.00  0.00     0.208 C 
HETATM    4  C   UNL     1     -19.942  -8.964  -3.337  1.00  0.00     0.186 C 
HETATM    5  C   UNL     1     -20.012  -9.047  -4.872  1.00  0.00     0.184 C 
HETATM    6  C   UNL     1     -19.114 -10.212  -5.328  1.00  0.00     0.180 C 
HETATM    7  O   UNL     1     -19.105 -11.405  -4.543  1.00  0.00    -0.348 OA
BRANCH   3   8
HETATM    8  O   UNL     1     -21.961 -10.514  -2.908  1.00  0.00    -0.376 OA
BRANCH   8   9
HETATM    9  C   UNL     1     -22.626 -10.755  -4.133  1.00  0.00     0.199 C 
BRANCH   9  10
HETATM   10  C   UNL     1     -22.980 -12.215  -4.419  1.00  0.00     0.138 C 
HETATM   11  C   UNL     1     -22.220 -12.683  -5.633  1.00  0.00     0.041 C 
BRANCH  10  12
HETATM   12  O   UNL     1     -22.722 -13.011  -3.266  1.00  0.00    -0.394 OA
HETATM   13  H   UNL     1     -22.254 -12.463  -2.614  1.00  0.00     0.210 HD
ENDBRANCH  10  12
ENDBRANCH   9  10
ENDBRANCH   8   9
ENDBRANCH   3   8
BRANCH   4  14
HETATM   14  O   UNL     1     -20.547  -7.820  -2.722  1.00  0.00    -0.378 OA
BRANCH  14  15
HETATM   15  C   UNL     1     -20.818  -8.032  -1.325  1.00  0.00     0.199 C 
BRANCH  15  16
HETATM   16  C   UNL     1     -22.236  -7.583  -0.952  1.00  0.00     0.138 C 
HETATM   17  C   UNL     1     -22.556  -7.767   0.521  1.00  0.00     0.041 C 
BRANCH  16  18
HETATM   18  O   UNL     1     -22.424  -6.210  -1.304  1.00  0.00    -0.394 OA
HETATM   19  H   UNL     1     -21.537  -5.826  -1.423  1.00  0.00     0.210 HD
ENDBRANCH  16  18
ENDBRANCH  15  16
ENDBRANCH  14  15
ENDBRANCH   4  14
BRANCH   5  20
HETATM   20  O   UNL     1     -19.744  -7.843  -5.625  1.00  0.00    -0.378 OA
BRANCH  20  21
HETATM   21  C   UNL     1     -20.999  -7.283  -6.090  1.00  0.00     0.199 C 
BRANCH  21  22
HETATM   22  C   UNL     1     -21.286  -5.909  -5.481  1.00  0.00     0.138 C 
HETATM   23  C   UNL     1     -21.994  -5.033  -6.511  1.00  0.00     0.041 C 
BRANCH  22  24
HETATM   24  O   UNL     1     -22.126  -6.008  -4.333  1.00  0.00    -0.394 OA
HETATM   25  H   UNL     1     -22.330  -6.946  -4.181  1.00  0.00     0.210 HD
ENDBRANCH  22  24
ENDBRANCH  21  22
ENDBRANCH  20  21
ENDBRANCH   5  20
BRANCH   6  26
HETATM   26  C   UNL     1     -17.690  -9.700  -5.567  1.00  0.00     0.202 C 
BRANCH  26  27
HETATM   27  O   UNL     1     -16.753 -10.632  -5.042  1.00  0.00    -0.386 OA
BRANCH  27  28
HETATM   28  C   UNL     1     -15.835 -11.030  -6.064  1.00  0.00     0.199 C 
BRANCH  28  29
HETATM   29  C   UNL     1     -15.098 -12.276  -5.586  1.00  0.00     0.138 C 
HETATM   30  C   UNL     1     -13.591 -12.066  -5.540  1.00  0.00     0.041 C 
BRANCH  29  31
HETATM   31  O   UNL     1     -15.384 -13.347  -6.487  1.00  0.00    -0.394 OA
HETATM   32  H   UNL     1     -14.839 -13.172  -7.279  1.00  0.00     0.210 HD
ENDBRANCH  29  31
ENDBRANCH  28  29
ENDBRANCH  27  28
ENDBRANCH  26  27
ENDBRANCH   6  26
ENDBRANCH   1   2
BRANCH   1  33
HETATM   33  C   UNL     1     -19.036 -13.694  -2.337  1.00  0.00     0.187 C 
HETATM   34  C   UNL     1     -18.424 -14.670  -3.417  1.00  0.00     0.180 C 
HETATM   35  O   UNL     1     -17.103 -15.162  -3.110  1.00  0.00    -0.348 OA
HETATM   36  C   UNL     1     -16.197 -14.132  -2.754  1.00  0.00     0.291 C 
HETATM   37  C   UNL     1     -16.602 -13.641  -1.348  1.00  0.00     0.208 C 
HETATM   38  C   UNL     1     -17.948 -12.884  -1.528  1.00  0.00     0.186 C 
BRANCH  34  39
HETATM   39  C   UNL     1     -18.453 -14.320  -4.926  1.00  0.00     0.202 C 
BRANCH  39  40
HETATM   40  O   UNL     1     -17.758 -15.250  -5.773  1.00  0.00    -0.386 OA
BRANCH  40  41
HETATM   41  C   UNL     1     -18.108 -15.019  -7.149  1.00  0.00     0.199 C 
BRANCH  41  42
HETATM   42  C   UNL     1     -18.988 -13.778  -7.368  1.00  0.00     0.138 C 
HETATM   43  C   UNL     1     -18.376 -12.728  -8.286  1.00  0.00     0.041 C 
BRANCH  42  44
HETATM   44  O   UNL     1     -20.241 -14.194  -7.930  1.00  0.00    -0.394 OA
HETATM   45  H   UNL     1     -20.406 -15.117  -7.670  1.00  0.00     0.210 HD
ENDBRANCH  42  44
ENDBRANCH  41  42
ENDBRANCH  40  41
ENDBRANCH  39  40
ENDBRANCH  34  39
BRANCH  36  46
HETATM   46  O   UNL     1     -14.843 -14.589  -2.716  1.00  0.00    -0.356 OA
BRANCH  46  47
HETATM   47  C   UNL     1     -13.910 -13.593  -2.297  1.00  0.00     0.202 C 
BRANCH  47  48
HETATM   48  C   UNL     1     -12.508 -14.223  -2.212  1.00  0.00     0.138 C 
HETATM   49  C   UNL     1     -12.157 -14.722  -0.815  1.00  0.00     0.041 C 
BRANCH  48  50
HETATM   50  O   UNL     1     -12.409 -15.327  -3.112  1.00  0.00    -0.394 OA
HETATM   51  H   UNL     1     -13.081 -15.976  -2.838  1.00  0.00     0.210 HD
ENDBRANCH  48  50
ENDBRANCH  47  48
ENDBRANCH  46  47
ENDBRANCH  36  46
BRANCH  37  52
HETATM   52  O   UNL     1     -16.687 -14.707  -0.344  1.00  0.00    -0.376 OA
BRANCH  52  53
HETATM   53  C   UNL     1     -15.706 -14.538   0.704  1.00  0.00     0.199 C 
BRANCH  53  54
HETATM   54  C   UNL     1     -16.249 -13.907   1.996  1.00  0.00     0.138 C 
HETATM   55  C   UNL     1     -15.474 -14.296   3.243  1.00  0.00     0.041 C 
BRANCH  54  56
HETATM   56  O   UNL     1     -16.255 -12.485   1.890  1.00  0.00    -0.394 OA
HETATM   57  H   UNL     1     -15.691 -12.269   1.125  1.00  0.00     0.210 HD
ENDBRANCH  54  56
ENDBRANCH  53  54
ENDBRANCH  52  53
ENDBRANCH  37  52
BRANCH  38  58
HETATM   58  O   UNL     1     -18.449 -12.384  -0.239  1.00  0.00    -0.378 OA
BRANCH  58  59
HETATM   59  C   UNL     1     -19.573 -13.152   0.236  1.00  0.00     0.199 C 
BRANCH  59  60
HETATM   60  C   UNL     1     -20.865 -12.361   0.544  1.00  0.00     0.138 C 
HETATM   61  C   UNL     1     -20.686 -10.897   0.900  1.00  0.00     0.041 C 
BRANCH  60  62
HETATM   62  O   UNL     1     -21.813 -12.471  -0.515  1.00  0.00    -0.394 OA
HETATM   63  H   UNL     1     -21.422 -13.050  -1.197  1.00  0.00     0.210 HD
ENDBRANCH  60  62
ENDBRANCH  59  60
ENDBRANCH  58  59
ENDBRANCH  38  58
ENDBRANCH   1  33
TORSDOF 36
BEGIN_RES ARG D 557
REMARK  4 active torsions:
REMARK  status: ('A' for Active; 'I' for Inactive)
REMARK    1  A    between atoms: CA   and  CB  
REMARK    2  A    between atoms: CB   and  CG  
REMARK    3  A    between atoms: CG   and  CD  
REMARK    4  A    between atoms: CD   and  NE  
REMARK       I    between atoms: NE   and  CZ  
REMARK       I    between atoms: CZ   and  NH1 
REMARK       I    between atoms: CZ   and  NH2 
ROOT
ATOM      1  CA  ARG D 557     -26.217   2.705 -17.014  1.00 35.49     0.159 C 
ENDROOT
BRANCH   1   2
ATOM      2  CB  ARG D 557     -26.789   1.319 -17.183  1.00 35.49     0.034 C 
BRANCH   2   3
ATOM      3  CG  ARG D 557     -25.961   0.201 -16.714  1.00 35.49     0.027 C 
BRANCH   3   4
ATOM      4  CD  ARG D 557     -26.761  -0.850 -16.044  1.00 35.49     0.116 C 
BRANCH   4   5
ATOM      5  NE  ARG D 557     -28.008  -1.095 -16.718  1.00 35.49    -0.212 N 
ATOM      6  CZ  ARG D 557     -28.531  -2.276 -16.961  1.00 35.49     0.666 C 
ATOM      7  NH1 ARG D 557     -27.936  -3.401 -16.610  1.00 35.49    -0.235 N 
ATOM      8  NH2 ARG D 557     -29.683  -2.310 -17.565  1.00 35.49    -0.235 N 
ATOM      9  HH  ARG D 557     -27.178  -3.403 -16.210  1.00 35.49     0.174 HD
ATOM     10  HH  ARG D 557     -28.326  -4.142 -16.793  1.00 35.49     0.174 HD
ATOM     11  HH  ARG D 557     -30.048  -1.567 -17.773  1.00 35.49     0.174 HD
ATOM     12  HH  ARG D 557     -30.054  -3.053 -17.736  1.00 35.49     0.174 HD
ATOM     13  HE  ARG D 557     -28.424  -0.429 -17.043  1.00 35.49     0.178 HD
ENDBRANCH   4   5
ENDBRANCH   3   4
ENDBRANCH   2   3
ENDBRANCH   1   2
END_RES ARG D 557
BEGIN_RES GLU D 570
REMARK  3 active torsions:
REMARK  status: ('A' for Active; 'I' for Inactive)
REMARK    5  A    between atoms: CA   and  CB  
REMARK    6  A    between atoms: CB   and  CG  
REMARK    7  A    between atoms: CG   and  CD  
ROOT
ATOM     14  CA  GLU D 570     -18.033  -6.348 -13.375  1.00 32.92     0.160 C 
ENDROOT
BRANCH  14  15
ATOM     15  CB  GLU D 570     -19.500  -6.345 -13.794  1.00 32.92     0.043 C 
BRANCH  15  16
ATOM     16  CG  GLU D 570     -20.075  -7.625 -14.282  1.00 32.92     0.100 C 
BRANCH  16  17
ATOM     17  CD  GLU D 570     -21.182  -7.427 -15.291  1.00 32.92     0.185 C 
ATOM     18  OE1 GLU D 570     -22.104  -6.630 -15.030  1.00 32.92    -0.647 OA
ATOM     19  OE2 GLU D 570     -21.136  -8.088 -16.348  1.00 32.92    -0.647 OA
ENDBRANCH  16  17
ENDBRANCH  15  16
ENDBRANCH  14  15
END_RES GLU D 570
ENDMDL
MODEL 9
REMARK VINA RESULT:      -4.3      2.376      7.577
REMARK WARNING: 32 MAX_TORS EXCEEDED!!!
REMARK  36 active torsions:
REMARK  status: ('A' for Active; 'I' for Inactive)
REMARK    1  A    between atoms: C_2  and  C_3 
REMARK    2  A    between atoms: C_2  and  O_55 
REMARK    3  A    between atoms: C_3  and  O_4 
REMARK    4  A    between atoms: O_4  and  C_5 
REMARK    5  A    between atoms: C_5  and  C_6 
REMARK    6  A    between atoms: C_7  and  O_50 
REMARK    7  A    between atoms: C_8  and  O_45 
REMARK    8  A    between atoms: C_9  and  O_40 
REMARK    9  A    between atoms: C_10  and  O_12 
REMARK   10  A    between atoms: O_12  and  C_13 
REMARK   11  A    between atoms: C_14  and  C_34 
REMARK   12  A    between atoms: C_16  and  O_29 
REMARK   13  A    between atoms: C_17  and  O_24 
REMARK   14  A    between atoms: C_18  and  O_19 
REMARK   15  A    between atoms: O_19  and  C_20 
REMARK   16  A    between atoms: C_20  and  C_21 
REMARK   17  A    between atoms: C_21  and  O_23 
REMARK   18  A    between atoms: O_24  and  C_25 
REMARK   19  A    between atoms: C_25  and  C_26 
REMARK   20  A    between atoms: C_26  and  O_28 
REMARK   21  A    between atoms: O_29  and  C_30 
REMARK   22  A    between atoms: C_30  and  C_31 
REMARK   23  A    between atoms: C_31  and  O_33 
REMARK   24  A    between atoms: C_34  and  O_35 
REMARK   25  A    between atoms: O_35  and  C_36 
REMARK   26  A    between atoms: C_36  and  C_37 
REMARK   27  A    between atoms: C_37  and  O_39 
REMARK   28  A    between atoms: O_40  and  C_41 
REMARK   29  A    between atoms: C_41  and  C_42 
REMARK   30  A    between atoms: C_42  and  O_44 
REMARK   31  A    between atoms: O_45  and  C_46 
REMARK   32  A    between atoms: C_46  and  C_47 
REMARK   33  A    between atoms: C_47  and  O_49 
REMARK   34  A    between atoms: O_50  and  C_51 
REMARK   35  A    between atoms: C_51  and  C_52 
REMARK   36  A    between atoms: C_52  and  O_54 
ROOT
HETATM    1  O   UNL     1     -21.097  -9.300  -2.951  1.00  0.00    -0.348 OA
ENDROOT
BRANCH   1   2
HETATM    2  C   UNL     1     -20.352 -10.524  -2.845  1.00  0.00     0.292 C 
HETATM    3  C   UNL     1     -20.996 -11.565  -1.875  1.00  0.00     0.208 C 
HETATM    4  C   UNL     1     -20.010 -12.772  -1.814  1.00  0.00     0.186 C 
HETATM    5  C   UNL     1     -18.721 -12.274  -1.137  1.00  0.00     0.184 C 
HETATM    6  C   UNL     1     -18.096 -11.194  -2.038  1.00  0.00     0.180 C 
HETATM    7  O   UNL     1     -18.969 -10.270  -2.690  1.00  0.00    -0.348 OA
BRANCH   3   8
HETATM    8  O   UNL     1     -21.577 -11.083  -0.649  1.00  0.00    -0.376 OA
BRANCH   8   9
HETATM    9  C   UNL     1     -21.930 -11.902   0.449  1.00  0.00     0.199 C 
BRANCH   9  10
HETATM   10  C   UNL     1     -23.382 -12.377   0.482  1.00  0.00     0.138 C 
HETATM   11  C   UNL     1     -24.184 -11.599  -0.529  1.00  0.00     0.041 C 
BRANCH  10  12
HETATM   12  O   UNL     1     -23.438 -13.784   0.264  1.00  0.00    -0.394 OA
HETATM   13  H   UNL     1     -23.959 -14.184   0.980  1.00  0.00     0.210 HD
ENDBRANCH  10  12
ENDBRANCH   9  10
ENDBRANCH   8   9
ENDBRANCH   3   8
BRANCH   4  14
HETATM   14  O   UNL     1     -20.640 -13.923  -1.239  1.00  0.00    -0.378 OA
BRANCH  14  15
HETATM   15  C   UNL     1     -20.274 -15.140  -1.915  1.00  0.00     0.199 C 
BRANCH  15  16
HETATM   16  C   UNL     1     -21.302 -15.518  -2.989  1.00  0.00     0.138 C 
HETATM   17  C   UNL     1     -22.631 -14.802  -2.825  1.00  0.00     0.041 C 
BRANCH  16  18
HETATM   18  O   UNL     1     -20.777 -15.239  -4.289  1.00  0.00    -0.394 OA
HETATM   19  H   UNL     1     -21.387 -14.605  -4.709  1.00  0.00     0.210 HD
ENDBRANCH  16  18
ENDBRANCH  15  16
ENDBRANCH  14  15
ENDBRANCH   4  14
BRANCH   5  20
HETATM   20  O   UNL     1     -17.746 -13.262  -0.736  1.00  0.00    -0.378 OA
BRANCH  20  21
HETATM   21  C   UNL     1     -17.618 -13.246   0.709  1.00  0.00     0.199 C 
BRANCH  21  22
HETATM   22  C   UNL     1     -16.179 -12.999   1.166  1.00  0.00     0.138 C 
HETATM   23  C   UNL     1     -15.216 -13.396   0.050  1.00  0.00     0.041 C 
BRANCH  22  24
HETATM   24  O   UNL     1     -15.955 -11.625   1.476  1.00  0.00    -0.394 OA
HETATM   25  H   UNL     1     -15.029 -11.411   1.271  1.00  0.00     0.210 HD
ENDBRANCH  22  24
ENDBRANCH  21  22
ENDBRANCH  20  21
ENDBRANCH   5  20
BRANCH   6  26
HETATM   26  C   UNL     1     -17.142 -11.849  -3.040  1.00  0.00     0.202 C 
BRANCH  26  27
HETATM   27  O   UNL     1     -16.319 -10.855  -3.638  1.00  0.00    -0.386 OA
BRANCH  27  28
HETATM   28  C   UNL     1     -15.421 -11.461  -4.572  1.00  0.00     0.199 C 
BRANCH  28  29
HETATM   29  C   UNL     1     -15.735 -10.914  -5.960  1.00  0.00     0.138 C 
HETATM   30  C   UNL     1     -16.851  -9.879  -5.928  1.00  0.00     0.041 C 
BRANCH  29  31
HETATM   31  O   UNL     1     -16.143 -12.001  -6.794  1.00  0.00    -0.394 OA
HETATM   32  H   UNL     1     -15.314 -12.413  -7.106  1.00  0.00     0.210 HD
ENDBRANCH  29  31
ENDBRANCH  28  29
ENDBRANCH  27  28
ENDBRANCH  26  27
ENDBRANCH   6  26
ENDBRANCH   1   2
BRANCH   1  33
HETATM   33  C   UNL     1     -20.590  -8.268  -3.857  1.00  0.00     0.187 C 
HETATM   34  C   UNL     1     -20.429  -8.710  -5.365  1.00  0.00     0.180 C 
HETATM   35  O   UNL     1     -20.515  -7.636  -6.324  1.00  0.00    -0.348 OA
HETATM   36  C   UNL     1     -21.653  -6.813  -6.133  1.00  0.00     0.291 C 
HETATM   37  C   UNL     1     -21.397  -5.977  -4.860  1.00  0.00     0.208 C 
HETATM   38  C   UNL     1     -21.474  -6.974  -3.669  1.00  0.00     0.186 C 
BRANCH  34  39
HETATM   39  C   UNL     1     -21.217  -9.914  -5.939  1.00  0.00     0.202 C 
BRANCH  39  40
HETATM   40  O   UNL     1     -20.415 -11.062  -6.257  1.00  0.00    -0.386 OA
BRANCH  40  41
HETATM   41  C   UNL     1     -21.260 -12.195  -6.525  1.00  0.00     0.199 C 
BRANCH  41  42
HETATM   42  C   UNL     1     -20.735 -13.114  -7.639  1.00  0.00     0.138 C 
HETATM   43  C   UNL     1     -19.325 -12.786  -8.112  1.00  0.00     0.041 C 
BRANCH  42  44
HETATM   44  O   UNL     1     -20.748 -14.468  -7.165  1.00  0.00    -0.394 OA
HETATM   45  H   UNL     1     -21.670 -14.732  -7.006  1.00  0.00     0.210 HD
ENDBRANCH  42  44
ENDBRANCH  41  42
ENDBRANCH  40  41
ENDBRANCH  39  40
ENDBRANCH  34  39
BRANCH  36  46
HETATM   46  O   UNL     1     -21.875  -5.928  -7.234  1.00  0.00    -0.356 OA
BRANCH  46  47
HETATM   47  C   UNL     1     -22.969  -5.031  -7.041  1.00  0.00     0.202 C 
BRANCH  47  48
HETATM   48  C   UNL     1     -23.097  -4.124  -8.278  1.00  0.00     0.138 C 
HETATM   49  C   UNL     1     -22.673  -4.810  -9.573  1.00  0.00     0.041 C 
BRANCH  48  50
HETATM   50  O   UNL     1     -24.449  -3.690  -8.432  1.00  0.00    -0.394 OA
HETATM   51  H   UNL     1     -25.007  -4.335  -7.963  1.00  0.00     0.210 HD
ENDBRANCH  48  50
ENDBRANCH  47  48
ENDBRANCH  46  47
ENDBRANCH  36  46
BRANCH  37  52
HETATM   52  O   UNL     1     -20.137  -5.225  -4.883  1.00  0.00    -0.376 OA
BRANCH  52  53
HETATM   53  C   UNL     1     -20.114  -4.249  -5.949  1.00  0.00     0.199 C 
BRANCH  53  54
HETATM   54  C   UNL     1     -19.163  -4.585  -7.109  1.00  0.00     0.138 C 
HETATM   55  C   UNL     1     -19.484  -3.853  -8.400  1.00  0.00     0.041 C 
BRANCH  54  56
HETATM   56  O   UNL     1     -17.815  -4.296  -6.746  1.00  0.00    -0.394 OA
HETATM   57  H   UNL     1     -17.626  -4.835  -5.955  1.00  0.00     0.210 HD
ENDBRANCH  54  56
ENDBRANCH  53  54
ENDBRANCH  52  53
ENDBRANCH  37  52
BRANCH  38  58
HETATM   58  O   UNL     1     -21.222  -6.289  -2.392  1.00  0.00    -0.378 OA
BRANCH  58  59
HETATM   59  C   UNL     1     -22.315  -6.459  -1.466  1.00  0.00     0.199 C 
BRANCH  59  60
HETATM   60  C   UNL     1     -22.018  -7.292  -0.198  1.00  0.00     0.138 C 
HETATM   61  C   UNL     1     -23.178  -8.088   0.369  1.00  0.00     0.041 C 
BRANCH  60  62
HETATM   62  O   UNL     1     -20.906  -8.164  -0.392  1.00  0.00    -0.394 OA
HETATM   63  H   UNL     1     -20.997  -8.898   0.244  1.00  0.00     0.210 HD
ENDBRANCH  60  62
ENDBRANCH  59  60
ENDBRANCH  58  59
ENDBRANCH  38  58
ENDBRANCH   1  33
TORSDOF 36
BEGIN_RES ARG D 557
REMARK  4 active torsions:
REMARK  status: ('A' for Active; 'I' for Inactive)
REMARK    1  A    between atoms: CA   and  CB  
REMARK    2  A    between atoms: CB   and  CG  
REMARK    3  A    between atoms: CG   and  CD  
REMARK    4  A    between atoms: CD   and  NE  
REMARK       I    between atoms: NE   and  CZ  
REMARK       I    between atoms: CZ   and  NH1 
REMARK       I    between atoms: CZ   and  NH2 
ROOT
ATOM      1  CA  ARG D 557     -26.217   2.705 -17.014  1.00 35.49     0.159 C 
ENDROOT
BRANCH   1   2
ATOM      2  CB  ARG D 557     -26.789   1.319 -17.183  1.00 35.49     0.034 C 
BRANCH   2   3
ATOM      3  CG  ARG D 557     -25.862   0.195 -17.004  1.00 35.49     0.027 C 
BRANCH   3   4
ATOM      4  CD  ARG D 557     -26.269  -0.701 -15.898  1.00 35.49     0.116 C 
BRANCH   4   5
ATOM      5  NE  ARG D 557     -25.221  -0.874 -14.926  1.00 35.49    -0.212 N 
ATOM      6  CZ  ARG D 557     -24.895  -2.005 -14.341  1.00 35.49     0.666 C 
ATOM      7  NH1 ARG D 557     -25.528  -3.138 -14.584  1.00 35.49    -0.235 N 
ATOM      8  NH2 ARG D 557     -23.902  -1.981 -13.500  1.00 35.49    -0.235 N 
ATOM      9  HH  ARG D 557     -26.183  -3.177 -15.136  1.00 35.49     0.174 HD
ATOM     10  HH  ARG D 557     -25.270  -3.844 -14.175  1.00 35.49     0.174 HD
ATOM     11  HH  ARG D 557     -23.507  -1.237 -13.368  1.00 35.49     0.174 HD
ATOM     12  HH  ARG D 557     -23.660  -2.692 -13.106  1.00 35.49     0.174 HD
ATOM     13  HE  ARG D 557     -24.809  -0.181 -14.657  1.00 35.49     0.178 HD
ENDBRANCH   4   5
ENDBRANCH   3   4
ENDBRANCH   2   3
ENDBRANCH   1   2
END_RES ARG D 557
BEGIN_RES GLU D 570
REMARK  3 active torsions:
REMARK  status: ('A' for Active; 'I' for Inactive)
REMARK    5  A    between atoms: CA   and  CB  
REMARK    6  A    between atoms: CB   and  CG  
REMARK    7  A    between atoms: CG   and  CD  
ROOT
ATOM     14  CA  GLU D 570     -18.033  -6.348 -13.375  1.00 32.92     0.160 C 
ENDROOT
BRANCH  14  15
ATOM     15  CB  GLU D 570     -19.500  -6.345 -13.794  1.00 32.92     0.043 C 
BRANCH  15  16
ATOM     16  CG  GLU D 570     -20.445  -5.547 -12.971  1.00 32.92     0.100 C 
BRANCH  16  17
ATOM     17  CD  GLU D 570     -21.725  -5.212 -13.701  1.00 32.92     0.185 C 
ATOM     18  OE1 GLU D 570     -21.888  -5.636 -14.862  1.00 32.92    -0.647 OA
ATOM     19  OE2 GLU D 570     -22.565  -4.504 -13.113  1.00 32.92    -0.647 OA
ENDBRANCH  16  17
ENDBRANCH  15  16
ENDBRANCH  14  15
END_RES GLU D 570
ENDMDL
