MODEL 1
REMARK VINA RESULT:      -7.1      0.000      0.000
REMARK  17 active torsions:
REMARK  status: ('A' for Active; 'I' for Inactive)
REMARK    1  A    between atoms: C_2  and  C_3 
REMARK    2  A    between atoms: C_3  and  C_4 
REMARK    3  A    between atoms: C_4  and  C_5 
REMARK    4  A    between atoms: C_5  and  C_6 
REMARK    5  A    between atoms: C_6  and  C_7 
REMARK    6  A    between atoms: C_7  and  C_8 
REMARK    7  A    between atoms: C_8  and  C_9 
REMARK    8  A    between atoms: C_9  and  C_10 
REMARK    9  A    between atoms: C_10  and  C_11 
REMARK   10  A    between atoms: C_11  and  C_12 
REMARK   11  A    between atoms: C_12  and  C_13 
REMARK   12  A    between atoms: C_13  and  C_14 
REMARK   13  A    between atoms: C_14  and  C_15 
REMARK   14  A    between atoms: C_15  and  C_16 
REMARK   15  A    between atoms: C_16  and  C_17 
REMARK   16  A    between atoms: C_17  and  C_18 
REMARK   17  A    between atoms: C_18  and  N_19 
ROOT
HETATM    1  C   UNL     1     -19.742  -4.884  -6.488  1.00  0.00     0.000 C 
ENDROOT
BRANCH   1   2
HETATM    2  C   UNL     1     -20.787  -5.291  -5.468  1.00  0.00     0.000 C 
BRANCH   2   3
HETATM    3  C   UNL     1     -20.851  -6.803  -5.378  1.00  0.00     0.000 C 
BRANCH   3   4
HETATM    4  C   UNL     1     -21.231  -7.217  -3.969  1.00  0.00     0.000 C 
BRANCH   4   5
HETATM    5  C   UNL     1     -21.321  -5.991  -3.080  1.00  0.00     0.000 C 
BRANCH   5   6
HETATM    6  C   UNL     1     -22.189  -6.293  -1.872  1.00  0.00     0.000 C 
BRANCH   6   7
HETATM    7  C   UNL     1     -21.822  -7.649  -1.299  1.00  0.00     0.000 C 
BRANCH   7   8
HETATM    8  C   UNL     1     -22.187  -7.705   0.175  1.00  0.00     0.000 C 
BRANCH   8   9
HETATM    9  C   UNL     1     -23.233  -8.782   0.413  1.00  0.00    -0.000 C 
BRANCH   9  10
HETATM   10  C   UNL     1     -22.814 -10.086  -0.249  1.00  0.00    -0.005 C 
HETATM   11  C   UNL     1     -24.017 -10.989  -0.446  1.00  0.00     0.005 C 
ENDBRANCH   9  10
ENDBRANCH   8   9
ENDBRANCH   7   8
ENDBRANCH   6   7
ENDBRANCH   5   6
ENDBRANCH   4   5
ENDBRANCH   3   4
ENDBRANCH   2   3
ENDBRANCH   1   2
BRANCH   1  12
HETATM   12  C   UNL     1     -20.185  -5.311  -7.872  1.00  0.00     0.000 C 
BRANCH  12  13
HETATM   13  C   UNL     1     -20.565  -4.092  -8.687  1.00  0.00     0.000 C 
BRANCH  13  14
HETATM   14  C   UNL     1     -21.496  -4.508  -9.805  1.00  0.00     0.000 C 
BRANCH  14  15
HETATM   15  C   UNL     1     -22.931  -4.366  -9.346  1.00  0.00     0.000 C 
BRANCH  15  16
HETATM   16  C   UNL     1     -23.849  -4.671 -10.521  1.00  0.00     0.002 C 
BRANCH  16  17
HETATM   17  C   UNL     1     -23.196  -4.152 -11.774  1.00  0.00     0.036 C 
BRANCH  17  18
HETATM   18  C   UNL     1     -24.158  -3.316 -12.609  1.00  0.00     0.311 C 
BRANCH  18  19
HETATM   19  N   UNL     1     -23.863  -3.418 -14.079  1.00  0.00     0.005 N 
HETATM   20  C   UNL     1     -23.502  -2.064 -14.644  1.00  0.00     0.355 C 
HETATM   21  C   UNL     1     -22.725  -4.372 -14.321  1.00  0.00     0.355 C 
HETATM   22  O   UNL     1     -24.972  -3.892 -14.742  1.00  0.00    -0.065 OA
ENDBRANCH  18  19
ENDBRANCH  17  18
ENDBRANCH  16  17
ENDBRANCH  15  16
ENDBRANCH  14  15
ENDBRANCH  13  14
ENDBRANCH  12  13
ENDBRANCH   1  12
TORSDOF 17
BEGIN_RES ARG D 557
REMARK  4 active torsions:
REMARK  status: ('A' for Active; 'I' for Inactive)
REMARK    1  A    between atoms: CA   and  CB  
REMARK    2  A    between atoms: CB   and  CG  
REMARK    3  A    between atoms: CG   and  CD  
REMARK    4  A    between atoms: CD   and  NE  
REMARK       I    between atoms: NE   and  CZ  
REMARK       I    between atoms: CZ   and  NH1 
REMARK       I    between atoms: CZ   and  NH2 
ROOT
ATOM      1  CA  ARG D 557     -26.217   2.705 -17.014  1.00 35.49     0.159 C 
ENDROOT
BRANCH   1   2
ATOM      2  CB  ARG D 557     -26.789   1.319 -17.183  1.00 35.49     0.034 C 
BRANCH   2   3
ATOM      3  CG  ARG D 557     -25.958   0.200 -16.722  1.00 35.49     0.027 C 
BRANCH   3   4
ATOM      4  CD  ARG D 557     -26.743  -0.827 -16.001  1.00 35.49     0.116 C 
BRANCH   4   5
ATOM      5  NE  ARG D 557     -27.950  -1.178 -16.702  1.00 35.49    -0.212 N 
ATOM      6  CZ  ARG D 557     -28.394  -2.398 -16.904  1.00 35.49     0.666 C 
ATOM      7  NH1 ARG D 557     -27.745  -3.468 -16.482  1.00 35.49    -0.235 N 
ATOM      8  NH2 ARG D 557     -29.520  -2.529 -17.543  1.00 35.49    -0.235 N 
ATOM      9  HH  ARG D 557     -27.003  -3.405 -16.058  1.00 35.49     0.174 HD
ATOM     10  HH  ARG D 557     -28.084  -4.238 -16.641  1.00 35.49     0.174 HD
ATOM     11  HH  ARG D 557     -29.921  -1.821 -17.797  1.00 35.49     0.174 HD
ATOM     12  HH  ARG D 557     -29.840  -3.301 -17.689  1.00 35.49     0.174 HD
ATOM     13  HE  ARG D 557     -28.394  -0.553 -17.071  1.00 35.49     0.178 HD
ENDBRANCH   4   5
ENDBRANCH   3   4
ENDBRANCH   2   3
ENDBRANCH   1   2
END_RES ARG D 557
BEGIN_RES GLU D 570
REMARK  3 active torsions:
REMARK  status: ('A' for Active; 'I' for Inactive)
REMARK    5  A    between atoms: CA   and  CB  
REMARK    6  A    between atoms: CB   and  CG  
REMARK    7  A    between atoms: CG   and  CD  
ROOT
ATOM     14  CA  GLU D 570     -18.033  -6.348 -13.375  1.00 32.92     0.160 C 
ENDROOT
BRANCH  14  15
ATOM     15  CB  GLU D 570     -19.500  -6.345 -13.794  1.00 32.92     0.043 C 
BRANCH  15  16
ATOM     16  CG  GLU D 570     -20.085  -7.634 -14.246  1.00 32.92     0.100 C 
BRANCH  16  17
ATOM     17  CD  GLU D 570     -20.682  -7.556 -15.632  1.00 32.92     0.185 C 
ATOM     18  OE1 GLU D 570     -21.206  -8.574 -16.123  1.00 32.92    -0.647 OA
ATOM     19  OE2 GLU D 570     -20.610  -6.469 -16.239  1.00 32.92    -0.647 OA
ENDBRANCH  16  17
ENDBRANCH  15  16
ENDBRANCH  14  15
END_RES GLU D 570
ENDMDL
MODEL 2
REMARK VINA RESULT:      -6.8      1.597      2.629
REMARK  17 active torsions:
REMARK  status: ('A' for Active; 'I' for Inactive)
REMARK    1  A    between atoms: C_2  and  C_3 
REMARK    2  A    between atoms: C_3  and  C_4 
REMARK    3  A    between atoms: C_4  and  C_5 
REMARK    4  A    between atoms: C_5  and  C_6 
REMARK    5  A    between atoms: C_6  and  C_7 
REMARK    6  A    between atoms: C_7  and  C_8 
REMARK    7  A    between atoms: C_8  and  C_9 
REMARK    8  A    between atoms: C_9  and  C_10 
REMARK    9  A    between atoms: C_10  and  C_11 
REMARK   10  A    between atoms: C_11  and  C_12 
REMARK   11  A    between atoms: C_12  and  C_13 
REMARK   12  A    between atoms: C_13  and  C_14 
REMARK   13  A    between atoms: C_14  and  C_15 
REMARK   14  A    between atoms: C_15  and  C_16 
REMARK   15  A    between atoms: C_16  and  C_17 
REMARK   16  A    between atoms: C_17  and  C_18 
REMARK   17  A    between atoms: C_18  and  N_19 
ROOT
HETATM    1  C   UNL     1     -20.821  -6.863  -5.494  1.00  0.00     0.000 C 
ENDROOT
BRANCH   1   2
HETATM    2  C   UNL     1     -21.691  -7.597  -4.494  1.00  0.00     0.000 C 
BRANCH   2   3
HETATM    3  C   UNL     1     -21.183  -7.338  -3.089  1.00  0.00     0.000 C 
BRANCH   3   4
HETATM    4  C   UNL     1     -22.132  -6.402  -2.366  1.00  0.00     0.000 C 
BRANCH   4   5
HETATM    5  C   UNL     1     -22.259  -6.821  -0.913  1.00  0.00     0.000 C 
BRANCH   5   6
HETATM    6  C   UNL     1     -21.975  -8.307  -0.780  1.00  0.00     0.000 C 
BRANCH   6   7
HETATM    7  C   UNL     1     -23.052  -8.964   0.063  1.00  0.00     0.000 C 
BRANCH   7   8
HETATM    8  C   UNL     1     -22.924 -10.476  -0.018  1.00  0.00     0.000 C 
BRANCH   8   9
HETATM    9  C   UNL     1     -23.753 -11.010  -1.174  1.00  0.00    -0.000 C 
BRANCH   9  10
HETATM   10  C   UNL     1     -22.877 -11.791  -2.141  1.00  0.00    -0.005 C 
HETATM   11  C   UNL     1     -22.799 -11.076  -3.477  1.00  0.00     0.005 C 
ENDBRANCH   9  10
ENDBRANCH   8   9
ENDBRANCH   7   8
ENDBRANCH   6   7
ENDBRANCH   5   6
ENDBRANCH   4   5
ENDBRANCH   3   4
ENDBRANCH   2   3
ENDBRANCH   1   2
BRANCH   1  12
HETATM   12  C   UNL     1     -21.533  -5.615  -5.974  1.00  0.00     0.000 C 
BRANCH  12  13
HETATM   13  C   UNL     1     -20.537  -4.484  -6.127  1.00  0.00     0.000 C 
BRANCH  13  14
HETATM   14  C   UNL     1     -19.534  -4.843  -7.201  1.00  0.00     0.000 C 
BRANCH  14  15
HETATM   15  C   UNL     1     -19.747  -3.955  -8.408  1.00  0.00     0.000 C 
BRANCH  15  16
HETATM   16  C   UNL     1     -20.487  -4.752  -9.473  1.00  0.00     0.002 C 
BRANCH  16  17
HETATM   17  C   UNL     1     -21.182  -3.780 -10.389  1.00  0.00     0.036 C 
BRANCH  17  18
HETATM   18  C   UNL     1     -22.663  -3.650 -10.056  1.00  0.00     0.311 C 
BRANCH  18  19
HETATM   19  N   UNL     1     -23.514  -3.578 -11.293  1.00  0.00     0.005 N 
HETATM   20  C   UNL     1     -22.956  -2.563 -12.264  1.00  0.00     0.355 C 
HETATM   21  C   UNL     1     -23.575  -4.922 -11.966  1.00  0.00     0.355 C 
HETATM   22  O   UNL     1     -24.795  -3.206 -10.952  1.00  0.00    -0.065 OA
ENDBRANCH  18  19
ENDBRANCH  17  18
ENDBRANCH  16  17
ENDBRANCH  15  16
ENDBRANCH  14  15
ENDBRANCH  13  14
ENDBRANCH  12  13
ENDBRANCH   1  12
TORSDOF 17
BEGIN_RES ARG D 557
REMARK  4 active torsions:
REMARK  status: ('A' for Active; 'I' for Inactive)
REMARK    1  A    between atoms: CA   and  CB  
REMARK    2  A    between atoms: CB   and  CG  
REMARK    3  A    between atoms: CG   and  CD  
REMARK    4  A    between atoms: CD   and  NE  
REMARK       I    between atoms: NE   and  CZ  
REMARK       I    between atoms: CZ   and  NH1 
REMARK       I    between atoms: CZ   and  NH2 
ROOT
ATOM      1  CA  ARG D 557     -26.217   2.705 -17.014  1.00 35.49     0.159 C 
ENDROOT
BRANCH   1   2
ATOM      2  CB  ARG D 557     -26.789   1.319 -17.183  1.00 35.49     0.034 C 
BRANCH   2   3
ATOM      3  CG  ARG D 557     -28.247   1.189 -17.079  1.00 35.49     0.027 C 
BRANCH   3   4
ATOM      4  CD  ARG D 557     -28.667  -0.185 -16.720  1.00 35.49     0.116 C 
BRANCH   4   5
ATOM      5  NE  ARG D 557     -27.626  -0.910 -16.041  1.00 35.49    -0.212 N 
ATOM      6  CZ  ARG D 557     -27.428  -2.208 -16.102  1.00 35.49     0.666 C 
ATOM      7  NH1 ARG D 557     -28.203  -3.011 -16.808  1.00 35.49    -0.235 N 
ATOM      8  NH2 ARG D 557     -26.420  -2.694 -15.437  1.00 35.49    -0.235 N 
ATOM      9  HH  ARG D 557     -28.871  -2.713 -17.254  1.00 35.49     0.174 HD
ATOM     10  HH  ARG D 557     -28.024  -3.849 -16.812  1.00 35.49     0.174 HD
ATOM     11  HH  ARG D 557     -25.933  -2.151 -14.996  1.00 35.49     0.174 HD
ATOM     12  HH  ARG D 557     -26.259  -3.526 -15.455  1.00 35.49     0.174 HD
ATOM     13  HE  ARG D 557     -27.124  -0.481 -15.505  1.00 35.49     0.178 HD
ENDBRANCH   4   5
ENDBRANCH   3   4
ENDBRANCH   2   3
ENDBRANCH   1   2
END_RES ARG D 557
BEGIN_RES GLU D 570
REMARK  3 active torsions:
REMARK  status: ('A' for Active; 'I' for Inactive)
REMARK    5  A    between atoms: CA   and  CB  
REMARK    6  A    between atoms: CB   and  CG  
REMARK    7  A    between atoms: CG   and  CD  
ROOT
ATOM     14  CA  GLU D 570     -18.033  -6.348 -13.375  1.00 32.92     0.160 C 
ENDROOT
BRANCH  14  15
ATOM     15  CB  GLU D 570     -19.500  -6.345 -13.794  1.00 32.92     0.043 C 
BRANCH  15  16
ATOM     16  CG  GLU D 570     -19.796  -6.275 -15.248  1.00 32.92     0.100 C 
BRANCH  16  17
ATOM     17  CD  GLU D 570     -21.234  -5.910 -15.540  1.00 32.92     0.185 C 
ATOM     18  OE1 GLU D 570     -21.612  -4.739 -15.348  1.00 32.92    -0.647 OA
ATOM     19  OE2 GLU D 570     -21.993  -6.810 -15.949  1.00 32.92    -0.647 OA
ENDBRANCH  16  17
ENDBRANCH  15  16
ENDBRANCH  14  15
END_RES GLU D 570
ENDMDL
MODEL 3
REMARK VINA RESULT:      -6.7      3.883      8.636
REMARK  17 active torsions:
REMARK  status: ('A' for Active; 'I' for Inactive)
REMARK    1  A    between atoms: C_2  and  C_3 
REMARK    2  A    between atoms: C_3  and  C_4 
REMARK    3  A    between atoms: C_4  and  C_5 
REMARK    4  A    between atoms: C_5  and  C_6 
REMARK    5  A    between atoms: C_6  and  C_7 
REMARK    6  A    between atoms: C_7  and  C_8 
REMARK    7  A    between atoms: C_8  and  C_9 
REMARK    8  A    between atoms: C_9  and  C_10 
REMARK    9  A    between atoms: C_10  and  C_11 
REMARK   10  A    between atoms: C_11  and  C_12 
REMARK   11  A    between atoms: C_12  and  C_13 
REMARK   12  A    between atoms: C_13  and  C_14 
REMARK   13  A    between atoms: C_14  and  C_15 
REMARK   14  A    between atoms: C_15  and  C_16 
REMARK   15  A    between atoms: C_16  and  C_17 
REMARK   16  A    between atoms: C_17  and  C_18 
REMARK   17  A    between atoms: C_18  and  N_19 
ROOT
HETATM    1  C   UNL     1     -21.829  -6.947  -3.612  1.00  0.00     0.000 C 
ENDROOT
BRANCH   1   2
HETATM    2  C   UNL     1     -20.784  -7.415  -4.604  1.00  0.00     0.000 C 
BRANCH   2   3
HETATM    3  C   UNL     1     -21.144  -6.927  -5.993  1.00  0.00     0.000 C 
BRANCH   3   4
HETATM    4  C   UNL     1     -21.354  -5.425  -5.970  1.00  0.00     0.000 C 
BRANCH   4   5
HETATM    5  C   UNL     1     -20.015  -4.721  -5.855  1.00  0.00     0.000 C 
BRANCH   5   6
HETATM    6  C   UNL     1     -19.271  -4.811  -7.175  1.00  0.00     0.000 C 
BRANCH   6   7
HETATM    7  C   UNL     1     -19.860  -3.828  -8.169  1.00  0.00     0.000 C 
BRANCH   7   8
HETATM    8  C   UNL     1     -20.335  -4.564  -9.410  1.00  0.00     0.000 C 
BRANCH   8   9
HETATM    9  C   UNL     1     -21.582  -3.898  -9.967  1.00  0.00    -0.000 C 
BRANCH   9  10
HETATM   10  C   UNL     1     -22.832  -4.523  -9.367  1.00  0.00    -0.005 C 
HETATM   11  C   UNL     1     -23.774  -4.978 -10.465  1.00  0.00     0.005 C 
ENDBRANCH   9  10
ENDBRANCH   8   9
ENDBRANCH   7   8
ENDBRANCH   6   7
ENDBRANCH   5   6
ENDBRANCH   4   5
ENDBRANCH   3   4
ENDBRANCH   2   3
ENDBRANCH   1   2
BRANCH   1  12
HETATM   12  C   UNL     1     -21.275  -7.033  -2.205  1.00  0.00     0.000 C 
BRANCH  12  13
HETATM   13  C   UNL     1     -22.351  -6.663  -1.206  1.00  0.00     0.000 C 
BRANCH  13  14
HETATM   14  C   UNL     1     -22.337  -7.656  -0.065  1.00  0.00     0.000 C 
BRANCH  14  15
HETATM   15  C   UNL     1     -21.914  -9.014  -0.581  1.00  0.00     0.000 C 
BRANCH  15  16
HETATM   16  C   UNL     1     -22.980 -10.032  -0.202  1.00  0.00     0.002 C 
BRANCH  16  17
HETATM   17  C   UNL     1     -23.290 -10.864  -1.418  1.00  0.00     0.036 C 
BRANCH  17  18
HETATM   18  C   UNL     1     -22.294 -10.611  -2.543  1.00  0.00     0.311 C 
BRANCH  18  19
HETATM   19  N   UNL     1     -21.646 -11.881  -3.018  1.00  0.00     0.005 N 
HETATM   20  C   UNL     1     -20.985 -11.671  -4.360  1.00  0.00     0.355 C 
HETATM   21  C   UNL     1     -20.614 -12.346  -2.027  1.00  0.00     0.355 C 
HETATM   22  O   UNL     1     -22.599 -12.867  -3.144  1.00  0.00    -0.065 OA
ENDBRANCH  18  19
ENDBRANCH  17  18
ENDBRANCH  16  17
ENDBRANCH  15  16
ENDBRANCH  14  15
ENDBRANCH  13  14
ENDBRANCH  12  13
ENDBRANCH   1  12
TORSDOF 17
BEGIN_RES ARG D 557
REMARK  4 active torsions:
REMARK  status: ('A' for Active; 'I' for Inactive)
REMARK    1  A    between atoms: CA   and  CB  
REMARK    2  A    between atoms: CB   and  CG  
REMARK    3  A    between atoms: CG   and  CD  
REMARK    4  A    between atoms: CD   and  NE  
REMARK       I    between atoms: NE   and  CZ  
REMARK       I    between atoms: CZ   and  NH1 
REMARK       I    between atoms: CZ   and  NH2 
ROOT
ATOM      1  CA  ARG D 557     -26.217   2.705 -17.014  1.00 35.49     0.159 C 
ENDROOT
BRANCH   1   2
ATOM      2  CB  ARG D 557     -26.789   1.319 -17.183  1.00 35.49     0.034 C 
BRANCH   2   3
ATOM      3  CG  ARG D 557     -25.837   0.202 -17.144  1.00 35.49     0.027 C 
BRANCH   3   4
ATOM      4  CD  ARG D 557     -24.756   0.416 -16.155  1.00 35.49     0.116 C 
BRANCH   4   5
ATOM      5  NE  ARG D 557     -24.892  -0.442 -15.008  1.00 35.49    -0.212 N 
ATOM      6  CZ  ARG D 557     -24.064  -1.403 -14.666  1.00 35.49     0.666 C 
ATOM      7  NH1 ARG D 557     -22.989  -1.699 -15.374  1.00 35.49    -0.235 N 
ATOM      8  NH2 ARG D 557     -24.332  -2.069 -13.580  1.00 35.49    -0.235 N 
ATOM      9  HH  ARG D 557     -22.792  -1.273 -16.091  1.00 35.49     0.174 HD
ATOM     10  HH  ARG D 557     -22.484  -2.335 -15.100  1.00 35.49     0.174 HD
ATOM     11  HH  ARG D 557     -25.029  -1.851 -13.139  1.00 35.49     0.174 HD
ATOM     12  HH  ARG D 557     -23.819  -2.694 -13.325  1.00 35.49     0.174 HD
ATOM     13  HE  ARG D 557     -25.595  -0.369 -14.536  1.00 35.49     0.178 HD
ENDBRANCH   4   5
ENDBRANCH   3   4
ENDBRANCH   2   3
ENDBRANCH   1   2
END_RES ARG D 557
BEGIN_RES GLU D 570
REMARK  3 active torsions:
REMARK  status: ('A' for Active; 'I' for Inactive)
REMARK    5  A    between atoms: CA   and  CB  
REMARK    6  A    between atoms: CB   and  CG  
REMARK    7  A    between atoms: CG   and  CD  
ROOT
ATOM     14  CA  GLU D 570     -18.033  -6.348 -13.375  1.00 32.92     0.160 C 
ENDROOT
BRANCH  14  15
ATOM     15  CB  GLU D 570     -19.500  -6.345 -13.794  1.00 32.92     0.043 C 
BRANCH  15  16
ATOM     16  CG  GLU D 570     -20.444  -5.543 -12.974  1.00 32.92     0.100 C 
BRANCH  16  17
ATOM     17  CD  GLU D 570     -21.741  -5.245 -13.691  1.00 32.92     0.185 C 
ATOM     18  OE1 GLU D 570     -22.233  -6.113 -14.437  1.00 32.92    -0.647 OA
ATOM     19  OE2 GLU D 570     -22.260  -4.125 -13.518  1.00 32.92    -0.647 OA
ENDBRANCH  16  17
ENDBRANCH  15  16
ENDBRANCH  14  15
END_RES GLU D 570
ENDMDL
MODEL 4
REMARK VINA RESULT:      -6.6      1.684      3.094
REMARK  17 active torsions:
REMARK  status: ('A' for Active; 'I' for Inactive)
REMARK    1  A    between atoms: C_2  and  C_3 
REMARK    2  A    between atoms: C_3  and  C_4 
REMARK    3  A    between atoms: C_4  and  C_5 
REMARK    4  A    between atoms: C_5  and  C_6 
REMARK    5  A    between atoms: C_6  and  C_7 
REMARK    6  A    between atoms: C_7  and  C_8 
REMARK    7  A    between atoms: C_8  and  C_9 
REMARK    8  A    between atoms: C_9  and  C_10 
REMARK    9  A    between atoms: C_10  and  C_11 
REMARK   10  A    between atoms: C_11  and  C_12 
REMARK   11  A    between atoms: C_12  and  C_13 
REMARK   12  A    between atoms: C_13  and  C_14 
REMARK   13  A    between atoms: C_14  and  C_15 
REMARK   14  A    between atoms: C_15  and  C_16 
REMARK   15  A    between atoms: C_16  and  C_17 
REMARK   16  A    between atoms: C_17  and  C_18 
REMARK   17  A    between atoms: C_18  and  N_19 
ROOT
HETATM    1  C   UNL     1     -21.105  -6.000  -4.232  1.00  0.00     0.000 C 
ENDROOT
BRANCH   1   2
HETATM    2  C   UNL     1     -21.854  -6.867  -3.240  1.00  0.00     0.000 C 
BRANCH   2   3
HETATM    3  C   UNL     1     -22.070  -6.098  -1.952  1.00  0.00     0.000 C 
BRANCH   3   4
HETATM    4  C   UNL     1     -22.441  -7.058  -0.838  1.00  0.00     0.000 C 
BRANCH   4   5
HETATM    5  C   UNL     1     -21.294  -8.019  -0.584  1.00  0.00     0.000 C 
BRANCH   5   6
HETATM    6  C   UNL     1     -21.764  -9.159   0.301  1.00  0.00     0.000 C 
BRANCH   6   7
HETATM    7  C   UNL     1     -23.244  -9.407   0.082  1.00  0.00     0.000 C 
BRANCH   7   8
HETATM    8  C   UNL     1     -23.498 -10.892  -0.116  1.00  0.00     0.000 C 
BRANCH   8   9
HETATM    9  C   UNL     1     -23.827 -11.176  -1.572  1.00  0.00    -0.000 C 
BRANCH   9  10
HETATM   10  C   UNL     1     -22.564 -11.530  -2.343  1.00  0.00    -0.005 C 
HETATM   11  C   UNL     1     -22.306 -10.505  -3.431  1.00  0.00     0.005 C 
ENDBRANCH   9  10
ENDBRANCH   8   9
ENDBRANCH   7   8
ENDBRANCH   6   7
ENDBRANCH   5   6
ENDBRANCH   4   5
ENDBRANCH   3   4
ENDBRANCH   2   3
ENDBRANCH   1   2
BRANCH   1  12
HETATM   12  C   UNL     1     -20.534  -6.865  -5.338  1.00  0.00     0.000 C 
BRANCH  12  13
HETATM   13  C   UNL     1     -20.207  -6.006  -6.541  1.00  0.00     0.000 C 
BRANCH  13  14
HETATM   14  C   UNL     1     -20.329  -4.546  -6.163  1.00  0.00     0.000 C 
BRANCH  14  15
HETATM   15  C   UNL     1     -20.948  -3.777  -7.309  1.00  0.00     0.000 C 
BRANCH  15  16
HETATM   16  C   UNL     1     -22.110  -4.587  -7.867  1.00  0.00     0.002 C 
BRANCH  16  17
HETATM   17  C   UNL     1     -22.823  -3.743  -8.889  1.00  0.00     0.036 C 
BRANCH  17  18
HETATM   18  C   UNL     1     -23.376  -4.586 -10.031  1.00  0.00     0.311 C 
BRANCH  18  19
HETATM   19  N   UNL     1     -23.308  -3.864 -11.348  1.00  0.00     0.005 N 
HETATM   20  C   UNL     1     -22.044  -3.041 -11.438  1.00  0.00     0.355 C 
HETATM   21  C   UNL     1     -23.339  -4.846 -12.487  1.00  0.00     0.355 C 
HETATM   22  O   UNL     1     -24.392  -3.024 -11.472  1.00  0.00    -0.065 OA
ENDBRANCH  18  19
ENDBRANCH  17  18
ENDBRANCH  16  17
ENDBRANCH  15  16
ENDBRANCH  14  15
ENDBRANCH  13  14
ENDBRANCH  12  13
ENDBRANCH   1  12
TORSDOF 17
BEGIN_RES ARG D 557
REMARK  4 active torsions:
REMARK  status: ('A' for Active; 'I' for Inactive)
REMARK    1  A    between atoms: CA   and  CB  
REMARK    2  A    between atoms: CB   and  CG  
REMARK    3  A    between atoms: CG   and  CD  
REMARK    4  A    between atoms: CD   and  NE  
REMARK       I    between atoms: NE   and  CZ  
REMARK       I    between atoms: CZ   and  NH1 
REMARK       I    between atoms: CZ   and  NH2 
ROOT
ATOM      1  CA  ARG D 557     -26.217   2.705 -17.014  1.00 35.49     0.159 C 
ENDROOT
BRANCH   1   2
ATOM      2  CB  ARG D 557     -26.789   1.319 -17.183  1.00 35.49     0.034 C 
BRANCH   2   3
ATOM      3  CG  ARG D 557     -27.364   0.691 -15.987  1.00 35.49     0.027 C 
BRANCH   3   4
ATOM      4  CD  ARG D 557     -26.946  -0.721 -15.835  1.00 35.49     0.116 C 
BRANCH   4   5
ATOM      5  NE  ARG D 557     -25.589  -0.838 -15.369  1.00 35.49    -0.212 N 
ATOM      6  CZ  ARG D 557     -25.116  -1.808 -14.619  1.00 35.49     0.666 C 
ATOM      7  NH1 ARG D 557     -25.869  -2.804 -14.189  1.00 35.49    -0.235 N 
ATOM      8  NH2 ARG D 557     -23.853  -1.765 -14.307  1.00 35.49    -0.235 N 
ATOM      9  HH  ARG D 557     -26.702  -2.854 -14.383  1.00 35.49     0.174 HD
ATOM     10  HH  ARG D 557     -25.504  -3.410 -13.705  1.00 35.49     0.174 HD
ATOM     11  HH  ARG D 557     -23.390  -1.114 -14.605  1.00 35.49     0.174 HD
ATOM     12  HH  ARG D 557     -23.511  -2.375 -13.828  1.00 35.49     0.174 HD
ATOM     13  HE  ARG D 557     -25.052  -0.201 -15.538  1.00 35.49     0.178 HD
ENDBRANCH   4   5
ENDBRANCH   3   4
ENDBRANCH   2   3
ENDBRANCH   1   2
END_RES ARG D 557
BEGIN_RES GLU D 570
REMARK  3 active torsions:
REMARK  status: ('A' for Active; 'I' for Inactive)
REMARK    5  A    between atoms: CA   and  CB  
REMARK    6  A    between atoms: CB   and  CG  
REMARK    7  A    between atoms: CG   and  CD  
ROOT
ATOM     14  CA  GLU D 570     -18.033  -6.348 -13.375  1.00 32.92     0.160 C 
ENDROOT
BRANCH  14  15
ATOM     15  CB  GLU D 570     -19.500  -6.345 -13.794  1.00 32.92     0.043 C 
BRANCH  15  16
ATOM     16  CG  GLU D 570     -20.089  -7.636 -14.233  1.00 32.92     0.100 C 
BRANCH  16  17
ATOM     17  CD  GLU D 570     -20.765  -7.548 -15.581  1.00 32.92     0.185 C 
ATOM     18  OE1 GLU D 570     -21.007  -6.425 -16.064  1.00 32.92    -0.647 OA
ATOM     19  OE2 GLU D 570     -21.072  -8.613 -16.153  1.00 32.92    -0.647 OA
ENDBRANCH  16  17
ENDBRANCH  15  16
ENDBRANCH  14  15
END_RES GLU D 570
ENDMDL
MODEL 5
REMARK VINA RESULT:      -6.6      4.440      9.102
REMARK  17 active torsions:
REMARK  status: ('A' for Active; 'I' for Inactive)
REMARK    1  A    between atoms: C_2  and  C_3 
REMARK    2  A    between atoms: C_3  and  C_4 
REMARK    3  A    between atoms: C_4  and  C_5 
REMARK    4  A    between atoms: C_5  and  C_6 
REMARK    5  A    between atoms: C_6  and  C_7 
REMARK    6  A    between atoms: C_7  and  C_8 
REMARK    7  A    between atoms: C_8  and  C_9 
REMARK    8  A    between atoms: C_9  and  C_10 
REMARK    9  A    between atoms: C_10  and  C_11 
REMARK   10  A    between atoms: C_11  and  C_12 
REMARK   11  A    between atoms: C_12  and  C_13 
REMARK   12  A    between atoms: C_13  and  C_14 
REMARK   13  A    between atoms: C_14  and  C_15 
REMARK   14  A    between atoms: C_15  and  C_16 
REMARK   15  A    between atoms: C_16  and  C_17 
REMARK   16  A    between atoms: C_17  and  C_18 
REMARK   17  A    between atoms: C_18  and  N_19 
ROOT
HETATM    1  C   UNL     1     -20.220  -6.203  -5.798  1.00  0.00     0.000 C 
ENDROOT
BRANCH   1   2
HETATM    2  C   UNL     1     -20.717  -4.777  -5.925  1.00  0.00     0.000 C 
BRANCH   2   3
HETATM    3  C   UNL     1     -21.397  -4.591  -7.267  1.00  0.00     0.000 C 
BRANCH   3   4
HETATM    4  C   UNL     1     -20.491  -5.095  -8.374  1.00  0.00     0.000 C 
BRANCH   4   5
HETATM    5  C   UNL     1     -20.155  -3.959  -9.320  1.00  0.00     0.000 C 
BRANCH   5   6
HETATM    6  C   UNL     1     -20.451  -4.375 -10.750  1.00  0.00     0.000 C 
BRANCH   6   7
HETATM    7  C   UNL     1     -21.195  -3.265 -11.468  1.00  0.00     0.000 C 
BRANCH   7   8
HETATM    8  C   UNL     1     -22.267  -3.855 -12.368  1.00  0.00     0.000 C 
BRANCH   8   9
HETATM    9  C   UNL     1     -23.356  -4.501 -11.528  1.00  0.00    -0.000 C 
BRANCH   9  10
HETATM   10  C   UNL     1     -24.259  -3.439 -10.920  1.00  0.00    -0.005 C 
HETATM   11  C   UNL     1     -24.258  -3.548  -9.407  1.00  0.00     0.005 C 
ENDBRANCH   9  10
ENDBRANCH   8   9
ENDBRANCH   7   8
ENDBRANCH   6   7
ENDBRANCH   5   6
ENDBRANCH   4   5
ENDBRANCH   3   4
ENDBRANCH   2   3
ENDBRANCH   1   2
BRANCH   1  12
HETATM   12  C   UNL     1     -21.363  -7.108  -5.385  1.00  0.00     0.000 C 
BRANCH  12  13
HETATM   13  C   UNL     1     -22.143  -6.466  -4.257  1.00  0.00     0.000 C 
BRANCH  13  14
HETATM   14  C   UNL     1     -21.386  -6.645  -2.960  1.00  0.00     0.000 C 
BRANCH  14  15
HETATM   15  C   UNL     1     -22.308  -6.360  -1.794  1.00  0.00     0.000 C 
BRANCH  15  16
HETATM   16  C   UNL     1     -21.998  -7.347  -0.677  1.00  0.00     0.002 C 
BRANCH  16  17
HETATM   17  C   UNL     1     -21.955  -8.730  -1.271  1.00  0.00     0.036 C 
BRANCH  17  18
HETATM   18  C   UNL     1     -20.718  -9.498  -0.824  1.00  0.00     0.311 C 
BRANCH  18  19
HETATM   19  N   UNL     1     -21.074 -10.751  -0.074  1.00  0.00     0.005 N 
HETATM   20  C   UNL     1     -22.569 -10.971  -0.085  1.00  0.00     0.355 C 
HETATM   21  C   UNL     1     -20.395 -11.943  -0.693  1.00  0.00     0.355 C 
HETATM   22  O   UNL     1     -20.653 -10.644   1.232  1.00  0.00    -0.065 OA
ENDBRANCH  18  19
ENDBRANCH  17  18
ENDBRANCH  16  17
ENDBRANCH  15  16
ENDBRANCH  14  15
ENDBRANCH  13  14
ENDBRANCH  12  13
ENDBRANCH   1  12
TORSDOF 17
BEGIN_RES ARG D 557
REMARK  4 active torsions:
REMARK  status: ('A' for Active; 'I' for Inactive)
REMARK    1  A    between atoms: CA   and  CB  
REMARK    2  A    between atoms: CB   and  CG  
REMARK    3  A    between atoms: CG   and  CD  
REMARK    4  A    between atoms: CD   and  NE  
REMARK       I    between atoms: NE   and  CZ  
REMARK       I    between atoms: CZ   and  NH1 
REMARK       I    between atoms: CZ   and  NH2 
ROOT
ATOM      1  CA  ARG D 557     -26.217   2.705 -17.014  1.00 35.49     0.159 C 
ENDROOT
BRANCH   1   2
ATOM      2  CB  ARG D 557     -26.789   1.319 -17.183  1.00 35.49     0.034 C 
BRANCH   2   3
ATOM      3  CG  ARG D 557     -28.231   1.226 -17.440  1.00 35.49     0.027 C 
BRANCH   3   4
ATOM      4  CD  ARG D 557     -28.913   0.304 -16.503  1.00 35.49     0.116 C 
BRANCH   4   5
ATOM      5  NE  ARG D 557     -29.304  -0.925 -17.142  1.00 35.49    -0.212 N 
ATOM      6  CZ  ARG D 557     -28.679  -2.077 -17.040  1.00 35.49     0.666 C 
ATOM      7  NH1 ARG D 557     -27.579  -2.226 -16.326  1.00 35.49    -0.235 N 
ATOM      8  NH2 ARG D 557     -29.189  -3.094 -17.671  1.00 35.49    -0.235 N 
ATOM      9  HH  ARG D 557     -27.227  -1.570 -15.901  1.00 35.49     0.174 HD
ATOM     10  HH  ARG D 557     -27.216  -3.001 -16.294  1.00 35.49     0.174 HD
ATOM     11  HH  ARG D 557     -29.904  -2.971 -18.119  1.00 35.49     0.174 HD
ATOM     12  HH  ARG D 557     -28.815  -3.855 -17.626  1.00 35.49     0.174 HD
ATOM     13  HE  ARG D 557     -29.963  -0.904 -17.680  1.00 35.49     0.178 HD
ENDBRANCH   4   5
ENDBRANCH   3   4
ENDBRANCH   2   3
ENDBRANCH   1   2
END_RES ARG D 557
BEGIN_RES GLU D 570
REMARK  3 active torsions:
REMARK  status: ('A' for Active; 'I' for Inactive)
REMARK    5  A    between atoms: CA   and  CB  
REMARK    6  A    between atoms: CB   and  CG  
REMARK    7  A    between atoms: CG   and  CD  
ROOT
ATOM     14  CA  GLU D 570     -18.033  -6.348 -13.375  1.00 32.92     0.160 C 
ENDROOT
BRANCH  14  15
ATOM     15  CB  GLU D 570     -19.500  -6.345 -13.794  1.00 32.92     0.043 C 
BRANCH  15  16
ATOM     16  CG  GLU D 570     -19.809  -5.991 -15.204  1.00 32.92     0.100 C 
BRANCH  16  17
ATOM     17  CD  GLU D 570     -21.290  -5.845 -15.464  1.00 32.92     0.185 C 
ATOM     18  OE1 GLU D 570     -22.096  -6.433 -14.718  1.00 32.92    -0.647 OA
ATOM     19  OE2 GLU D 570     -21.647  -5.149 -16.434  1.00 32.92    -0.647 OA
ENDBRANCH  16  17
ENDBRANCH  15  16
ENDBRANCH  14  15
END_RES GLU D 570
ENDMDL
MODEL 6
REMARK VINA RESULT:      -6.5      6.986     12.214
REMARK  17 active torsions:
REMARK  status: ('A' for Active; 'I' for Inactive)
REMARK    1  A    between atoms: C_2  and  C_3 
REMARK    2  A    between atoms: C_3  and  C_4 
REMARK    3  A    between atoms: C_4  and  C_5 
REMARK    4  A    between atoms: C_5  and  C_6 
REMARK    5  A    between atoms: C_6  and  C_7 
REMARK    6  A    between atoms: C_7  and  C_8 
REMARK    7  A    between atoms: C_8  and  C_9 
REMARK    8  A    between atoms: C_9  and  C_10 
REMARK    9  A    between atoms: C_10  and  C_11 
REMARK   10  A    between atoms: C_11  and  C_12 
REMARK   11  A    between atoms: C_12  and  C_13 
REMARK   12  A    between atoms: C_13  and  C_14 
REMARK   13  A    between atoms: C_14  and  C_15 
REMARK   14  A    between atoms: C_15  and  C_16 
REMARK   15  A    between atoms: C_16  and  C_17 
REMARK   16  A    between atoms: C_17  and  C_18 
REMARK   17  A    between atoms: C_18  and  N_19 
ROOT
HETATM    1  C   UNL     1     -35.483  -1.103 -16.673  1.00  0.00     0.000 C 
ENDROOT
BRANCH   1   2
HETATM    2  C   UNL     1     -36.021  -0.247 -15.543  1.00  0.00     0.000 C 
BRANCH   2   3
HETATM    3  C   UNL     1     -34.909   0.618 -14.985  1.00  0.00     0.000 C 
BRANCH   3   4
HETATM    4  C   UNL     1     -34.940   0.579 -13.469  1.00  0.00     0.000 C 
BRANCH   4   5
HETATM    5  C   UNL     1     -36.077  -0.310 -13.002  1.00  0.00     0.000 C 
BRANCH   5   6
HETATM    6  C   UNL     1     -35.600  -1.203 -11.871  1.00  0.00     0.000 C 
BRANCH   6   7
HETATM    7  C   UNL     1     -34.576  -2.194 -12.391  1.00  0.00     0.000 C 
BRANCH   7   8
HETATM    8  C   UNL     1     -33.785  -2.779 -11.233  1.00  0.00     0.000 C 
BRANCH   8   9
HETATM    9  C   UNL     1     -32.759  -3.774 -11.751  1.00  0.00    -0.000 C 
BRANCH   9  10
HETATM   10  C   UNL     1     -33.211  -5.198 -11.468  1.00  0.00    -0.005 C 
HETATM   11  C   UNL     1     -34.260  -5.211 -10.372  1.00  0.00     0.005 C 
ENDBRANCH   9  10
ENDBRANCH   8   9
ENDBRANCH   7   8
ENDBRANCH   6   7
ENDBRANCH   5   6
ENDBRANCH   4   5
ENDBRANCH   3   4
ENDBRANCH   2   3
ENDBRANCH   1   2
BRANCH   1  12
HETATM   12  C   UNL     1     -35.031  -2.443 -16.129  1.00  0.00     0.000 C 
BRANCH  12  13
HETATM   13  C   UNL     1     -33.903  -2.987 -16.981  1.00  0.00     0.000 C 
BRANCH  13  14
HETATM   14  C   UNL     1     -33.190  -4.086 -16.224  1.00  0.00     0.000 C 
BRANCH  14  15
HETATM   15  C   UNL     1     -32.117  -4.690 -17.104  1.00  0.00     0.000 C 
BRANCH  15  16
HETATM   16  C   UNL     1     -31.085  -3.616 -17.419  1.00  0.00     0.002 C 
BRANCH  16  17
HETATM   17  C   UNL     1     -29.877  -4.287 -18.017  1.00  0.00     0.036 C 
BRANCH  17  18
HETATM   18  C   UNL     1     -28.613  -3.987 -17.221  1.00  0.00     0.311 C 
BRANCH  18  19
HETATM   19  N   UNL     1     -27.852  -5.238 -16.882  1.00  0.00     0.005 N 
HETATM   20  C   UNL     1     -28.593  -6.045 -15.841  1.00  0.00     0.355 C 
HETATM   21  C   UNL     1     -27.654  -6.082 -18.112  1.00  0.00     0.355 C 
HETATM   22  O   UNL     1     -26.613  -4.905 -16.383  1.00  0.00    -0.065 OA
ENDBRANCH  18  19
ENDBRANCH  17  18
ENDBRANCH  16  17
ENDBRANCH  15  16
ENDBRANCH  14  15
ENDBRANCH  13  14
ENDBRANCH  12  13
ENDBRANCH   1  12
TORSDOF 17
BEGIN_RES ARG D 557
REMARK  4 active torsions:
REMARK  status: ('A' for Active; 'I' for Inactive)
REMARK    1  A    between atoms: CA   and  CB  
REMARK    2  A    between atoms: CB   and  CG  
REMARK    3  A    between atoms: CG   and  CD  
REMARK    4  A    between atoms: CD   and  NE  
REMARK       I    between atoms: NE   and  CZ  
REMARK       I    between atoms: CZ   and  NH1 
REMARK       I    between atoms: CZ   and  NH2 
ROOT
ATOM      1  CA  ARG D 557     -26.217   2.705 -17.014  1.00 35.49     0.159 C 
ENDROOT
BRANCH   1   2
ATOM      2  CB  ARG D 557     -26.789   1.319 -17.183  1.00 35.49     0.034 C 
BRANCH   2   3
ATOM      3  CG  ARG D 557     -25.861   0.195 -17.008  1.00 35.49     0.027 C 
BRANCH   3   4
ATOM      4  CD  ARG D 557     -26.245  -0.683 -15.880  1.00 35.49     0.116 C 
BRANCH   4   5
ATOM      5  NE  ARG D 557     -25.160  -0.884 -14.955  1.00 35.49    -0.212 N 
ATOM      6  CZ  ARG D 557     -24.893  -2.001 -14.316  1.00 35.49     0.666 C 
ATOM      7  NH1 ARG D 557     -25.627  -3.089 -14.452  1.00 35.49    -0.235 N 
ATOM      8  NH2 ARG D 557     -23.855  -2.009 -13.531  1.00 35.49    -0.235 N 
ATOM      9  HH  ARG D 557     -26.314  -3.107 -14.965  1.00 35.49     0.174 HD
ATOM     10  HH  ARG D 557     -25.403  -3.790 -14.012  1.00 35.49     0.174 HD
ATOM     11  HH  ARG D 557     -23.394  -1.294 -13.469  1.00 35.49     0.174 HD
ATOM     12  HH  ARG D 557     -23.648  -2.713 -13.105  1.00 35.49     0.174 HD
ATOM     13  HE  ARG D 557     -24.679  -0.213 -14.753  1.00 35.49     0.178 HD
ENDBRANCH   4   5
ENDBRANCH   3   4
ENDBRANCH   2   3
ENDBRANCH   1   2
END_RES ARG D 557
BEGIN_RES GLU D 570
REMARK  3 active torsions:
REMARK  status: ('A' for Active; 'I' for Inactive)
REMARK    5  A    between atoms: CA   and  CB  
REMARK    6  A    between atoms: CB   and  CG  
REMARK    7  A    between atoms: CG   and  CD  
ROOT
ATOM     14  CA  GLU D 570     -18.033  -6.348 -13.375  1.00 32.92     0.160 C 
ENDROOT
BRANCH  14  15
ATOM     15  CB  GLU D 570     -19.500  -6.345 -13.794  1.00 32.92     0.043 C 
BRANCH  15  16
ATOM     16  CG  GLU D 570     -20.444  -5.541 -12.976  1.00 32.92     0.100 C 
BRANCH  16  17
ATOM     17  CD  GLU D 570     -21.674  -5.115 -13.743  1.00 32.92     0.185 C 
ATOM     18  OE1 GLU D 570     -21.596  -4.970 -14.978  1.00 32.92    -0.647 OA
ATOM     19  OE2 GLU D 570     -22.721  -4.907 -13.100  1.00 32.92    -0.647 OA
ENDBRANCH  16  17
ENDBRANCH  15  16
ENDBRANCH  14  15
END_RES GLU D 570
ENDMDL
MODEL 7
REMARK VINA RESULT:      -6.5      7.002     12.065
REMARK  17 active torsions:
REMARK  status: ('A' for Active; 'I' for Inactive)
REMARK    1  A    between atoms: C_2  and  C_3 
REMARK    2  A    between atoms: C_3  and  C_4 
REMARK    3  A    between atoms: C_4  and  C_5 
REMARK    4  A    between atoms: C_5  and  C_6 
REMARK    5  A    between atoms: C_6  and  C_7 
REMARK    6  A    between atoms: C_7  and  C_8 
REMARK    7  A    between atoms: C_8  and  C_9 
REMARK    8  A    between atoms: C_9  and  C_10 
REMARK    9  A    between atoms: C_10  and  C_11 
REMARK   10  A    between atoms: C_11  and  C_12 
REMARK   11  A    between atoms: C_12  and  C_13 
REMARK   12  A    between atoms: C_13  and  C_14 
REMARK   13  A    between atoms: C_14  and  C_15 
REMARK   14  A    between atoms: C_15  and  C_16 
REMARK   15  A    between atoms: C_16  and  C_17 
REMARK   16  A    between atoms: C_17  and  C_18 
REMARK   17  A    between atoms: C_18  and  N_19 
ROOT
HETATM    1  C   UNL     1     -34.890   0.404 -15.119  1.00  0.00     0.000 C 
ENDROOT
BRANCH   1   2
HETATM    2  C   UNL     1     -35.117   0.673 -13.645  1.00  0.00     0.000 C 
BRANCH   2   3
HETATM    3  C   UNL     1     -36.043  -0.382 -13.071  1.00  0.00     0.000 C 
BRANCH   3   4
HETATM    4  C   UNL     1     -35.620  -0.717 -11.653  1.00  0.00     0.000 C 
BRANCH   4   5
HETATM    5  C   UNL     1     -34.384  -1.595 -11.679  1.00  0.00     0.000 C 
BRANCH   5   6
HETATM    6  C   UNL     1     -34.600  -2.760 -12.628  1.00  0.00     0.000 C 
BRANCH   6   7
HETATM    7  C   UNL     1     -33.456  -3.749 -12.502  1.00  0.00     0.000 C 
BRANCH   7   8
HETATM    8  C   UNL     1     -33.385  -4.282 -11.081  1.00  0.00     0.000 C 
BRANCH   8   9
HETATM    9  C   UNL     1     -33.537  -5.794 -11.082  1.00  0.00    -0.000 C 
BRANCH   9  10
HETATM   10  C   UNL     1     -34.692  -6.213 -10.185  1.00  0.00    -0.005 C 
HETATM   11  C   UNL     1     -34.712  -7.720 -10.020  1.00  0.00     0.005 C 
ENDBRANCH   9  10
ENDBRANCH   8   9
ENDBRANCH   7   8
ENDBRANCH   6   7
ENDBRANCH   5   6
ENDBRANCH   4   5
ENDBRANCH   3   4
ENDBRANCH   2   3
ENDBRANCH   1   2
BRANCH   1  12
HETATM   12  C   UNL     1     -35.847  -0.668 -15.597  1.00  0.00     0.000 C 
BRANCH  12  13
HETATM   13  C   UNL     1     -35.246  -1.402 -16.777  1.00  0.00     0.000 C 
BRANCH  13  14
HETATM   14  C   UNL     1     -34.704  -2.736 -16.313  1.00  0.00     0.000 C 
BRANCH  14  15
HETATM   15  C   UNL     1     -33.530  -3.134 -17.181  1.00  0.00     0.000 C 
BRANCH  15  16
HETATM   16  C   UNL     1     -32.820  -4.313 -16.529  1.00  0.00     0.002 C 
BRANCH  16  17
HETATM   17  C   UNL     1     -31.420  -4.380 -17.078  1.00  0.00     0.036 C 
BRANCH  17  18
HETATM   18  C   UNL     1     -30.663  -5.590 -16.547  1.00  0.00     0.311 C 
BRANCH  18  19
HETATM   19  N   UNL     1     -29.667  -6.112 -17.545  1.00  0.00     0.005 N 
HETATM   20  C   UNL     1     -28.380  -6.503 -16.856  1.00  0.00     0.355 C 
HETATM   21  C   UNL     1     -30.224  -7.310 -18.265  1.00  0.00     0.355 C 
HETATM   22  O   UNL     1     -29.391  -5.138 -18.477  1.00  0.00    -0.065 OA
ENDBRANCH  18  19
ENDBRANCH  17  18
ENDBRANCH  16  17
ENDBRANCH  15  16
ENDBRANCH  14  15
ENDBRANCH  13  14
ENDBRANCH  12  13
ENDBRANCH   1  12
TORSDOF 17
BEGIN_RES ARG D 557
REMARK  4 active torsions:
REMARK  status: ('A' for Active; 'I' for Inactive)
REMARK    1  A    between atoms: CA   and  CB  
REMARK    2  A    between atoms: CB   and  CG  
REMARK    3  A    between atoms: CG   and  CD  
REMARK    4  A    between atoms: CD   and  NE  
REMARK       I    between atoms: NE   and  CZ  
REMARK       I    between atoms: CZ   and  NH1 
REMARK       I    between atoms: CZ   and  NH2 
ROOT
ATOM      1  CA  ARG D 557     -26.217   2.705 -17.014  1.00 35.49     0.159 C 
ENDROOT
BRANCH   1   2
ATOM      2  CB  ARG D 557     -26.789   1.319 -17.183  1.00 35.49     0.034 C 
BRANCH   2   3
ATOM      3  CG  ARG D 557     -28.242   1.180 -17.027  1.00 35.49     0.027 C 
BRANCH   3   4
ATOM      4  CD  ARG D 557     -28.636  -0.182 -16.601  1.00 35.49     0.116 C 
BRANCH   4   5
ATOM      5  NE  ARG D 557     -27.577  -0.859 -15.901  1.00 35.49    -0.212 N 
ATOM      6  CZ  ARG D 557     -27.303  -2.143 -15.977  1.00 35.49     0.666 C 
ATOM      7  NH1 ARG D 557     -28.009  -2.975 -16.720  1.00 35.49    -0.235 N 
ATOM      8  NH2 ARG D 557     -26.290  -2.583 -15.289  1.00 35.49    -0.235 N 
ATOM      9  HH  ARG D 557     -28.679  -2.707 -17.183  1.00 35.49     0.174 HD
ATOM     10  HH  ARG D 557     -27.783  -3.801 -16.733  1.00 35.49     0.174 HD
ATOM     11  HH  ARG D 557     -25.848  -2.021 -14.824  1.00 35.49     0.174 HD
ATOM     12  HH  ARG D 557     -26.081  -3.404 -15.316  1.00 35.49     0.174 HD
ATOM     13  HE  ARG D 557     -27.117  -0.412 -15.343  1.00 35.49     0.178 HD
ENDBRANCH   4   5
ENDBRANCH   3   4
ENDBRANCH   2   3
ENDBRANCH   1   2
END_RES ARG D 557
BEGIN_RES GLU D 570
REMARK  3 active torsions:
REMARK  status: ('A' for Active; 'I' for Inactive)
REMARK    5  A    between atoms: CA   and  CB  
REMARK    6  A    between atoms: CB   and  CG  
REMARK    7  A    between atoms: CG   and  CD  
ROOT
ATOM     14  CA  GLU D 570     -18.033  -6.348 -13.375  1.00 32.92     0.160 C 
ENDROOT
BRANCH  14  15
ATOM     15  CB  GLU D 570     -19.500  -6.345 -13.794  1.00 32.92     0.043 C 
BRANCH  15  16
ATOM     16  CG  GLU D 570     -20.446  -5.549 -12.969  1.00 32.92     0.100 C 
BRANCH  16  17
ATOM     17  CD  GLU D 570     -21.742  -5.249 -13.685  1.00 32.92     0.185 C 
ATOM     18  OE1 GLU D 570     -22.265  -6.135 -14.387  1.00 32.92    -0.647 OA
ATOM     19  OE2 GLU D 570     -22.232  -4.110 -13.554  1.00 32.92    -0.647 OA
ENDBRANCH  16  17
ENDBRANCH  15  16
ENDBRANCH  14  15
END_RES GLU D 570
ENDMDL
MODEL 8
REMARK VINA RESULT:      -6.5      3.929      8.925
REMARK  17 active torsions:
REMARK  status: ('A' for Active; 'I' for Inactive)
REMARK    1  A    between atoms: C_2  and  C_3 
REMARK    2  A    between atoms: C_3  and  C_4 
REMARK    3  A    between atoms: C_4  and  C_5 
REMARK    4  A    between atoms: C_5  and  C_6 
REMARK    5  A    between atoms: C_6  and  C_7 
REMARK    6  A    between atoms: C_7  and  C_8 
REMARK    7  A    between atoms: C_8  and  C_9 
REMARK    8  A    between atoms: C_9  and  C_10 
REMARK    9  A    between atoms: C_10  and  C_11 
REMARK   10  A    between atoms: C_11  and  C_12 
REMARK   11  A    between atoms: C_12  and  C_13 
REMARK   12  A    between atoms: C_13  and  C_14 
REMARK   13  A    between atoms: C_14  and  C_15 
REMARK   14  A    between atoms: C_15  and  C_16 
REMARK   15  A    between atoms: C_16  and  C_17 
REMARK   16  A    between atoms: C_17  and  C_18 
REMARK   17  A    between atoms: C_18  and  N_19 
ROOT
HETATM    1  C   UNL     1     -20.047  -4.919  -5.822  1.00  0.00     0.000 C 
ENDROOT
BRANCH   1   2
HETATM    2  C   UNL     1     -19.432  -4.844  -7.205  1.00  0.00     0.000 C 
BRANCH   2   3
HETATM    3  C   UNL     1     -20.447  -4.291  -8.186  1.00  0.00     0.000 C 
BRANCH   3   4
HETATM    4  C   UNL     1     -21.573  -3.614  -7.429  1.00  0.00     0.000 C 
BRANCH   4   5
HETATM    5  C   UNL     1     -22.898  -4.256  -7.797  1.00  0.00     0.000 C 
BRANCH   5   6
HETATM    6  C   UNL     1     -22.990  -4.420  -9.303  1.00  0.00     0.000 C 
BRANCH   6   7
HETATM    7  C   UNL     1     -24.251  -3.753  -9.819  1.00  0.00     0.000 C 
BRANCH   7   8
HETATM    8  C   UNL     1     -24.013  -3.202 -11.215  1.00  0.00     0.000 C 
BRANCH   8   9
HETATM    9  C   UNL     1     -22.527  -3.215 -11.535  1.00  0.00    -0.000 C 
BRANCH   9  10
HETATM   10  C   UNL     1     -22.286  -3.810 -12.914  1.00  0.00    -0.005 C 
HETATM   11  C   UNL     1     -22.973  -5.157 -13.035  1.00  0.00     0.005 C 
ENDBRANCH   9  10
ENDBRANCH   8   9
ENDBRANCH   7   8
ENDBRANCH   6   7
ENDBRANCH   5   6
ENDBRANCH   4   5
ENDBRANCH   3   4
ENDBRANCH   2   3
ENDBRANCH   1   2
BRANCH   1  12
HETATM   12  C   UNL     1     -20.363  -6.361  -5.480  1.00  0.00     0.000 C 
BRANCH  12  13
HETATM   13  C   UNL     1     -21.737  -6.447  -4.849  1.00  0.00     0.000 C 
BRANCH  13  14
HETATM   14  C   UNL     1     -21.622  -7.096  -3.487  1.00  0.00     0.000 C 
BRANCH  14  15
HETATM   15  C   UNL     1     -21.789  -6.045  -2.411  1.00  0.00     0.000 C 
BRANCH  15  16
HETATM   16  C   UNL     1     -22.308  -6.719  -1.149  1.00  0.00     0.002 C 
BRANCH  16  17
HETATM   17  C   UNL     1     -21.864  -8.158  -1.169  1.00  0.00     0.036 C 
BRANCH  17  18
HETATM   18  C   UNL     1     -22.563  -8.979  -0.093  1.00  0.00     0.311 C 
BRANCH  18  19
HETATM   19  N   UNL     1     -22.604 -10.441  -0.438  1.00  0.00     0.005 N 
HETATM   20  C   UNL     1     -21.604 -11.213   0.391  1.00  0.00     0.355 C 
HETATM   21  C   UNL     1     -23.980 -10.999  -0.196  1.00  0.00     0.355 C 
HETATM   22  O   UNL     1     -22.298 -10.611  -1.770  1.00  0.00    -0.065 OA
ENDBRANCH  18  19
ENDBRANCH  17  18
ENDBRANCH  16  17
ENDBRANCH  15  16
ENDBRANCH  14  15
ENDBRANCH  13  14
ENDBRANCH  12  13
ENDBRANCH   1  12
TORSDOF 17
BEGIN_RES ARG D 557
REMARK  4 active torsions:
REMARK  status: ('A' for Active; 'I' for Inactive)
REMARK    1  A    between atoms: CA   and  CB  
REMARK    2  A    between atoms: CB   and  CG  
REMARK    3  A    between atoms: CG   and  CD  
REMARK    4  A    between atoms: CD   and  NE  
REMARK       I    between atoms: NE   and  CZ  
REMARK       I    between atoms: CZ   and  NH1 
REMARK       I    between atoms: CZ   and  NH2 
ROOT
ATOM      1  CA  ARG D 557     -26.217   2.705 -17.014  1.00 35.49     0.159 C 
ENDROOT
BRANCH   1   2
ATOM      2  CB  ARG D 557     -26.789   1.319 -17.183  1.00 35.49     0.034 C 
BRANCH   2   3
ATOM      3  CG  ARG D 557     -26.069   0.222 -16.524  1.00 35.49     0.027 C 
BRANCH   3   4
ATOM      4  CD  ARG D 557     -26.964  -0.897 -16.151  1.00 35.49     0.116 C 
BRANCH   4   5
ATOM      5  NE  ARG D 557     -26.287  -1.894 -15.365  1.00 35.49    -0.212 N 
ATOM      6  CZ  ARG D 557     -26.538  -3.184 -15.380  1.00 35.49     0.666 C 
ATOM      7  NH1 ARG D 557     -27.483  -3.714 -16.134  1.00 35.49    -0.235 N 
ATOM      8  NH2 ARG D 557     -25.810  -3.946 -14.616  1.00 35.49    -0.235 N 
ATOM      9  HH  ARG D 557     -27.973  -3.232 -16.646  1.00 35.49     0.174 HD
ATOM     10  HH  ARG D 557     -27.599  -4.563 -16.104  1.00 35.49     0.174 HD
ATOM     11  HH  ARG D 557     -25.202  -3.577 -14.145  1.00 35.49     0.174 HD
ATOM     12  HH  ARG D 557     -25.940  -4.784 -14.602  1.00 35.49     0.174 HD
ATOM     13  HE  ARG D 557     -25.712  -1.632 -14.796  1.00 35.49     0.178 HD
ENDBRANCH   4   5
ENDBRANCH   3   4
ENDBRANCH   2   3
ENDBRANCH   1   2
END_RES ARG D 557
BEGIN_RES GLU D 570
REMARK  3 active torsions:
REMARK  status: ('A' for Active; 'I' for Inactive)
REMARK    5  A    between atoms: CA   and  CB  
REMARK    6  A    between atoms: CB   and  CG  
REMARK    7  A    between atoms: CG   and  CD  
ROOT
ATOM     14  CA  GLU D 570     -18.033  -6.348 -13.375  1.00 32.92     0.160 C 
ENDROOT
BRANCH  14  15
ATOM     15  CB  GLU D 570     -19.500  -6.345 -13.794  1.00 32.92     0.043 C 
BRANCH  15  16
ATOM     16  CG  GLU D 570     -19.820  -5.863 -15.163  1.00 32.92     0.100 C 
BRANCH  16  17
ATOM     17  CD  GLU D 570     -20.709  -6.815 -15.929  1.00 32.92     0.185 C 
ATOM     18  OE1 GLU D 570     -21.008  -7.910 -15.416  1.00 32.92    -0.647 OA
ATOM     19  OE2 GLU D 570     -21.097  -6.468 -17.062  1.00 32.92    -0.647 OA
ENDBRANCH  16  17
ENDBRANCH  15  16
ENDBRANCH  14  15
END_RES GLU D 570
ENDMDL
MODEL 9
REMARK VINA RESULT:      -6.3      3.595      8.023
REMARK  17 active torsions:
REMARK  status: ('A' for Active; 'I' for Inactive)
REMARK    1  A    between atoms: C_2  and  C_3 
REMARK    2  A    between atoms: C_3  and  C_4 
REMARK    3  A    between atoms: C_4  and  C_5 
REMARK    4  A    between atoms: C_5  and  C_6 
REMARK    5  A    between atoms: C_6  and  C_7 
REMARK    6  A    between atoms: C_7  and  C_8 
REMARK    7  A    between atoms: C_8  and  C_9 
REMARK    8  A    between atoms: C_9  and  C_10 
REMARK    9  A    between atoms: C_10  and  C_11 
REMARK   10  A    between atoms: C_11  and  C_12 
REMARK   11  A    between atoms: C_12  and  C_13 
REMARK   12  A    between atoms: C_13  and  C_14 
REMARK   13  A    between atoms: C_14  and  C_15 
REMARK   14  A    between atoms: C_15  and  C_16 
REMARK   15  A    between atoms: C_16  and  C_17 
REMARK   16  A    between atoms: C_17  and  C_18 
REMARK   17  A    between atoms: C_18  and  N_19 
ROOT
HETATM    1  C   UNL     1     -22.509  -7.397  -0.561  1.00  0.00     0.000 C 
ENDROOT
BRANCH   1   2
HETATM    2  C   UNL     1     -21.105  -7.892  -0.846  1.00  0.00     0.000 C 
BRANCH   2   3
HETATM    3  C   UNL     1     -20.801  -7.742  -2.324  1.00  0.00     0.000 C 
BRANCH   3   4
HETATM    4  C   UNL     1     -21.643  -6.624  -2.909  1.00  0.00     0.000 C 
BRANCH   4   5
HETATM    5  C   UNL     1     -21.960  -6.926  -4.361  1.00  0.00     0.000 C 
BRANCH   5   6
HETATM    6  C   UNL     1     -20.720  -6.717  -5.213  1.00  0.00     0.000 C 
BRANCH   6   7
HETATM    7  C   UNL     1     -20.541  -5.240  -5.511  1.00  0.00     0.000 C 
BRANCH   7   8
HETATM    8  C   UNL     1     -21.564  -4.791  -6.540  1.00  0.00     0.000 C 
BRANCH   8   9
HETATM    9  C   UNL     1     -20.994  -3.664  -7.386  1.00  0.00    -0.000 C 
BRANCH   9  10
HETATM   10  C   UNL     1     -20.162  -4.226  -8.529  1.00  0.00    -0.005 C 
HETATM   11  C   UNL     1     -20.847  -3.967  -9.857  1.00  0.00     0.005 C 
ENDBRANCH   9  10
ENDBRANCH   8   9
ENDBRANCH   7   8
ENDBRANCH   6   7
ENDBRANCH   5   6
ENDBRANCH   4   5
ENDBRANCH   3   4
ENDBRANCH   2   3
ENDBRANCH   1   2
BRANCH   1  12
HETATM   12  C   UNL     1     -23.208  -8.355   0.381  1.00  0.00     0.000 C 
BRANCH  12  13
HETATM   13  C   UNL     1     -22.708  -9.764   0.142  1.00  0.00     0.000 C 
BRANCH  13  14
HETATM   14  C   UNL     1     -23.890 -10.692  -0.036  1.00  0.00     0.000 C 
BRANCH  14  15
HETATM   15  C   UNL     1     -23.920 -11.204  -1.460  1.00  0.00     0.000 C 
BRANCH  15  16
HETATM   16  C   UNL     1     -22.523 -11.079  -2.051  1.00  0.00     0.002 C 
BRANCH  16  17
HETATM   17  C   UNL     1     -22.657 -10.906  -3.541  1.00  0.00     0.036 C 
BRANCH  17  18
HETATM   18  C   UNL     1     -22.025 -12.064  -4.303  1.00  0.00     0.311 C 
BRANCH  18  19
HETATM   19  N   UNL     1     -21.055 -11.587  -5.348  1.00  0.00     0.005 N 
HETATM   20  C   UNL     1     -19.701 -12.227  -5.148  1.00  0.00     0.355 C 
HETATM   21  C   UNL     1     -21.561 -11.924  -6.725  1.00  0.00     0.355 C 
HETATM   22  O   UNL     1     -20.916 -10.221  -5.261  1.00  0.00    -0.065 OA
ENDBRANCH  18  19
ENDBRANCH  17  18
ENDBRANCH  16  17
ENDBRANCH  15  16
ENDBRANCH  14  15
ENDBRANCH  13  14
ENDBRANCH  12  13
ENDBRANCH   1  12
TORSDOF 17
BEGIN_RES ARG D 557
REMARK  4 active torsions:
REMARK  status: ('A' for Active; 'I' for Inactive)
REMARK    1  A    between atoms: CA   and  CB  
REMARK    2  A    between atoms: CB   and  CG  
REMARK    3  A    between atoms: CG   and  CD  
REMARK    4  A    between atoms: CD   and  NE  
REMARK       I    between atoms: NE   and  CZ  
REMARK       I    between atoms: CZ   and  NH1 
REMARK       I    between atoms: CZ   and  NH2 
ROOT
ATOM      1  CA  ARG D 557     -26.217   2.705 -17.014  1.00 35.49     0.159 C 
ENDROOT
BRANCH   1   2
ATOM      2  CB  ARG D 557     -26.789   1.319 -17.183  1.00 35.49     0.034 C 
BRANCH   2   3
ATOM      3  CG  ARG D 557     -28.217   1.152 -16.884  1.00 35.49     0.027 C 
BRANCH   3   4
ATOM      4  CD  ARG D 557     -28.599  -0.270 -16.734  1.00 35.49     0.116 C 
BRANCH   4   5
ATOM      5  NE  ARG D 557     -27.587  -1.035 -16.055  1.00 35.49    -0.212 N 
ATOM      6  CZ  ARG D 557     -27.437  -2.339 -16.120  1.00 35.49     0.666 C 
ATOM      7  NH1 ARG D 557     -28.239  -3.111 -16.830  1.00 35.49    -0.235 N 
ATOM      8  NH2 ARG D 557     -26.450  -2.864 -15.454  1.00 35.49    -0.235 N 
ATOM      9  HH  ARG D 557     -28.894  -2.787 -17.278  1.00 35.49     0.174 HD
ATOM     10  HH  ARG D 557     -28.092  -3.955 -16.837  1.00 35.49     0.174 HD
ATOM     11  HH  ARG D 557     -25.944  -2.341 -15.010  1.00 35.49     0.174 HD
ATOM     12  HH  ARG D 557     -26.319  -3.702 -15.475  1.00 35.49     0.174 HD
ATOM     13  HE  ARG D 557     -27.071  -0.626 -15.517  1.00 35.49     0.178 HD
ENDBRANCH   4   5
ENDBRANCH   3   4
ENDBRANCH   2   3
ENDBRANCH   1   2
END_RES ARG D 557
BEGIN_RES GLU D 570
REMARK  3 active torsions:
REMARK  status: ('A' for Active; 'I' for Inactive)
REMARK    5  A    between atoms: CA   and  CB  
REMARK    6  A    between atoms: CB   and  CG  
REMARK    7  A    between atoms: CG   and  CD  
ROOT
ATOM     14  CA  GLU D 570     -18.033  -6.348 -13.375  1.00 32.92     0.160 C 
ENDROOT
BRANCH  14  15
ATOM     15  CB  GLU D 570     -19.500  -6.345 -13.794  1.00 32.92     0.043 C 
BRANCH  15  16
ATOM     16  CG  GLU D 570     -20.446  -5.550 -12.969  1.00 32.92     0.100 C 
BRANCH  16  17
ATOM     17  CD  GLU D 570     -21.709  -5.181 -13.712  1.00 32.92     0.185 C 
ATOM     18  OE1 GLU D 570     -22.539  -4.434 -13.159  1.00 32.92    -0.647 OA
ATOM     19  OE2 GLU D 570     -21.877  -5.657 -14.852  1.00 32.92    -0.647 OA
ENDBRANCH  16  17
ENDBRANCH  15  16
ENDBRANCH  14  15
END_RES GLU D 570
ENDMDL
