MODEL 1
REMARK VINA RESULT:      -5.3      0.000      0.000
REMARK  4 active torsions:
REMARK  status: ('A' for Active; 'I' for Inactive)
REMARK    1  A    between atoms: C_2  and  O_9 
REMARK    2  A    between atoms: C_3  and  O_8 
REMARK    3  A    between atoms: C_4  and  C_6 
REMARK    4  A    between atoms: C_6  and  O_7 
ROOT
HETATM    1  C   UNL     1     -22.533  -3.716  -8.548  1.00  0.00     0.202 C 
HETATM    2  C   UNL     1     -23.886  -4.090  -9.133  1.00  0.00     0.173 C 
HETATM    3  C   UNL     1     -23.583  -4.584 -10.546  1.00  0.00     0.180 C 
HETATM    4  C   UNL     1     -22.075  -4.356 -10.717  1.00  0.00     0.176 C 
HETATM    5  O   UNL     1     -21.526  -4.295  -9.392  1.00  0.00    -0.378 OA
ENDROOT
BRANCH   4   6
HETATM    6  C   UNL     1     -21.705  -3.106 -11.509  1.00  0.00     0.198 C 
BRANCH   6   7
HETATM    7  O   UNL     1     -21.819  -3.360 -12.910  1.00  0.00    -0.398 OA
HETATM    8  H   UNL     1     -22.336  -2.626 -13.291  1.00  0.00     0.209 HD
ENDBRANCH   6   7
ENDBRANCH   4   6
BRANCH   3   9
HETATM    9  O   UNL     1     -24.441  -3.941 -11.490  1.00  0.00    -0.390 OA
HETATM   10  H   UNL     1     -24.820  -4.633 -12.077  1.00  0.00     0.210 HD
ENDBRANCH   3   9
BRANCH   2  11
HETATM   11  O   UNL     1     -24.759  -2.961  -9.144  1.00  0.00    -0.391 OA
HETATM   12  H   UNL     1     -25.553  -3.263  -9.637  1.00  0.00     0.210 HD
ENDBRANCH   2  11
TORSDOF 4
BEGIN_RES ARG D 557
REMARK  4 active torsions:
REMARK  status: ('A' for Active; 'I' for Inactive)
REMARK    1  A    between atoms: CA   and  CB  
REMARK    2  A    between atoms: CB   and  CG  
REMARK    3  A    between atoms: CG   and  CD  
REMARK    4  A    between atoms: CD   and  NE  
REMARK       I    between atoms: NE   and  CZ  
REMARK       I    between atoms: CZ   and  NH1 
REMARK       I    between atoms: CZ   and  NH2 
ROOT
ATOM      1  CA  ARG D 557     -26.217   2.705 -17.014  1.00 35.49     0.159 C 
ENDROOT
BRANCH   1   2
ATOM      2  CB  ARG D 557     -26.789   1.319 -17.183  1.00 35.49     0.034 C 
BRANCH   2   3
ATOM      3  CG  ARG D 557     -25.833   0.205 -17.177  1.00 35.49     0.027 C 
BRANCH   3   4
ATOM      4  CD  ARG D 557     -24.751   0.395 -16.184  1.00 35.49     0.116 C 
BRANCH   4   5
ATOM      5  NE  ARG D 557     -24.914  -0.455 -15.034  1.00 35.49    -0.212 N 
ATOM      6  CZ  ARG D 557     -24.102  -1.424 -14.675  1.00 35.49     0.666 C 
ATOM      7  NH1 ARG D 557     -23.022  -1.738 -15.366  1.00 35.49    -0.235 N 
ATOM      8  NH2 ARG D 557     -24.394  -2.079 -13.589  1.00 35.49    -0.235 N 
ATOM      9  HH  ARG D 557     -22.809  -1.318 -16.082  1.00 35.49     0.174 HD
ATOM     10  HH  ARG D 557     -22.529  -2.378 -15.081  1.00 35.49     0.174 HD
ATOM     11  HH  ARG D 557     -25.094  -1.850 -13.159  1.00 35.49     0.174 HD
ATOM     12  HH  ARG D 557     -23.893  -2.709 -13.323  1.00 35.49     0.174 HD
ATOM     13  HE  ARG D 557     -25.623  -0.370 -14.572  1.00 35.49     0.178 HD
ENDBRANCH   4   5
ENDBRANCH   3   4
ENDBRANCH   2   3
ENDBRANCH   1   2
END_RES ARG D 557
BEGIN_RES GLU D 570
REMARK  3 active torsions:
REMARK  status: ('A' for Active; 'I' for Inactive)
REMARK    5  A    between atoms: CA   and  CB  
REMARK    6  A    between atoms: CB   and  CG  
REMARK    7  A    between atoms: CG   and  CD  
ROOT
ATOM     14  CA  GLU D 570     -18.033  -6.348 -13.375  1.00 32.92     0.160 C 
ENDROOT
BRANCH  14  15
ATOM     15  CB  GLU D 570     -19.500  -6.345 -13.794  1.00 32.92     0.043 C 
BRANCH  15  16
ATOM     16  CG  GLU D 570     -19.817  -5.891 -15.173  1.00 32.92     0.100 C 
BRANCH  16  17
ATOM     17  CD  GLU D 570     -21.295  -5.669 -15.395  1.00 32.92     0.185 C 
ATOM     18  OE1 GLU D 570     -21.698  -4.528 -15.691  1.00 32.92    -0.647 OA
ATOM     19  OE2 GLU D 570     -22.060  -6.644 -15.255  1.00 32.92    -0.647 OA
ENDBRANCH  16  17
ENDBRANCH  15  16
ENDBRANCH  14  15
END_RES GLU D 570
ENDMDL
MODEL 2
REMARK VINA RESULT:      -5.1      3.348      4.603
REMARK  4 active torsions:
REMARK  status: ('A' for Active; 'I' for Inactive)
REMARK    1  A    between atoms: C_2  and  O_9 
REMARK    2  A    between atoms: C_3  and  O_8 
REMARK    3  A    between atoms: C_4  and  C_6 
REMARK    4  A    between atoms: C_6  and  O_7 
ROOT
HETATM    1  C   UNL     1     -23.228  -4.682 -13.431  1.00  0.00     0.202 C 
HETATM    2  C   UNL     1     -22.331  -3.680 -14.142  1.00  0.00     0.173 C 
HETATM    3  C   UNL     1     -23.114  -2.369 -14.128  1.00  0.00     0.180 C 
HETATM    4  C   UNL     1     -24.466  -2.736 -13.500  1.00  0.00     0.176 C 
HETATM    5  O   UNL     1     -24.244  -3.936 -12.745  1.00  0.00    -0.378 OA
ENDROOT
BRANCH   4   6
HETATM    6  C   UNL     1     -25.600  -2.935 -14.501  1.00  0.00     0.198 C 
BRANCH   6   7
HETATM    7  O   UNL     1     -26.099  -1.669 -14.936  1.00  0.00    -0.398 OA
HETATM    8  H   UNL     1     -26.740  -1.846 -15.649  1.00  0.00     0.209 HD
ENDBRANCH   6   7
ENDBRANCH   4   6
BRANCH   3   9
HETATM    9  O   UNL     1     -23.147  -1.799 -15.438  1.00  0.00    -0.390 OA
HETATM   10  H   UNL     1     -22.395  -1.170 -15.514  1.00  0.00     0.210 HD
ENDBRANCH   3   9
BRANCH   2  11
HETATM   11  O   UNL     1     -22.048  -4.113 -15.473  1.00  0.00    -0.391 OA
HETATM   12  H   UNL     1     -22.888  -4.509 -15.791  1.00  0.00     0.210 HD
ENDBRANCH   2  11
TORSDOF 4
BEGIN_RES ARG D 557
REMARK  4 active torsions:
REMARK  status: ('A' for Active; 'I' for Inactive)
REMARK    1  A    between atoms: CA   and  CB  
REMARK    2  A    between atoms: CB   and  CG  
REMARK    3  A    between atoms: CG   and  CD  
REMARK    4  A    between atoms: CD   and  NE  
REMARK       I    between atoms: NE   and  CZ  
REMARK       I    between atoms: CZ   and  NH1 
REMARK       I    between atoms: CZ   and  NH2 
ROOT
ATOM      1  CA  ARG D 557     -26.217   2.705 -17.014  1.00 35.49     0.159 C 
ENDROOT
BRANCH   1   2
ATOM      2  CB  ARG D 557     -26.789   1.319 -17.183  1.00 35.49     0.034 C 
BRANCH   2   3
ATOM      3  CG  ARG D 557     -28.138   1.092 -16.651  1.00 35.49     0.027 C 
BRANCH   3   4
ATOM      4  CD  ARG D 557     -28.816  -0.052 -17.303  1.00 35.49     0.116 C 
BRANCH   4   5
ATOM      5  NE  ARG D 557     -28.240  -1.314 -16.919  1.00 35.49    -0.212 N 
ATOM      6  CZ  ARG D 557     -28.787  -2.495 -17.102  1.00 35.49     0.666 C 
ATOM      7  NH1 ARG D 557     -29.972  -2.649 -17.665  1.00 35.49    -0.235 N 
ATOM      8  NH2 ARG D 557     -28.112  -3.536 -16.711  1.00 35.49    -0.235 N 
ATOM      9  HH  ARG D 557     -30.433  -1.978 -17.932  1.00 35.49     0.174 HD
ATOM     10  HH  ARG D 557     -30.277  -3.444 -17.760  1.00 35.49     0.174 HD
ATOM     11  HH  ARG D 557     -27.346  -3.407 -16.358  1.00 35.49     0.174 HD
ATOM     12  HH  ARG D 557     -28.430  -4.315 -16.816  1.00 35.49     0.174 HD
ATOM     13  HE  ARG D 557     -27.510  -1.304 -16.484  1.00 35.49     0.178 HD
ENDBRANCH   4   5
ENDBRANCH   3   4
ENDBRANCH   2   3
ENDBRANCH   1   2
END_RES ARG D 557
BEGIN_RES GLU D 570
REMARK  3 active torsions:
REMARK  status: ('A' for Active; 'I' for Inactive)
REMARK    5  A    between atoms: CA   and  CB  
REMARK    6  A    between atoms: CB   and  CG  
REMARK    7  A    between atoms: CG   and  CD  
ROOT
ATOM     14  CA  GLU D 570     -18.033  -6.348 -13.375  1.00 32.92     0.160 C 
ENDROOT
BRANCH  14  15
ATOM     15  CB  GLU D 570     -19.500  -6.345 -13.794  1.00 32.92     0.043 C 
BRANCH  15  16
ATOM     16  CG  GLU D 570     -20.086  -7.634 -14.243  1.00 32.92     0.100 C 
BRANCH  16  17
ATOM     17  CD  GLU D 570     -20.673  -7.562 -15.633  1.00 32.92     0.185 C 
ATOM     18  OE1 GLU D 570     -21.184  -8.585 -16.128  1.00 32.92    -0.647 OA
ATOM     19  OE2 GLU D 570     -20.606  -6.476 -16.241  1.00 32.92    -0.647 OA
ENDBRANCH  16  17
ENDBRANCH  15  16
ENDBRANCH  14  15
END_RES GLU D 570
ENDMDL
MODEL 3
REMARK VINA RESULT:      -5.0      2.165      3.214
REMARK  4 active torsions:
REMARK  status: ('A' for Active; 'I' for Inactive)
REMARK    1  A    between atoms: C_2  and  O_9 
REMARK    2  A    between atoms: C_3  and  O_8 
REMARK    3  A    between atoms: C_4  and  C_6 
REMARK    4  A    between atoms: C_6  and  O_7 
ROOT
HETATM    1  C   UNL     1     -22.175  -4.454 -12.084  1.00  0.00     0.202 C 
HETATM    2  C   UNL     1     -23.082  -3.740 -13.075  1.00  0.00     0.173 C 
HETATM    3  C   UNL     1     -23.932  -2.797 -12.226  1.00  0.00     0.180 C 
HETATM    4  C   UNL     1     -23.527  -3.114 -10.780  1.00  0.00     0.176 C 
HETATM    5  O   UNL     1     -22.229  -3.721 -10.851  1.00  0.00    -0.378 OA
ENDROOT
BRANCH   4   6
HETATM    6  C   UNL     1     -24.501  -4.017 -10.029  1.00  0.00     0.198 C 
BRANCH   6   7
HETATM    7  O   UNL     1     -25.694  -3.297  -9.713  1.00  0.00    -0.398 OA
HETATM    8  H   UNL     1     -25.449  -2.355  -9.651  1.00  0.00     0.209 HD
ENDBRANCH   6   7
ENDBRANCH   4   6
BRANCH   3   9
HETATM    9  O   UNL     1     -25.314  -2.946 -12.554  1.00  0.00    -0.390 OA
HETATM   10  H   UNL     1     -25.712  -2.048 -12.603  1.00  0.00     0.210 HD
ENDBRANCH   3   9
BRANCH   2  11
HETATM   11  O   UNL     1     -23.887  -4.679 -13.788  1.00  0.00    -0.391 OA
HETATM   12  H   UNL     1     -24.372  -5.174 -13.092  1.00  0.00     0.210 HD
ENDBRANCH   2  11
TORSDOF 4
BEGIN_RES ARG D 557
REMARK  4 active torsions:
REMARK  status: ('A' for Active; 'I' for Inactive)
REMARK    1  A    between atoms: CA   and  CB  
REMARK    2  A    between atoms: CB   and  CG  
REMARK    3  A    between atoms: CG   and  CD  
REMARK    4  A    between atoms: CD   and  NE  
REMARK       I    between atoms: NE   and  CZ  
REMARK       I    between atoms: CZ   and  NH1 
REMARK       I    between atoms: CZ   and  NH2 
ROOT
ATOM      1  CA  ARG D 557     -26.217   2.705 -17.014  1.00 35.49     0.159 C 
ENDROOT
BRANCH   1   2
ATOM      2  CB  ARG D 557     -26.789   1.319 -17.183  1.00 35.49     0.034 C 
BRANCH   2   3
ATOM      3  CG  ARG D 557     -28.231   1.167 -16.953  1.00 35.49     0.027 C 
BRANCH   3   4
ATOM      4  CD  ARG D 557     -28.612  -0.236 -16.669  1.00 35.49     0.116 C 
BRANCH   4   5
ATOM      5  NE  ARG D 557     -27.579  -0.946 -15.963  1.00 35.49    -0.212 N 
ATOM      6  CZ  ARG D 557     -27.354  -2.240 -16.028  1.00 35.49     0.666 C 
ATOM      7  NH1 ARG D 557     -28.091  -3.051 -16.764  1.00 35.49    -0.235 N 
ATOM      8  NH2 ARG D 557     -26.358  -2.711 -15.335  1.00 35.49    -0.235 N 
ATOM      9  HH  ARG D 557     -28.750  -2.762 -17.229  1.00 35.49     0.174 HD
ATOM     10  HH  ARG D 557     -27.896  -3.886 -16.769  1.00 35.49     0.174 HD
ATOM     11  HH  ARG D 557     -25.895  -2.162 -14.875  1.00 35.49     0.174 HD
ATOM     12  HH  ARG D 557     -26.180  -3.540 -15.355  1.00 35.49     0.174 HD
ATOM     13  HE  ARG D 557     -27.102  -0.512 -15.409  1.00 35.49     0.178 HD
ENDBRANCH   4   5
ENDBRANCH   3   4
ENDBRANCH   2   3
ENDBRANCH   1   2
END_RES ARG D 557
BEGIN_RES GLU D 570
REMARK  3 active torsions:
REMARK  status: ('A' for Active; 'I' for Inactive)
REMARK    5  A    between atoms: CA   and  CB  
REMARK    6  A    between atoms: CB   and  CG  
REMARK    7  A    between atoms: CG   and  CD  
ROOT
ATOM     14  CA  GLU D 570     -18.033  -6.348 -13.375  1.00 32.92     0.160 C 
ENDROOT
BRANCH  14  15
ATOM     15  CB  GLU D 570     -19.500  -6.345 -13.794  1.00 32.92     0.043 C 
BRANCH  15  16
ATOM     16  CG  GLU D 570     -19.803  -6.082 -15.225  1.00 32.92     0.100 C 
BRANCH  16  17
ATOM     17  CD  GLU D 570     -21.276  -5.870 -15.486  1.00 32.92     0.185 C 
ATOM     18  OE1 GLU D 570     -22.087  -6.743 -15.120  1.00 32.92    -0.647 OA
ATOM     19  OE2 GLU D 570     -21.621  -4.829 -16.078  1.00 32.92    -0.647 OA
ENDBRANCH  16  17
ENDBRANCH  15  16
ENDBRANCH  14  15
END_RES GLU D 570
ENDMDL
MODEL 4
REMARK VINA RESULT:      -4.9      2.196      2.969
REMARK  4 active torsions:
REMARK  status: ('A' for Active; 'I' for Inactive)
REMARK    1  A    between atoms: C_2  and  O_9 
REMARK    2  A    between atoms: C_3  and  O_8 
REMARK    3  A    between atoms: C_4  and  C_6 
REMARK    4  A    between atoms: C_6  and  O_7 
ROOT
HETATM    1  C   UNL     1     -24.211  -3.836 -10.276  1.00  0.00     0.202 C 
HETATM    2  C   UNL     1     -22.747  -3.447 -10.411  1.00  0.00     0.173 C 
HETATM    3  C   UNL     1     -22.637  -2.790 -11.785  1.00  0.00     0.180 C 
HETATM    4  C   UNL     1     -24.036  -2.945 -12.398  1.00  0.00     0.176 C 
HETATM    5  O   UNL     1     -24.937  -3.133 -11.296  1.00  0.00    -0.378 OA
ENDROOT
BRANCH   4   6
HETATM    6  C   UNL     1     -24.170  -4.088 -13.400  1.00  0.00     0.198 C 
BRANCH   6   7
HETATM    7  O   UNL     1     -23.735  -3.661 -14.692  1.00  0.00    -0.398 OA
HETATM    8  H   UNL     1     -24.182  -2.813 -14.877  1.00  0.00     0.209 HD
ENDBRANCH   6   7
ENDBRANCH   4   6
BRANCH   3   9
HETATM    9  O   UNL     1     -21.549  -3.355 -12.518  1.00  0.00    -0.390 OA
HETATM   10  H   UNL     1     -21.322  -2.738 -13.249  1.00  0.00     0.210 HD
ENDBRANCH   3   9
BRANCH   2  11
HETATM   11  O   UNL     1     -21.909  -4.597 -10.306  1.00  0.00    -0.391 OA
HETATM   12  H   UNL     1     -22.501  -5.358 -10.494  1.00  0.00     0.210 HD
ENDBRANCH   2  11
TORSDOF 4
BEGIN_RES ARG D 557
REMARK  4 active torsions:
REMARK  status: ('A' for Active; 'I' for Inactive)
REMARK    1  A    between atoms: CA   and  CB  
REMARK    2  A    between atoms: CB   and  CG  
REMARK    3  A    between atoms: CG   and  CD  
REMARK    4  A    between atoms: CD   and  NE  
REMARK       I    between atoms: NE   and  CZ  
REMARK       I    between atoms: CZ   and  NH1 
REMARK       I    between atoms: CZ   and  NH2 
ROOT
ATOM      1  CA  ARG D 557     -26.217   2.705 -17.014  1.00 35.49     0.159 C 
ENDROOT
BRANCH   1   2
ATOM      2  CB  ARG D 557     -26.789   1.319 -17.183  1.00 35.49     0.034 C 
BRANCH   2   3
ATOM      3  CG  ARG D 557     -28.243   1.182 -17.038  1.00 35.49     0.027 C 
BRANCH   3   4
ATOM      4  CD  ARG D 557     -28.660  -0.224 -16.832  1.00 35.49     0.116 C 
BRANCH   4   5
ATOM      5  NE  ARG D 557     -27.670  -0.984 -16.116  1.00 35.49    -0.212 N 
ATOM      6  CZ  ARG D 557     -27.512  -2.287 -16.174  1.00 35.49     0.666 C 
ATOM      7  NH1 ARG D 557     -28.284  -3.063 -16.912  1.00 35.49    -0.235 N 
ATOM      8  NH2 ARG D 557     -26.547  -2.807 -15.472  1.00 35.49    -0.235 N 
ATOM      9  HH  ARG D 557     -28.923  -2.742 -17.384  1.00 35.49     0.174 HD
ATOM     10  HH  ARG D 557     -28.132  -3.906 -16.913  1.00 35.49     0.174 HD
ATOM     11  HH  ARG D 557     -26.060  -2.280 -15.010  1.00 35.49     0.174 HD
ATOM     12  HH  ARG D 557     -26.412  -3.644 -15.487  1.00 35.49     0.174 HD
ATOM     13  HE  ARG D 557     -27.176  -0.572 -15.559  1.00 35.49     0.178 HD
ENDBRANCH   4   5
ENDBRANCH   3   4
ENDBRANCH   2   3
ENDBRANCH   1   2
END_RES ARG D 557
BEGIN_RES GLU D 570
REMARK  3 active torsions:
REMARK  status: ('A' for Active; 'I' for Inactive)
REMARK    5  A    between atoms: CA   and  CB  
REMARK    6  A    between atoms: CB   and  CG  
REMARK    7  A    between atoms: CG   and  CD  
ROOT
ATOM     14  CA  GLU D 570     -18.033  -6.348 -13.375  1.00 32.92     0.160 C 
ENDROOT
BRANCH  14  15
ATOM     15  CB  GLU D 570     -19.500  -6.345 -13.794  1.00 32.92     0.043 C 
BRANCH  15  16
ATOM     16  CG  GLU D 570     -19.808  -5.998 -15.205  1.00 32.92     0.100 C 
BRANCH  16  17
ATOM     17  CD  GLU D 570     -21.282  -5.769 -15.448  1.00 32.92     0.185 C 
ATOM     18  OE1 GLU D 570     -21.632  -4.934 -16.304  1.00 32.92    -0.647 OA
ATOM     19  OE2 GLU D 570     -22.095  -6.420 -14.763  1.00 32.92    -0.647 OA
ENDBRANCH  16  17
ENDBRANCH  15  16
ENDBRANCH  14  15
END_RES GLU D 570
ENDMDL
MODEL 5
REMARK VINA RESULT:      -4.9      7.143      8.145
REMARK  4 active torsions:
REMARK  status: ('A' for Active; 'I' for Inactive)
REMARK    1  A    between atoms: C_2  and  O_9 
REMARK    2  A    between atoms: C_3  and  O_8 
REMARK    3  A    between atoms: C_4  and  C_6 
REMARK    4  A    between atoms: C_6  and  O_7 
ROOT
HETATM    1  C   UNL     1     -32.995  -3.530 -11.538  1.00  0.00     0.202 C 
HETATM    2  C   UNL     1     -33.932  -3.717 -12.722  1.00  0.00     0.173 C 
HETATM    3  C   UNL     1     -34.993  -4.702 -12.236  1.00  0.00     0.180 C 
HETATM    4  C   UNL     1     -34.528  -5.102 -10.829  1.00  0.00     0.176 C 
HETATM    5  O   UNL     1     -33.662  -4.050 -10.378  1.00  0.00    -0.378 OA
ENDROOT
BRANCH   4   6
HETATM    6  C   UNL     1     -33.818  -6.450 -10.752  1.00  0.00     0.198 C 
BRANCH   6   7
HETATM    7  O   UNL     1     -34.757  -7.511 -10.939  1.00  0.00    -0.398 OA
HETATM    8  H   UNL     1     -34.516  -7.960 -11.771  1.00  0.00     0.209 HD
ENDBRANCH   6   7
ENDBRANCH   4   6
BRANCH   3   9
HETATM    9  O   UNL     1     -35.158  -5.758 -13.183  1.00  0.00    -0.390 OA
HETATM   10  H   UNL     1     -34.824  -5.442 -14.052  1.00  0.00     0.210 HD
ENDBRANCH   3   9
BRANCH   2  11
HETATM   11  O   UNL     1     -33.221  -4.220 -13.852  1.00  0.00    -0.391 OA
HETATM   12  H   UNL     1     -32.275  -4.175 -13.594  1.00  0.00     0.210 HD
ENDBRANCH   2  11
TORSDOF 4
BEGIN_RES ARG D 557
REMARK  4 active torsions:
REMARK  status: ('A' for Active; 'I' for Inactive)
REMARK    1  A    between atoms: CA   and  CB  
REMARK    2  A    between atoms: CB   and  CG  
REMARK    3  A    between atoms: CG   and  CD  
REMARK    4  A    between atoms: CD   and  NE  
REMARK       I    between atoms: NE   and  CZ  
REMARK       I    between atoms: CZ   and  NH1 
REMARK       I    between atoms: CZ   and  NH2 
ROOT
ATOM      1  CA  ARG D 557     -26.217   2.705 -17.014  1.00 35.49     0.159 C 
ENDROOT
BRANCH   1   2
ATOM      2  CB  ARG D 557     -26.789   1.319 -17.183  1.00 35.49     0.034 C 
BRANCH   2   3
ATOM      3  CG  ARG D 557     -25.856   0.196 -17.028  1.00 35.49     0.027 C 
BRANCH   3   4
ATOM      4  CD  ARG D 557     -26.242  -0.710 -15.923  1.00 35.49     0.116 C 
BRANCH   4   5
ATOM      5  NE  ARG D 557     -25.211  -0.818 -14.925  1.00 35.49    -0.212 N 
ATOM      6  CZ  ARG D 557     -24.815  -1.930 -14.347  1.00 35.49     0.666 C 
ATOM      7  NH1 ARG D 557     -25.354  -3.104 -14.623  1.00 35.49    -0.235 N 
ATOM      8  NH2 ARG D 557     -23.850  -1.845 -13.478  1.00 35.49    -0.235 N 
ATOM      9  HH  ARG D 557     -25.989  -3.184 -15.193  1.00 35.49     0.174 HD
ATOM     10  HH  ARG D 557     -25.053  -3.795 -14.216  1.00 35.49     0.174 HD
ATOM     11  HH  ARG D 557     -23.516  -1.075 -13.325  1.00 35.49     0.174 HD
ATOM     12  HH  ARG D 557     -23.565  -2.541 -13.087  1.00 35.49     0.174 HD
ATOM     13  HE  ARG D 557     -24.860  -0.101 -14.634  1.00 35.49     0.178 HD
ENDBRANCH   4   5
ENDBRANCH   3   4
ENDBRANCH   2   3
ENDBRANCH   1   2
END_RES ARG D 557
BEGIN_RES GLU D 570
REMARK  3 active torsions:
REMARK  status: ('A' for Active; 'I' for Inactive)
REMARK    5  A    between atoms: CA   and  CB  
REMARK    6  A    between atoms: CB   and  CG  
REMARK    7  A    between atoms: CG   and  CD  
ROOT
ATOM     14  CA  GLU D 570     -18.033  -6.348 -13.375  1.00 32.92     0.160 C 
ENDROOT
BRANCH  14  15
ATOM     15  CB  GLU D 570     -19.500  -6.345 -13.794  1.00 32.92     0.043 C 
BRANCH  15  16
ATOM     16  CG  GLU D 570     -20.441  -5.527 -12.986  1.00 32.92     0.100 C 
BRANCH  16  17
ATOM     17  CD  GLU D 570     -21.767  -5.302 -13.674  1.00 32.92     0.185 C 
ATOM     18  OE1 GLU D 570     -22.370  -4.227 -13.489  1.00 32.92    -0.647 OA
ATOM     19  OE2 GLU D 570     -22.215  -6.216 -14.394  1.00 32.92    -0.647 OA
ENDBRANCH  16  17
ENDBRANCH  15  16
ENDBRANCH  14  15
END_RES GLU D 570
ENDMDL
MODEL 6
REMARK VINA RESULT:      -4.8      4.688      6.408
REMARK  4 active torsions:
REMARK  status: ('A' for Active; 'I' for Inactive)
REMARK    1  A    between atoms: C_2  and  O_9 
REMARK    2  A    between atoms: C_3  and  O_8 
REMARK    3  A    between atoms: C_4  and  C_6 
REMARK    4  A    between atoms: C_6  and  O_7 
ROOT
HETATM    1  C   UNL     1     -28.248  -6.261 -17.981  1.00  0.00     0.202 C 
HETATM    2  C   UNL     1     -28.965  -6.936 -16.822  1.00  0.00     0.173 C 
HETATM    3  C   UNL     1     -28.078  -6.684 -15.606  1.00  0.00     0.180 C 
HETATM    4  C   UNL     1     -26.845  -5.967 -16.173  1.00  0.00     0.176 C 
HETATM    5  O   UNL     1     -27.256  -5.388 -17.420  1.00  0.00    -0.378 OA
ENDROOT
BRANCH   4   6
HETATM    6  C   UNL     1     -25.625  -6.861 -16.374  1.00  0.00     0.198 C 
BRANCH   6   7
HETATM    7  O   UNL     1     -25.026  -7.166 -15.113  1.00  0.00    -0.398 OA
HETATM    8  H   UNL     1     -24.060  -7.145 -15.245  1.00  0.00     0.209 HD
ENDBRANCH   6   7
ENDBRANCH   4   6
BRANCH   3   9
HETATM    9  O   UNL     1     -27.844  -7.905 -14.902  1.00  0.00    -0.390 OA
HETATM   10  H   UNL     1     -28.690  -8.405 -14.874  1.00  0.00     0.210 HD
ENDBRANCH   3   9
BRANCH   2  11
HETATM   11  O   UNL     1     -29.130  -8.331 -17.076  1.00  0.00    -0.391 OA
HETATM   12  H   UNL     1     -28.221  -8.666 -17.235  1.00  0.00     0.210 HD
ENDBRANCH   2  11
TORSDOF 4
BEGIN_RES ARG D 557
REMARK  4 active torsions:
REMARK  status: ('A' for Active; 'I' for Inactive)
REMARK    1  A    between atoms: CA   and  CB  
REMARK    2  A    between atoms: CB   and  CG  
REMARK    3  A    between atoms: CG   and  CD  
REMARK    4  A    between atoms: CD   and  NE  
REMARK       I    between atoms: NE   and  CZ  
REMARK       I    between atoms: CZ   and  NH1 
REMARK       I    between atoms: CZ   and  NH2 
ROOT
ATOM      1  CA  ARG D 557     -26.217   2.705 -17.014  1.00 35.49     0.159 C 
ENDROOT
BRANCH   1   2
ATOM      2  CB  ARG D 557     -26.789   1.319 -17.183  1.00 35.49     0.034 C 
BRANCH   2   3
ATOM      3  CG  ARG D 557     -28.232   1.226 -17.436  1.00 35.49     0.027 C 
BRANCH   3   4
ATOM      4  CD  ARG D 557     -28.881   0.174 -16.621  1.00 35.49     0.116 C 
BRANCH   4   5
ATOM      5  NE  ARG D 557     -27.930  -0.769 -16.095  1.00 35.49    -0.212 N 
ATOM      6  CZ  ARG D 557     -27.849  -2.041 -16.419  1.00 35.49     0.666 C 
ATOM      7  NH1 ARG D 557     -28.674  -2.606 -17.281  1.00 35.49    -0.235 N 
ATOM      8  NH2 ARG D 557     -26.909  -2.744 -15.859  1.00 35.49    -0.235 N 
ATOM      9  HH  ARG D 557     -29.298  -2.162 -17.663  1.00 35.49     0.174 HD
ATOM     10  HH  ARG D 557     -28.572  -3.439 -17.455  1.00 35.49     0.174 HD
ATOM     11  HH  ARG D 557     -26.386  -2.351 -15.311  1.00 35.49     0.174 HD
ATOM     12  HH  ARG D 557     -26.823  -3.567 -16.045  1.00 35.49     0.174 HD
ATOM     13  HE  ARG D 557     -27.406  -0.507 -15.479  1.00 35.49     0.178 HD
ENDBRANCH   4   5
ENDBRANCH   3   4
ENDBRANCH   2   3
ENDBRANCH   1   2
END_RES ARG D 557
BEGIN_RES GLU D 570
REMARK  3 active torsions:
REMARK  status: ('A' for Active; 'I' for Inactive)
REMARK    5  A    between atoms: CA   and  CB  
REMARK    6  A    between atoms: CB   and  CG  
REMARK    7  A    between atoms: CG   and  CD  
ROOT
ATOM     14  CA  GLU D 570     -18.033  -6.348 -13.375  1.00 32.92     0.160 C 
ENDROOT
BRANCH  14  15
ATOM     15  CB  GLU D 570     -19.500  -6.345 -13.794  1.00 32.92     0.043 C 
BRANCH  15  16
ATOM     16  CG  GLU D 570     -20.444  -5.539 -12.977  1.00 32.92     0.100 C 
BRANCH  16  17
ATOM     17  CD  GLU D 570     -21.749  -5.263 -13.685  1.00 32.92     0.185 C 
ATOM     18  OE1 GLU D 570     -22.258  -6.158 -14.387  1.00 32.92    -0.647 OA
ATOM     19  OE2 GLU D 570     -22.260  -4.134 -13.550  1.00 32.92    -0.647 OA
ENDBRANCH  16  17
ENDBRANCH  15  16
ENDBRANCH  14  15
END_RES GLU D 570
ENDMDL
MODEL 7
REMARK VINA RESULT:      -4.7      2.375      2.780
REMARK  4 active torsions:
REMARK  status: ('A' for Active; 'I' for Inactive)
REMARK    1  A    between atoms: C_2  and  O_9 
REMARK    2  A    between atoms: C_3  and  O_8 
REMARK    3  A    between atoms: C_4  and  C_6 
REMARK    4  A    between atoms: C_6  and  O_7 
ROOT
HETATM    1  C   UNL     1     -22.772  -3.884  -8.770  1.00  0.00     0.202 C 
HETATM    2  C   UNL     1     -24.157  -4.041  -9.378  1.00  0.00     0.173 C 
HETATM    3  C   UNL     1     -23.909  -4.350 -10.853  1.00  0.00     0.180 C 
HETATM    4  C   UNL     1     -22.387  -4.242 -11.017  1.00  0.00     0.176 C 
HETATM    5  O   UNL     1     -21.829  -4.426  -9.707  1.00  0.00    -0.378 OA
ENDROOT
BRANCH   4   6
HETATM    6  C   UNL     1     -21.903  -2.930 -11.626  1.00  0.00     0.198 C 
BRANCH   6   7
HETATM    7  O   UNL     1     -22.157  -2.919 -13.032  1.00  0.00    -0.398 OA
HETATM    8  H   UNL     1     -22.297  -1.988 -13.288  1.00  0.00     0.209 HD
ENDBRANCH   6   7
ENDBRANCH   4   6
BRANCH   3   9
HETATM    9  O   UNL     1     -24.706  -3.499 -11.678  1.00  0.00    -0.390 OA
HETATM   10  H   UNL     1     -24.579  -3.776 -12.612  1.00  0.00     0.210 HD
ENDBRANCH   3   9
BRANCH   2  11
HETATM   11  O   UNL     1     -24.919  -2.846  -9.209  1.00  0.00    -0.391 OA
HETATM   12  H   UNL     1     -25.784  -3.148  -8.856  1.00  0.00     0.210 HD
ENDBRANCH   2  11
TORSDOF 4
BEGIN_RES ARG D 557
REMARK  4 active torsions:
REMARK  status: ('A' for Active; 'I' for Inactive)
REMARK    1  A    between atoms: CA   and  CB  
REMARK    2  A    between atoms: CB   and  CG  
REMARK    3  A    between atoms: CG   and  CD  
REMARK    4  A    between atoms: CD   and  NE  
REMARK       I    between atoms: NE   and  CZ  
REMARK       I    between atoms: CZ   and  NH1 
REMARK       I    between atoms: CZ   and  NH2 
ROOT
ATOM      1  CA  ARG D 557     -26.217   2.705 -17.014  1.00 35.49     0.159 C 
ENDROOT
BRANCH   1   2
ATOM      2  CB  ARG D 557     -26.789   1.319 -17.183  1.00 35.49     0.034 C 
BRANCH   2   3
ATOM      3  CG  ARG D 557     -28.153   1.102 -16.685  1.00 35.49     0.027 C 
BRANCH   3   4
ATOM      4  CD  ARG D 557     -28.789  -0.093 -17.285  1.00 35.49     0.116 C 
BRANCH   4   5
ATOM      5  NE  ARG D 557     -28.171  -1.316 -16.845  1.00 35.49    -0.212 N 
ATOM      6  CZ  ARG D 557     -28.649  -2.526 -17.026  1.00 35.49     0.666 C 
ATOM      7  NH1 ARG D 557     -29.796  -2.752 -17.640  1.00 35.49    -0.235 N 
ATOM      8  NH2 ARG D 557     -27.942  -3.524 -16.578  1.00 35.49    -0.235 N 
ATOM      9  HH  ARG D 557     -30.276  -2.111 -17.944  1.00 35.49     0.174 HD
ATOM     10  HH  ARG D 557     -30.056  -3.563 -17.731  1.00 35.49     0.174 HD
ATOM     11  HH  ARG D 557     -27.202  -3.348 -16.192  1.00 35.49     0.174 HD
ATOM     12  HH  ARG D 557     -28.217  -4.320 -16.679  1.00 35.49     0.174 HD
ATOM     13  HE  ARG D 557     -27.463  -1.259 -16.377  1.00 35.49     0.178 HD
ENDBRANCH   4   5
ENDBRANCH   3   4
ENDBRANCH   2   3
ENDBRANCH   1   2
END_RES ARG D 557
BEGIN_RES GLU D 570
REMARK  3 active torsions:
REMARK  status: ('A' for Active; 'I' for Inactive)
REMARK    5  A    between atoms: CA   and  CB  
REMARK    6  A    between atoms: CB   and  CG  
REMARK    7  A    between atoms: CG   and  CD  
ROOT
ATOM     14  CA  GLU D 570     -18.033  -6.348 -13.375  1.00 32.92     0.160 C 
ENDROOT
BRANCH  14  15
ATOM     15  CB  GLU D 570     -19.500  -6.345 -13.794  1.00 32.92     0.043 C 
BRANCH  15  16
ATOM     16  CG  GLU D 570     -19.808  -5.996 -15.205  1.00 32.92     0.100 C 
BRANCH  16  17
ATOM     17  CD  GLU D 570     -21.200  -5.436 -15.383  1.00 32.92     0.185 C 
ATOM     18  OE1 GLU D 570     -21.537  -4.995 -16.498  1.00 32.92    -0.647 OA
ATOM     19  OE2 GLU D 570     -21.957  -5.424 -14.392  1.00 32.92    -0.647 OA
ENDBRANCH  16  17
ENDBRANCH  15  16
ENDBRANCH  14  15
END_RES GLU D 570
ENDMDL
MODEL 8
REMARK VINA RESULT:      -4.7      9.405     11.867
REMARK  4 active torsions:
REMARK  status: ('A' for Active; 'I' for Inactive)
REMARK    1  A    between atoms: C_2  and  O_9 
REMARK    2  A    between atoms: C_3  and  O_8 
REMARK    3  A    between atoms: C_4  and  C_6 
REMARK    4  A    between atoms: C_6  and  O_7 
ROOT
HETATM    1  C   UNL     1     -31.402 -15.977 -21.359  1.00  0.00     0.202 C 
HETATM    2  C   UNL     1     -30.629 -15.006 -22.239  1.00  0.00     0.173 C 
HETATM    3  C   UNL     1     -29.281 -14.829 -21.544  1.00  0.00     0.180 C 
HETATM    4  C   UNL     1     -29.411 -15.634 -20.243  1.00  0.00     0.176 C 
HETATM    5  O   UNL     1     -30.459 -16.589 -20.467  1.00  0.00    -0.378 OA
ENDROOT
BRANCH   4   6
HETATM    6  C   UNL     1     -29.706 -14.795 -19.003  1.00  0.00     0.198 C 
BRANCH   6   7
HETATM    7  O   UNL     1     -30.642 -13.763 -19.320  1.00  0.00    -0.398 OA
HETATM    8  H   UNL     1     -30.960 -13.397 -18.474  1.00  0.00     0.209 HD
ENDBRANCH   6   7
ENDBRANCH   4   6
BRANCH   3   9
HETATM    9  O   UNL     1     -28.969 -13.442 -21.413  1.00  0.00    -0.390 OA
HETATM   10  H   UNL     1     -29.769 -12.926 -21.663  1.00  0.00     0.210 HD
ENDBRANCH   3   9
BRANCH   2  11
HETATM   11  O   UNL     1     -31.329 -13.768 -22.358  1.00  0.00    -0.391 OA
HETATM   12  H   UNL     1     -31.437 -13.633 -23.325  1.00  0.00     0.210 HD
ENDBRANCH   2  11
TORSDOF 4
BEGIN_RES ARG D 557
REMARK  4 active torsions:
REMARK  status: ('A' for Active; 'I' for Inactive)
REMARK    1  A    between atoms: CA   and  CB  
REMARK    2  A    between atoms: CB   and  CG  
REMARK    3  A    between atoms: CG   and  CD  
REMARK    4  A    between atoms: CD   and  NE  
REMARK       I    between atoms: NE   and  CZ  
REMARK       I    between atoms: CZ   and  NH1 
REMARK       I    between atoms: CZ   and  NH2 
ROOT
ATOM      1  CA  ARG D 557     -26.217   2.705 -17.014  1.00 35.49     0.159 C 
ENDROOT
BRANCH   1   2
ATOM      2  CB  ARG D 557     -26.789   1.319 -17.183  1.00 35.49     0.034 C 
BRANCH   2   3
ATOM      3  CG  ARG D 557     -25.856   0.196 -17.031  1.00 35.49     0.027 C 
BRANCH   3   4
ATOM      4  CD  ARG D 557     -26.236  -0.707 -15.921  1.00 35.49     0.116 C 
BRANCH   4   5
ATOM      5  NE  ARG D 557     -25.196  -0.821 -14.933  1.00 35.49    -0.212 N 
ATOM      6  CZ  ARG D 557     -24.800  -1.935 -14.359  1.00 35.49     0.666 C 
ATOM      7  NH1 ARG D 557     -25.345  -3.106 -14.632  1.00 35.49    -0.235 N 
ATOM      8  NH2 ARG D 557     -23.826  -1.854 -13.499  1.00 35.49    -0.235 N 
ATOM      9  HH  ARG D 557     -25.986  -3.183 -15.196  1.00 35.49     0.174 HD
ATOM     10  HH  ARG D 557     -25.043  -3.799 -14.228  1.00 35.49     0.174 HD
ATOM     11  HH  ARG D 557     -23.488  -1.085 -13.349  1.00 35.49     0.174 HD
ATOM     12  HH  ARG D 557     -23.540  -2.551 -13.112  1.00 35.49     0.174 HD
ATOM     13  HE  ARG D 557     -24.840  -0.105 -14.645  1.00 35.49     0.178 HD
ENDBRANCH   4   5
ENDBRANCH   3   4
ENDBRANCH   2   3
ENDBRANCH   1   2
END_RES ARG D 557
BEGIN_RES GLU D 570
REMARK  3 active torsions:
REMARK  status: ('A' for Active; 'I' for Inactive)
REMARK    5  A    between atoms: CA   and  CB  
REMARK    6  A    between atoms: CB   and  CG  
REMARK    7  A    between atoms: CG   and  CD  
ROOT
ATOM     14  CA  GLU D 570     -18.033  -6.348 -13.375  1.00 32.92     0.160 C 
ENDROOT
BRANCH  14  15
ATOM     15  CB  GLU D 570     -19.500  -6.345 -13.794  1.00 32.92     0.043 C 
BRANCH  15  16
ATOM     16  CG  GLU D 570     -20.436  -5.503 -13.005  1.00 32.92     0.100 C 
BRANCH  16  17
ATOM     17  CD  GLU D 570     -21.774  -5.316 -13.681  1.00 32.92     0.185 C 
ATOM     18  OE1 GLU D 570     -22.162  -6.169 -14.502  1.00 32.92    -0.647 OA
ATOM     19  OE2 GLU D 570     -22.433  -4.296 -13.400  1.00 32.92    -0.647 OA
ENDBRANCH  16  17
ENDBRANCH  15  16
ENDBRANCH  14  15
END_RES GLU D 570
ENDMDL
MODEL 9
REMARK VINA RESULT:      -4.5      8.157     10.113
REMARK  4 active torsions:
REMARK  status: ('A' for Active; 'I' for Inactive)
REMARK    1  A    between atoms: C_2  and  O_9 
REMARK    2  A    between atoms: C_3  and  O_8 
REMARK    3  A    between atoms: C_4  and  C_6 
REMARK    4  A    between atoms: C_6  and  O_7 
ROOT
HETATM    1  C   UNL     1     -37.854   0.002 -14.228  1.00  0.00     0.202 C 
HETATM    2  C   UNL     1     -36.890   0.056 -15.403  1.00  0.00     0.173 C 
HETATM    3  C   UNL     1     -35.577  -0.509 -14.866  1.00  0.00     0.180 C 
HETATM    4  C   UNL     1     -35.846  -0.750 -13.374  1.00  0.00     0.176 C 
HETATM    5  O   UNL     1     -37.271  -0.857 -13.236  1.00  0.00    -0.378 OA
ENDROOT
BRANCH   4   6
HETATM    6  C   UNL     1     -35.297   0.328 -12.445  1.00  0.00     0.198 C 
BRANCH   6   7
HETATM    7  O   UNL     1     -35.868   0.190 -11.142  1.00  0.00    -0.398 OA
HETATM    8  H   UNL     1     -36.823   0.038 -11.265  1.00  0.00     0.209 HD
ENDBRANCH   6   7
ENDBRANCH   4   6
BRANCH   3   9
HETATM    9  O   UNL     1     -34.494   0.363 -15.190  1.00  0.00    -0.390 OA
HETATM   10  H   UNL     1     -33.703   0.064 -14.688  1.00  0.00     0.210 HD
ENDBRANCH   3   9
BRANCH   2  11
HETATM   11  O   UNL     1     -36.738   1.396 -15.869  1.00  0.00    -0.391 OA
HETATM   12  H   UNL     1     -35.969   1.749 -15.371  1.00  0.00     0.210 HD
ENDBRANCH   2  11
TORSDOF 4
BEGIN_RES ARG D 557
REMARK  4 active torsions:
REMARK  status: ('A' for Active; 'I' for Inactive)
REMARK    1  A    between atoms: CA   and  CB  
REMARK    2  A    between atoms: CB   and  CG  
REMARK    3  A    between atoms: CG   and  CD  
REMARK    4  A    between atoms: CD   and  NE  
REMARK       I    between atoms: NE   and  CZ  
REMARK       I    between atoms: CZ   and  NH1 
REMARK       I    between atoms: CZ   and  NH2 
ROOT
ATOM      1  CA  ARG D 557     -26.217   2.705 -17.014  1.00 35.49     0.159 C 
ENDROOT
BRANCH   1   2
ATOM      2  CB  ARG D 557     -26.789   1.319 -17.183  1.00 35.49     0.034 C 
BRANCH   2   3
ATOM      3  CG  ARG D 557     -25.833   0.205 -17.180  1.00 35.49     0.027 C 
BRANCH   3   4
ATOM      4  CD  ARG D 557     -24.739   0.403 -16.203  1.00 35.49     0.116 C 
BRANCH   4   5
ATOM      5  NE  ARG D 557     -24.887  -0.439 -15.045  1.00 35.49    -0.212 N 
ATOM      6  CZ  ARG D 557     -24.065  -1.398 -14.683  1.00 35.49     0.666 C 
ATOM      7  NH1 ARG D 557     -22.986  -1.709 -15.378  1.00 35.49    -0.235 N 
ATOM      8  NH2 ARG D 557     -24.344  -2.047 -13.590  1.00 35.49    -0.235 N 
ATOM      9  HH  ARG D 557     -22.782  -1.293 -16.100  1.00 35.49     0.174 HD
ATOM     10  HH  ARG D 557     -22.486  -2.342 -15.092  1.00 35.49     0.174 HD
ATOM     11  HH  ARG D 557     -25.043  -1.820 -13.157  1.00 35.49     0.174 HD
ATOM     12  HH  ARG D 557     -23.835  -2.671 -13.322  1.00 35.49     0.174 HD
ATOM     13  HE  ARG D 557     -25.593  -0.356 -14.579  1.00 35.49     0.178 HD
ENDBRANCH   4   5
ENDBRANCH   3   4
ENDBRANCH   2   3
ENDBRANCH   1   2
END_RES ARG D 557
BEGIN_RES GLU D 570
REMARK  3 active torsions:
REMARK  status: ('A' for Active; 'I' for Inactive)
REMARK    5  A    between atoms: CA   and  CB  
REMARK    6  A    between atoms: CB   and  CG  
REMARK    7  A    between atoms: CG   and  CD  
ROOT
ATOM     14  CA  GLU D 570     -18.033  -6.348 -13.375  1.00 32.92     0.160 C 
ENDROOT
BRANCH  14  15
ATOM     15  CB  GLU D 570     -19.500  -6.345 -13.794  1.00 32.92     0.043 C 
BRANCH  15  16
ATOM     16  CG  GLU D 570     -20.438  -5.513 -12.997  1.00 32.92     0.100 C 
BRANCH  16  17
ATOM     17  CD  GLU D 570     -21.734  -5.230 -13.719  1.00 32.92     0.185 C 
ATOM     18  OE1 GLU D 570     -22.199  -6.092 -14.490  1.00 32.92    -0.647 OA
ATOM     19  OE2 GLU D 570     -22.282  -4.127 -13.525  1.00 32.92    -0.647 OA
ENDBRANCH  16  17
ENDBRANCH  15  16
ENDBRANCH  14  15
END_RES GLU D 570
ENDMDL
