REMARK  5 active torsions:
REMARK  status: ('A' for Active; 'I' for Inactive)
REMARK       I    between atoms: C_2  and  N_4 
REMARK    1  A    between atoms: N_4  and  C_5 
REMARK    2  A    between atoms: C_9  and  O_10 
REMARK    3  A    between atoms: O_10  and  C_11 
REMARK    4  A    between atoms: C_13  and  C_14 
REMARK    5  A    between atoms: C_17  and  C_18 
ROOT
HETATM    1  C   UNL     1       8.445   1.696   4.767  1.00  0.00     0.151 A 
HETATM    2  C   UNL     1       9.319   2.732   4.522  1.00  0.00     0.086 A 
HETATM    3  C   UNL     1      10.347   2.893   5.432  1.00  0.00     0.047 A 
HETATM    4  N   UNL     1      10.475   2.082   6.506  1.00  0.00    -0.352 N 
ATOM      5  HN  UNL     1      11.247   2.187   7.164  1.00  0.00     0.166 HD
HETATM    6  C   UNL     1       9.542   1.134   6.667  1.00  0.00     0.182 A 
HETATM    7  N   UNL     1       8.513   0.901   5.850  1.00  0.00    -0.333 N 
ATOM      8  HN  UNL     1       7.825   0.170   6.034  1.00  0.00     0.168 HD
ENDROOT
BRANCH   1   9
HETATM    9  O   UNL     1       7.447   1.487   3.821  1.00  0.00    -0.291 OA
BRANCH   9  10
HETATM   10  C   UNL     1       7.002   0.190   3.619  1.00  0.00     0.105 A 
HETATM   11  C   UNL     1       5.639  -0.022   3.285  1.00  0.00     0.085 A 
HETATM   12  N   UNL     1       4.635   0.942   3.154  1.00  0.00    -0.333 N 
HETATM   13  C   UNL     1       5.209  -1.335   3.068  1.00  0.00     0.038 A 
HETATM   14  C   UNL     1       3.480   0.350   2.957  1.00  0.00     0.152 C 
ATOM     15  HN  UNL     1       4.778   1.951   3.204  1.00  0.00     0.168 HD
HETATM   16  S   UNL     1       3.531  -1.331   2.716  1.00  0.00    -0.052 SA
HETATM   17  C   UNL     1       6.070  -2.439   3.150  1.00  0.00     0.021 A 
HETATM   18  C   UNL     1       7.408  -2.211   3.456  1.00  0.00     0.004 A 
HETATM   19  C   UNL     1       7.872  -0.918   3.665  1.00  0.00     0.040 A 
BRANCH  14  20
HETATM   20  N   UNL     1       2.301   1.052   2.884  1.00  0.00    -0.307 N 
HETATM   21  C   UNL     1       1.042   0.509   3.039  1.00  0.00     0.219 C 
HETATM   22  C   UNL     1      -0.051   1.533   2.882  1.00  0.00     0.117 C 
HETATM   23  O   UNL     1       0.760  -0.658   3.290  1.00  0.00    -0.274 OA
HETATM   24  H   UNL     1       2.420   2.054   2.921  1.00  0.00     0.171 HD
ENDBRANCH  14  20
ENDBRANCH   9  10
ENDBRANCH   1   9
BRANCH   3  25
HETATM   25  C   UNL     1      11.393   3.928   5.287  1.00  0.00    -0.009 A 
HETATM   26  C   UNL     1      11.120   5.189   4.727  1.00  0.00     0.014 A 
HETATM   27  C   UNL     1      12.122   6.154   4.584  1.00  0.00     0.017 A 
HETATM   28  C   UNL     1      13.432   5.896   5.002  1.00  0.00     0.048 A 
HETATM   29  C   UNL     1      13.716   4.651   5.576  1.00  0.00     0.017 A 
HETATM   30  C   UNL     1      12.710   3.687   5.720  1.00  0.00     0.014 A 
BRANCH  28  31
HETATM   31  C   UNL     1      14.523   6.927   4.844  1.00  0.00     0.417 C 
HETATM   32  F   UNL     1      14.098   8.083   4.261  1.00  0.00    -0.166 F 
HETATM   33  F   UNL     1      15.076   7.292   6.034  1.00  0.00    -0.166 F 
HETATM   34  F   UNL     1      15.554   6.481   4.073  1.00  0.00    -0.166 F 
ENDBRANCH  28  31
ENDBRANCH   3  25
TORSDOF 5
