MODEL 1
REMARK VINA RESULT:     -10.5      0.000      0.000
REMARK  5 active torsions:
REMARK  status: ('A' for Active; 'I' for Inactive)
REMARK       I    between atoms: C_2  and  N_4 
REMARK    1  A    between atoms: N_4  and  C_5 
REMARK    2  A    between atoms: C_9  and  O_10 
REMARK    3  A    between atoms: O_10  and  C_11 
REMARK    4  A    between atoms: C_13  and  C_14 
REMARK    5  A    between atoms: C_17  and  C_18 
ROOT
HETATM    1  C   UNL     1     -21.751  -5.512  -5.884  1.00  0.00     0.151 A 
HETATM    2  C   UNL     1     -22.335  -5.166  -7.083  1.00  0.00     0.086 A 
HETATM    3  C   UNL     1     -21.510  -4.565  -8.014  1.00  0.00     0.047 A 
HETATM    4  N   UNL     1     -20.205  -4.324  -7.753  1.00  0.00    -0.352 N 
ATOM      5  HN  UNL     1     -19.591  -3.902  -8.449  1.00  0.00     0.166 HD
HETATM    6  C   UNL     1     -19.755  -4.665  -6.538  1.00  0.00     0.182 A 
HETATM    7  N   UNL     1     -20.471  -5.244  -5.572  1.00  0.00    -0.333 N 
ATOM      8  HN  UNL     1     -20.074  -5.468  -4.659  1.00  0.00     0.168 HD
ENDROOT
BRANCH   1   9
HETATM    9  O   UNL     1     -22.560  -6.176  -4.967  1.00  0.00    -0.291 OA
BRANCH   9  10
HETATM   10  C   UNL     1     -21.944  -6.844  -3.920  1.00  0.00     0.105 A 
HETATM   11  C   UNL     1     -21.295  -8.078  -4.182  1.00  0.00     0.085 A 
HETATM   12  N   UNL     1     -21.214  -8.755  -5.403  1.00  0.00    -0.333 N 
HETATM   13  C   UNL     1     -20.665  -8.732  -3.118  1.00  0.00     0.038 A 
HETATM   14  C   UNL     1     -20.639  -9.921  -5.222  1.00  0.00     0.152 C 
ATOM     15  HN  UNL     1     -21.550  -8.397  -6.298  1.00  0.00     0.168 HD
HETATM   16  S   UNL     1     -19.990 -10.205  -3.678  1.00  0.00    -0.052 SA
HETATM   17  C   UNL     1     -20.635  -8.209  -1.817  1.00  0.00     0.021 A 
HETATM   18  C   UNL     1     -21.257  -6.987  -1.583  1.00  0.00     0.004 A 
HETATM   19  C   UNL     1     -21.881  -6.304  -2.620  1.00  0.00     0.040 A 
BRANCH  14  20
HETATM   20  N   UNL     1     -20.509 -10.838  -6.237  1.00  0.00    -0.307 N 
HETATM   21  C   UNL     1     -21.288 -11.966  -6.393  1.00  0.00     0.219 C 
HETATM   22  C   UNL     1     -20.885 -12.784  -7.593  1.00  0.00     0.117 C 
HETATM   23  O   UNL     1     -22.225 -12.327  -5.690  1.00  0.00    -0.274 OA
HETATM   24  H   UNL     1     -19.933 -10.520  -7.003  1.00  0.00     0.171 HD
ENDBRANCH  14  20
ENDBRANCH   9  10
ENDBRANCH   1   9
BRANCH   3  25
HETATM   25  C   UNL     1     -21.971  -4.174  -9.363  1.00  0.00    -0.009 A 
HETATM   26  C   UNL     1     -23.307  -3.816  -9.618  1.00  0.00     0.014 A 
HETATM   27  C   UNL     1     -23.733  -3.461 -10.902  1.00  0.00     0.017 A 
HETATM   28  C   UNL     1     -22.838  -3.445 -11.977  1.00  0.00     0.048 A 
HETATM   29  C   UNL     1     -21.501  -3.785 -11.736  1.00  0.00     0.017 A 
HETATM   30  C   UNL     1     -21.076  -4.137 -10.449  1.00  0.00     0.014 A 
BRANCH  28  31
HETATM   31  C   UNL     1     -23.289  -3.073 -13.368  1.00  0.00     0.417 C 
HETATM   32  F   UNL     1     -23.924  -1.869 -13.430  1.00  0.00    -0.166 F 
HETATM   33  F   UNL     1     -22.255  -2.994 -14.251  1.00  0.00    -0.166 F 
HETATM   34  F   UNL     1     -24.161  -3.979 -13.893  1.00  0.00    -0.166 F 
ENDBRANCH  28  31
ENDBRANCH   3  25
TORSDOF 5
ENDMDL
MODEL 2
REMARK VINA RESULT:     -10.1      2.211      2.425
REMARK  5 active torsions:
REMARK  status: ('A' for Active; 'I' for Inactive)
REMARK       I    between atoms: C_2  and  N_4 
REMARK    1  A    between atoms: N_4  and  C_5 
REMARK    2  A    between atoms: C_9  and  O_10 
REMARK    3  A    between atoms: O_10  and  C_11 
REMARK    4  A    between atoms: C_13  and  C_14 
REMARK    5  A    between atoms: C_17  and  C_18 
ROOT
HETATM    1  C   UNL     1     -20.818  -6.367  -6.588  1.00  0.00     0.151 A 
HETATM    2  C   UNL     1     -21.571  -5.977  -7.673  1.00  0.00     0.086 A 
HETATM    3  C   UNL     1     -21.181  -4.808  -8.300  1.00  0.00     0.047 A 
HETATM    4  N   UNL     1     -20.124  -4.089  -7.861  1.00  0.00    -0.352 N 
ATOM      5  HN  UNL     1     -19.823  -3.239  -8.339  1.00  0.00     0.166 HD
HETATM    6  C   UNL     1     -19.490  -4.541  -6.771  1.00  0.00     0.182 A 
HETATM    7  N   UNL     1     -19.791  -5.651  -6.094  1.00  0.00    -0.333 N 
ATOM      8  HN  UNL     1     -19.278  -5.937  -5.260  1.00  0.00     0.168 HD
ENDROOT
BRANCH   1   9
HETATM    9  O   UNL     1     -21.164  -7.575  -5.992  1.00  0.00    -0.291 OA
BRANCH   9  10
HETATM   10  C   UNL     1     -20.898  -7.735  -4.641  1.00  0.00     0.105 A 
HETATM   11  C   UNL     1     -19.814  -8.564  -4.250  1.00  0.00     0.085 A 
HETATM   12  N   UNL     1     -18.959  -9.295  -5.081  1.00  0.00    -0.333 N 
HETATM   13  C   UNL     1     -19.548  -8.703  -2.884  1.00  0.00     0.038 A 
HETATM   14  C   UNL     1     -18.160 -10.035  -4.348  1.00  0.00     0.152 C 
ATOM     15  HN  UNL     1     -18.957  -9.259  -6.100  1.00  0.00     0.168 HD
HETATM   16  S   UNL     1     -18.225  -9.772  -2.670  1.00  0.00    -0.052 SA
HETATM   17  C   UNL     1     -20.293  -8.045  -1.895  1.00  0.00     0.021 A 
HETATM   18  C   UNL     1     -21.338  -7.218  -2.297  1.00  0.00     0.004 A 
HETATM   19  C   UNL     1     -21.622  -7.048  -3.646  1.00  0.00     0.040 A 
BRANCH  14  20
HETATM   20  N   UNL     1     -17.274 -10.926  -4.903  1.00  0.00    -0.307 N 
HETATM   21  C   UNL     1     -16.260 -10.598  -5.778  1.00  0.00     0.219 C 
HETATM   22  C   UNL     1     -15.472 -11.801  -6.226  1.00  0.00     0.117 C 
HETATM   23  O   UNL     1     -15.959  -9.480  -6.183  1.00  0.00    -0.274 OA
HETATM   24  H   UNL     1     -17.275 -11.833  -4.457  1.00  0.00     0.171 HD
ENDBRANCH  14  20
ENDBRANCH   9  10
ENDBRANCH   1   9
BRANCH   3  25
HETATM   25  C   UNL     1     -21.857  -4.279  -9.504  1.00  0.00    -0.009 A 
HETATM   26  C   UNL     1     -23.198  -3.856  -9.479  1.00  0.00     0.014 A 
HETATM   27  C   UNL     1     -23.829  -3.369 -10.628  1.00  0.00     0.017 A 
HETATM   28  C   UNL     1     -23.140  -3.281 -11.843  1.00  0.00     0.048 A 
HETATM   29  C   UNL     1     -21.799  -3.683 -11.880  1.00  0.00     0.017 A 
HETATM   30  C   UNL     1     -21.169  -4.168 -10.726  1.00  0.00     0.014 A 
BRANCH  28  31
HETATM   31  C   UNL     1     -23.814  -2.766 -13.091  1.00  0.00     0.417 C 
HETATM   32  F   UNL     1     -23.705  -3.610 -14.155  1.00  0.00    -0.166 F 
HETATM   33  F   UNL     1     -25.148  -2.555 -12.918  1.00  0.00    -0.166 F 
HETATM   34  F   UNL     1     -23.298  -1.576 -13.509  1.00  0.00    -0.166 F 
ENDBRANCH  28  31
ENDBRANCH   3  25
TORSDOF 5
ENDMDL
MODEL 3
REMARK VINA RESULT:      -9.8      2.069      3.528
REMARK  5 active torsions:
REMARK  status: ('A' for Active; 'I' for Inactive)
REMARK       I    between atoms: C_2  and  N_4 
REMARK    1  A    between atoms: N_4  and  C_5 
REMARK    2  A    between atoms: C_9  and  O_10 
REMARK    3  A    between atoms: O_10  and  C_11 
REMARK    4  A    between atoms: C_13  and  C_14 
REMARK    5  A    between atoms: C_17  and  C_18 
ROOT
HETATM    1  C   UNL     1     -20.699  -6.104  -6.384  1.00  0.00     0.151 A 
HETATM    2  C   UNL     1     -21.458  -5.810  -7.495  1.00  0.00     0.086 A 
HETATM    3  C   UNL     1     -20.994  -4.784  -8.298  1.00  0.00     0.047 A 
HETATM    4  N   UNL     1     -19.865  -4.105  -7.996  1.00  0.00    -0.352 N 
ATOM      5  HN  UNL     1     -19.511  -3.364  -8.601  1.00  0.00     0.166 HD
HETATM    6  C   UNL     1     -19.231  -4.449  -6.867  1.00  0.00     0.182 A 
HETATM    7  N   UNL     1     -19.599  -5.418  -6.027  1.00  0.00    -0.333 N 
ATOM      8  HN  UNL     1     -19.080  -5.625  -5.173  1.00  0.00     0.168 HD
ENDROOT
BRANCH   1   9
HETATM    9  O   UNL     1     -21.124  -7.178  -5.608  1.00  0.00    -0.291 OA
BRANCH   9  10
HETATM   10  C   UNL     1     -20.170  -8.084  -5.172  1.00  0.00     0.105 A 
HETATM   11  C   UNL     1     -20.302  -8.648  -3.877  1.00  0.00     0.085 A 
HETATM   12  N   UNL     1     -21.294  -8.379  -2.929  1.00  0.00    -0.333 N 
HETATM   13  C   UNL     1     -19.341  -9.574  -3.458  1.00  0.00     0.038 A 
HETATM   14  C   UNL     1     -21.012  -9.001  -1.808  1.00  0.00     0.152 C 
ATOM     15  HN  UNL     1     -22.113  -7.790  -3.085  1.00  0.00     0.168 HD
HETATM   16  S   UNL     1     -19.699 -10.080  -1.860  1.00  0.00    -0.052 SA
HETATM   17  C   UNL     1     -18.270  -9.975  -4.270  1.00  0.00     0.021 A 
HETATM   18  C   UNL     1     -18.168  -9.429  -5.545  1.00  0.00     0.004 A 
HETATM   19  C   UNL     1     -19.113  -8.517  -5.998  1.00  0.00     0.040 A 
BRANCH  14  20
HETATM   20  N   UNL     1     -21.769  -8.843  -0.672  1.00  0.00    -0.307 N 
HETATM   21  C   UNL     1     -22.505  -7.719  -0.358  1.00  0.00     0.219 C 
HETATM   22  C   UNL     1     -23.210  -7.843   0.966  1.00  0.00     0.117 C 
HETATM   23  O   UNL     1     -22.634  -6.701  -1.030  1.00  0.00    -0.274 OA
HETATM   24  H   UNL     1     -21.930  -9.702  -0.167  1.00  0.00     0.171 HD
ENDBRANCH  14  20
ENDBRANCH   9  10
ENDBRANCH   1   9
BRANCH   3  25
HETATM   25  C   UNL     1     -21.668  -4.376  -9.549  1.00  0.00    -0.009 A 
HETATM   26  C   UNL     1     -23.048  -4.110  -9.599  1.00  0.00     0.014 A 
HETATM   27  C   UNL     1     -23.675  -3.738 -10.792  1.00  0.00     0.017 A 
HETATM   28  C   UNL     1     -22.943  -3.612 -11.978  1.00  0.00     0.048 A 
HETATM   29  C   UNL     1     -21.566  -3.858 -11.941  1.00  0.00     0.017 A 
HETATM   30  C   UNL     1     -20.940  -4.228 -10.744  1.00  0.00     0.014 A 
BRANCH  28  31
HETATM   31  C   UNL     1     -23.611  -3.219 -13.274  1.00  0.00     0.417 C 
HETATM   32  F   UNL     1     -22.740  -2.770 -14.220  1.00  0.00    -0.166 F 
HETATM   33  F   UNL     1     -24.285  -4.253 -13.850  1.00  0.00    -0.166 F 
HETATM   34  F   UNL     1     -24.525  -2.222 -13.108  1.00  0.00    -0.166 F 
ENDBRANCH  28  31
ENDBRANCH   3  25
TORSDOF 5
ENDMDL
MODEL 4
REMARK VINA RESULT:      -9.6      3.349      4.983
REMARK  5 active torsions:
REMARK  status: ('A' for Active; 'I' for Inactive)
REMARK       I    between atoms: C_2  and  N_4 
REMARK    1  A    between atoms: N_4  and  C_5 
REMARK    2  A    between atoms: C_9  and  O_10 
REMARK    3  A    between atoms: O_10  and  C_11 
REMARK    4  A    between atoms: C_13  and  C_14 
REMARK    5  A    between atoms: C_17  and  C_18 
ROOT
HETATM    1  C   UNL     1     -21.340  -8.411  -1.674  1.00  0.00     0.151 A 
HETATM    2  C   UNL     1     -21.032  -8.023  -2.959  1.00  0.00     0.086 A 
HETATM    3  C   UNL     1     -21.399  -6.739  -3.315  1.00  0.00     0.047 A 
HETATM    4  N   UNL     1     -22.036  -5.919  -2.449  1.00  0.00    -0.352 N 
ATOM      5  HN  UNL     1     -22.286  -4.964  -2.705  1.00  0.00     0.166 HD
HETATM    6  C   UNL     1     -22.323  -6.418  -1.239  1.00  0.00     0.182 A 
HETATM    7  N   UNL     1     -22.015  -7.640  -0.803  1.00  0.00    -0.333 N 
ATOM      8  HN  UNL     1     -22.274  -7.968   0.129  1.00  0.00     0.168 HD
ENDROOT
BRANCH   1   9
HETATM    9  O   UNL     1     -20.915  -9.678  -1.288  1.00  0.00    -0.291 OA
BRANCH   9  10
HETATM   10  C   UNL     1     -21.853 -10.698  -1.255  1.00  0.00     0.105 A 
HETATM   11  C   UNL     1     -21.832 -11.681  -2.278  1.00  0.00     0.085 A 
HETATM   12  N   UNL     1     -20.971 -11.746  -3.378  1.00  0.00    -0.333 N 
HETATM   13  C   UNL     1     -22.774 -12.713  -2.222  1.00  0.00     0.038 A 
HETATM   14  C   UNL     1     -21.338 -12.730  -4.166  1.00  0.00     0.152 C 
ATOM     15  HN  UNL     1     -20.179 -11.124  -3.543  1.00  0.00     0.168 HD
HETATM   16  S   UNL     1     -22.566 -13.745  -3.575  1.00  0.00    -0.052 SA
HETATM   17  C   UNL     1     -23.720 -12.822  -1.192  1.00  0.00     0.021 A 
HETATM   18  C   UNL     1     -23.712 -11.862  -0.185  1.00  0.00     0.004 A 
HETATM   19  C   UNL     1     -22.781 -10.830  -0.203  1.00  0.00     0.040 A 
BRANCH  14  20
HETATM   20  N   UNL     1     -20.725 -12.969  -5.372  1.00  0.00    -0.307 N 
HETATM   21  C   UNL     1     -20.580 -12.046  -6.387  1.00  0.00     0.219 C 
HETATM   22  C   UNL     1     -19.882 -12.618  -7.592  1.00  0.00     0.117 C 
HETATM   23  O   UNL     1     -20.938 -10.873  -6.383  1.00  0.00    -0.274 OA
HETATM   24  H   UNL     1     -20.184 -13.822  -5.392  1.00  0.00     0.171 HD
ENDBRANCH  14  20
ENDBRANCH   9  10
ENDBRANCH   1   9
BRANCH   3  25
HETATM   25  C   UNL     1     -21.100  -6.156  -4.641  1.00  0.00    -0.009 A 
HETATM   26  C   UNL     1     -20.320  -4.995  -4.785  1.00  0.00     0.014 A 
HETATM   27  C   UNL     1     -20.055  -4.447  -6.044  1.00  0.00     0.017 A 
HETATM   28  C   UNL     1     -20.555  -5.045  -7.206  1.00  0.00     0.048 A 
HETATM   29  C   UNL     1     -21.320  -6.211  -7.081  1.00  0.00     0.017 A 
HETATM   30  C   UNL     1     -21.582  -6.758  -5.818  1.00  0.00     0.014 A 
BRANCH  28  31
HETATM   31  C   UNL     1     -20.283  -4.457  -8.569  1.00  0.00     0.417 C 
HETATM   32  F   UNL     1     -19.424  -3.399  -8.544  1.00  0.00    -0.166 F 
HETATM   33  F   UNL     1     -19.736  -5.360  -9.430  1.00  0.00    -0.166 F 
HETATM   34  F   UNL     1     -21.415  -4.000  -9.175  1.00  0.00    -0.166 F 
ENDBRANCH  28  31
ENDBRANCH   3  25
TORSDOF 5
ENDMDL
MODEL 5
REMARK VINA RESULT:      -9.5      3.241      4.345
REMARK  5 active torsions:
REMARK  status: ('A' for Active; 'I' for Inactive)
REMARK       I    between atoms: C_2  and  N_4 
REMARK    1  A    between atoms: N_4  and  C_5 
REMARK    2  A    between atoms: C_9  and  O_10 
REMARK    3  A    between atoms: O_10  and  C_11 
REMARK    4  A    between atoms: C_13  and  C_14 
REMARK    5  A    between atoms: C_17  and  C_18 
ROOT
HETATM    1  C   UNL     1     -20.808  -8.129  -4.400  1.00  0.00     0.151 A 
HETATM    2  C   UNL     1     -20.855  -7.611  -5.676  1.00  0.00     0.086 A 
HETATM    3  C   UNL     1     -21.117  -6.258  -5.777  1.00  0.00     0.047 A 
HETATM    4  N   UNL     1     -21.324  -5.493  -4.682  1.00  0.00    -0.352 N 
ATOM      5  HN  UNL     1     -21.494  -4.490  -4.756  1.00  0.00     0.166 HD
HETATM    6  C   UNL     1     -21.297  -6.112  -3.494  1.00  0.00     0.182 A 
HETATM    7  N   UNL     1     -21.058  -7.409  -3.292  1.00  0.00    -0.333 N 
ATOM      8  HN  UNL     1     -21.063  -7.826  -2.360  1.00  0.00     0.168 HD
ENDROOT
BRANCH   1   9
HETATM    9  O   UNL     1     -20.481  -9.476  -4.287  1.00  0.00    -0.291 OA
BRANCH   9  10
HETATM   10  C   UNL     1     -19.319  -9.810  -3.609  1.00  0.00     0.105 A 
HETATM   11  C   UNL     1     -19.397 -10.725  -2.527  1.00  0.00     0.085 A 
HETATM   12  N   UNL     1     -20.542 -11.341  -2.014  1.00  0.00    -0.333 N 
HETATM   13  C   UNL     1     -18.213 -11.065  -1.864  1.00  0.00     0.038 A 
HETATM   14  C   UNL     1     -20.229 -12.024  -0.937  1.00  0.00     0.152 C 
ATOM     15  HN  UNL     1     -21.478 -11.270  -2.414  1.00  0.00     0.168 HD
HETATM   16  S   UNL     1     -18.571 -12.149  -0.585  1.00  0.00    -0.052 SA
HETATM   17  C   UNL     1     -16.961 -10.553  -2.235  1.00  0.00     0.021 A 
HETATM   18  C   UNL     1     -16.900  -9.674  -3.312  1.00  0.00     0.004 A 
HETATM   19  C   UNL     1     -18.055  -9.326  -4.002  1.00  0.00     0.040 A 
BRANCH  14  20
HETATM   20  N   UNL     1     -21.177 -12.659  -0.172  1.00  0.00    -0.307 N 
HETATM   21  C   UNL     1     -22.353 -12.088   0.270  1.00  0.00     0.219 C 
HETATM   22  C   UNL     1     -23.174 -13.034   1.107  1.00  0.00     0.117 C 
HETATM   23  O   UNL     1     -22.763 -10.955   0.042  1.00  0.00    -0.274 OA
HETATM   24  H   UNL     1     -21.061 -13.661  -0.126  1.00  0.00     0.171 HD
ENDBRANCH  14  20
ENDBRANCH   9  10
ENDBRANCH   1   9
BRANCH   3  25
HETATM   25  C   UNL     1     -21.156  -5.542  -7.070  1.00  0.00    -0.009 A 
HETATM   26  C   UNL     1     -22.299  -4.846  -7.502  1.00  0.00     0.014 A 
HETATM   27  C   UNL     1     -22.327  -4.185  -8.734  1.00  0.00     0.017 A 
HETATM   28  C   UNL     1     -21.209  -4.188  -9.576  1.00  0.00     0.048 A 
HETATM   29  C   UNL     1     -20.058  -4.863  -9.153  1.00  0.00     0.017 A 
HETATM   30  C   UNL     1     -20.032  -5.523  -7.918  1.00  0.00     0.014 A 
BRANCH  28  31
HETATM   31  C   UNL     1     -21.231  -3.485 -10.911  1.00  0.00     0.417 C 
HETATM   32  F   UNL     1     -21.330  -4.335 -11.971  1.00  0.00    -0.166 F 
HETATM   33  F   UNL     1     -22.275  -2.618 -11.030  1.00  0.00    -0.166 F 
HETATM   34  F   UNL     1     -20.106  -2.748 -11.130  1.00  0.00    -0.166 F 
ENDBRANCH  28  31
ENDBRANCH   3  25
TORSDOF 5
ENDMDL
MODEL 6
REMARK VINA RESULT:      -9.4      2.723      3.717
REMARK  5 active torsions:
REMARK  status: ('A' for Active; 'I' for Inactive)
REMARK       I    between atoms: C_2  and  N_4 
REMARK    1  A    between atoms: N_4  and  C_5 
REMARK    2  A    between atoms: C_9  and  O_10 
REMARK    3  A    between atoms: O_10  and  C_11 
REMARK    4  A    between atoms: C_13  and  C_14 
REMARK    5  A    between atoms: C_17  and  C_18 
ROOT
HETATM    1  C   UNL     1     -20.618  -8.201  -4.409  1.00  0.00     0.151 A 
HETATM    2  C   UNL     1     -20.661  -7.671  -5.680  1.00  0.00     0.086 A 
HETATM    3  C   UNL     1     -21.052  -6.349  -5.778  1.00  0.00     0.047 A 
HETATM    4  N   UNL     1     -21.383  -5.625  -4.685  1.00  0.00    -0.352 N 
ATOM      5  HN  UNL     1     -21.649  -4.644  -4.756  1.00  0.00     0.166 HD
HETATM    6  C   UNL     1     -21.345  -6.257  -3.503  1.00  0.00     0.182 A 
HETATM    7  N   UNL     1     -20.986  -7.526  -3.305  1.00  0.00    -0.333 N 
ATOM      8  HN  UNL     1     -20.991  -7.956  -2.379  1.00  0.00     0.168 HD
ENDROOT
BRANCH   1   9
HETATM    9  O   UNL     1     -20.162  -9.510  -4.296  1.00  0.00    -0.291 OA
BRANCH   9  10
HETATM   10  C   UNL     1     -18.811  -9.712  -4.062  1.00  0.00     0.105 A 
HETATM   11  C   UNL     1     -18.059 -10.468  -4.999  1.00  0.00     0.085 A 
HETATM   12  N   UNL     1     -18.526 -11.087  -6.162  1.00  0.00    -0.333 N 
HETATM   13  C   UNL     1     -16.694 -10.649  -4.758  1.00  0.00     0.038 A 
HETATM   14  C   UNL     1     -17.560 -11.794  -6.702  1.00  0.00     0.152 C 
ATOM     15  HN  UNL     1     -19.472 -11.003  -6.535  1.00  0.00     0.168 HD
HETATM   16  S   UNL     1     -16.021 -11.617  -6.003  1.00  0.00    -0.052 SA
HETATM   17  C   UNL     1     -16.041 -10.101  -3.644  1.00  0.00     0.021 A 
HETATM   18  C   UNL     1     -16.788  -9.343  -2.748  1.00  0.00     0.004 A 
HETATM   19  C   UNL     1     -18.144  -9.133  -2.963  1.00  0.00     0.040 A 
BRANCH  14  20
HETATM   20  N   UNL     1     -17.761 -12.584  -7.808  1.00  0.00    -0.307 N 
HETATM   21  C   UNL     1     -18.721 -13.569  -7.917  1.00  0.00     0.219 C 
HETATM   22  C   UNL     1     -18.675 -14.274  -9.247  1.00  0.00     0.117 C 
HETATM   23  O   UNL     1     -19.559 -13.888  -7.080  1.00  0.00    -0.274 OA
HETATM   24  H   UNL     1     -17.292 -12.251  -8.638  1.00  0.00     0.171 HD
ENDBRANCH  14  20
ENDBRANCH   9  10
ENDBRANCH   1   9
BRANCH   3  25
HETATM   25  C   UNL     1     -21.107  -5.621  -7.064  1.00  0.00    -0.009 A 
HETATM   26  C   UNL     1     -22.287  -5.011  -7.525  1.00  0.00     0.014 A 
HETATM   27  C   UNL     1     -22.328  -4.337  -8.749  1.00  0.00     0.017 A 
HETATM   28  C   UNL     1     -21.187  -4.241  -9.554  1.00  0.00     0.048 A 
HETATM   29  C   UNL     1     -20.000  -4.830  -9.102  1.00  0.00     0.017 A 
HETATM   30  C   UNL     1     -19.962  -5.503  -7.874  1.00  0.00     0.014 A 
BRANCH  28  31
HETATM   31  C   UNL     1     -21.222  -3.524 -10.882  1.00  0.00     0.417 C 
HETATM   32  F   UNL     1     -22.277  -2.670 -11.010  1.00  0.00    -0.166 F 
HETATM   33  F   UNL     1     -20.107  -2.774 -11.102  1.00  0.00    -0.166 F 
HETATM   34  F   UNL     1     -21.310  -4.382 -11.936  1.00  0.00    -0.166 F 
ENDBRANCH  28  31
ENDBRANCH   3  25
TORSDOF 5
ENDMDL
MODEL 7
REMARK VINA RESULT:      -9.2      2.582      4.216
REMARK  5 active torsions:
REMARK  status: ('A' for Active; 'I' for Inactive)
REMARK       I    between atoms: C_2  and  N_4 
REMARK    1  A    between atoms: N_4  and  C_5 
REMARK    2  A    between atoms: C_9  and  O_10 
REMARK    3  A    between atoms: O_10  and  C_11 
REMARK    4  A    between atoms: C_13  and  C_14 
REMARK    5  A    between atoms: C_17  and  C_18 
ROOT
HETATM    1  C   UNL     1     -20.157  -7.615  -4.585  1.00  0.00     0.151 A 
HETATM    2  C   UNL     1     -20.122  -7.079  -5.854  1.00  0.00     0.086 A 
HETATM    3  C   UNL     1     -21.057  -6.099  -6.129  1.00  0.00     0.047 A 
HETATM    4  N   UNL     1     -21.958  -5.700  -5.204  1.00  0.00    -0.352 N 
ATOM      5  HN  UNL     1     -22.632  -4.960  -5.401  1.00  0.00     0.166 HD
HETATM    6  C   UNL     1     -21.927  -6.321  -4.017  1.00  0.00     0.182 A 
HETATM    7  N   UNL     1     -21.070  -7.278  -3.657  1.00  0.00    -0.333 N 
ATOM      8  HN  UNL     1     -21.105  -7.724  -2.739  1.00  0.00     0.168 HD
ENDROOT
BRANCH   1   9
HETATM    9  O   UNL     1     -19.179  -8.555  -4.280  1.00  0.00    -0.291 OA
BRANCH   9  10
HETATM   10  C   UNL     1     -19.284  -9.814  -4.849  1.00  0.00     0.105 A 
HETATM   11  C   UNL     1     -20.306 -10.688  -4.394  1.00  0.00     0.085 A 
HETATM   12  N   UNL     1     -21.243 -10.449  -3.385  1.00  0.00    -0.333 N 
HETATM   13  C   UNL     1     -20.410 -11.949  -4.990  1.00  0.00     0.038 A 
HETATM   14  C   UNL     1     -21.942 -11.538  -3.167  1.00  0.00     0.152 C 
ATOM     15  HN  UNL     1     -21.364  -9.564  -2.892  1.00  0.00     0.168 HD
HETATM   16  S   UNL     1     -21.686 -12.822  -4.250  1.00  0.00    -0.052 SA
HETATM   17  C   UNL     1     -19.561 -12.372  -6.024  1.00  0.00     0.021 A 
HETATM   18  C   UNL     1     -18.580 -11.494  -6.473  1.00  0.00     0.004 A 
HETATM   19  C   UNL     1     -18.457 -10.229  -5.912  1.00  0.00     0.040 A 
BRANCH  14  20
HETATM   20  N   UNL     1     -22.877 -11.619  -2.163  1.00  0.00    -0.307 N 
HETATM   21  C   UNL     1     -23.007 -10.721  -1.124  1.00  0.00     0.219 C 
HETATM   22  C   UNL     1     -24.112 -11.095  -0.172  1.00  0.00     0.117 C 
HETATM   23  O   UNL     1     -22.349  -9.703  -0.933  1.00  0.00    -0.274 OA
HETATM   24  H   UNL     1     -23.620 -12.277  -2.350  1.00  0.00     0.171 HD
ENDBRANCH  14  20
ENDBRANCH   9  10
ENDBRANCH   1   9
BRANCH   3  25
HETATM   25  C   UNL     1     -21.121  -5.393  -7.427  1.00  0.00    -0.009 A 
HETATM   26  C   UNL     1     -20.032  -5.370  -8.317  1.00  0.00     0.014 A 
HETATM   27  C   UNL     1     -20.103  -4.688  -9.536  1.00  0.00     0.017 A 
HETATM   28  C   UNL     1     -21.268  -4.010  -9.913  1.00  0.00     0.048 A 
HETATM   29  C   UNL     1     -22.366  -4.038  -9.045  1.00  0.00     0.017 A 
HETATM   30  C   UNL     1     -22.293  -4.723  -7.826  1.00  0.00     0.014 A 
BRANCH  28  31
HETATM   31  C   UNL     1     -21.351  -3.263 -11.222  1.00  0.00     0.417 C 
HETATM   32  F   UNL     1     -21.298  -4.075 -12.315  1.00  0.00    -0.166 F 
HETATM   33  F   UNL     1     -22.505  -2.549 -11.345  1.00  0.00    -0.166 F 
HETATM   34  F   UNL     1     -20.337  -2.367 -11.376  1.00  0.00    -0.166 F 
ENDBRANCH  28  31
ENDBRANCH   3  25
TORSDOF 5
ENDMDL
MODEL 8
REMARK VINA RESULT:      -9.2      3.672      4.848
REMARK  5 active torsions:
REMARK  status: ('A' for Active; 'I' for Inactive)
REMARK       I    between atoms: C_2  and  N_4 
REMARK    1  A    between atoms: N_4  and  C_5 
REMARK    2  A    between atoms: C_9  and  O_10 
REMARK    3  A    between atoms: O_10  and  C_11 
REMARK    4  A    between atoms: C_13  and  C_14 
REMARK    5  A    between atoms: C_17  and  C_18 
ROOT
HETATM    1  C   UNL     1     -20.807  -8.262  -3.659  1.00  0.00     0.151 A 
HETATM    2  C   UNL     1     -20.826  -7.781  -4.949  1.00  0.00     0.086 A 
HETATM    3  C   UNL     1     -21.195  -6.458  -5.104  1.00  0.00     0.047 A 
HETATM    4  N   UNL     1     -21.529  -5.688  -4.044  1.00  0.00    -0.352 N 
ATOM      5  HN  UNL     1     -21.779  -4.706  -4.156  1.00  0.00     0.166 HD
HETATM    6  C   UNL     1     -21.516  -6.273  -2.839  1.00  0.00     0.182 A 
HETATM    7  N   UNL     1     -21.180  -7.540  -2.587  1.00  0.00    -0.333 N 
ATOM      8  HN  UNL     1     -21.203  -7.934  -1.645  1.00  0.00     0.168 HD
ENDROOT
BRANCH   1   9
HETATM    9  O   UNL     1     -20.374  -9.573  -3.489  1.00  0.00    -0.291 OA
BRANCH   9  10
HETATM   10  C   UNL     1     -21.185 -10.440  -2.775  1.00  0.00     0.105 A 
HETATM   11  C   UNL     1     -20.644 -11.110  -1.646  1.00  0.00     0.085 A 
HETATM   12  N   UNL     1     -19.338 -11.029  -1.154  1.00  0.00    -0.333 N 
HETATM   13  C   UNL     1     -21.480 -11.969  -0.926  1.00  0.00     0.038 A 
HETATM   14  C   UNL     1     -19.185 -11.886  -0.171  1.00  0.00     0.152 C 
ATOM     15  HN  UNL     1     -18.615 -10.402  -1.505  1.00  0.00     0.168 HD
HETATM   16  S   UNL     1     -20.592 -12.677   0.359  1.00  0.00    -0.052 SA
HETATM   17  C   UNL     1     -22.825 -12.179  -1.262  1.00  0.00     0.021 A 
HETATM   18  C   UNL     1     -23.345 -11.497  -2.358  1.00  0.00     0.004 A 
HETATM   19  C   UNL     1     -22.546 -10.625  -3.089  1.00  0.00     0.040 A 
BRANCH  14  20
HETATM   20  N   UNL     1     -17.972 -12.088   0.442  1.00  0.00    -0.307 N 
HETATM   21  C   UNL     1     -16.741 -11.924  -0.160  1.00  0.00     0.219 C 
HETATM   22  C   UNL     1     -15.599 -12.242   0.769  1.00  0.00     0.117 C 
HETATM   23  O   UNL     1     -16.516 -11.553  -1.307  1.00  0.00    -0.274 OA
HETATM   24  H   UNL     1     -18.030 -12.161   1.447  1.00  0.00     0.171 HD
ENDBRANCH  14  20
ENDBRANCH   9  10
ENDBRANCH   1   9
BRANCH   3  25
HETATM   25  C   UNL     1     -21.221  -5.779  -6.417  1.00  0.00    -0.009 A 
HETATM   26  C   UNL     1     -22.342  -5.052  -6.857  1.00  0.00     0.014 A 
HETATM   27  C   UNL     1     -22.357  -4.426  -8.108  1.00  0.00     0.017 A 
HETATM   28  C   UNL     1     -21.251  -4.498  -8.961  1.00  0.00     0.048 A 
HETATM   29  C   UNL     1     -20.122  -5.205  -8.530  1.00  0.00     0.017 A 
HETATM   30  C   UNL     1     -20.108  -5.830  -7.276  1.00  0.00     0.014 A 
BRANCH  28  31
HETATM   31  C   UNL     1     -21.261  -3.834 -10.316  1.00  0.00     0.417 C 
HETATM   32  F   UNL     1     -20.139  -3.105 -10.572  1.00  0.00    -0.166 F 
HETATM   33  F   UNL     1     -21.364  -4.729 -11.338  1.00  0.00    -0.166 F 
HETATM   34  F   UNL     1     -22.305  -2.971 -10.466  1.00  0.00    -0.166 F 
ENDBRANCH  28  31
ENDBRANCH   3  25
TORSDOF 5
ENDMDL
MODEL 9
REMARK VINA RESULT:      -9.2      2.893      3.775
REMARK  5 active torsions:
REMARK  status: ('A' for Active; 'I' for Inactive)
REMARK       I    between atoms: C_2  and  N_4 
REMARK    1  A    between atoms: N_4  and  C_5 
REMARK    2  A    between atoms: C_9  and  O_10 
REMARK    3  A    between atoms: O_10  and  C_11 
REMARK    4  A    between atoms: C_13  and  C_14 
REMARK    5  A    between atoms: C_17  and  C_18 
ROOT
HETATM    1  C   UNL     1     -21.592  -8.092  -3.975  1.00  0.00     0.151 A 
HETATM    2  C   UNL     1     -21.627  -7.606  -5.264  1.00  0.00     0.086 A 
HETATM    3  C   UNL     1     -21.402  -6.250  -5.412  1.00  0.00     0.047 A 
HETATM    4  N   UNL     1     -21.173  -5.450  -4.346  1.00  0.00    -0.352 N 
ATOM      5  HN  UNL     1     -20.984  -4.454  -4.459  1.00  0.00     0.166 HD
HETATM    6  C   UNL     1     -21.204  -6.024  -3.136  1.00  0.00     0.182 A 
HETATM    7  N   UNL     1     -21.415  -7.319  -2.889  1.00  0.00    -0.333 N 
ATOM      8  HN  UNL     1     -21.441  -7.696  -1.941  1.00  0.00     0.168 HD
ENDROOT
BRANCH   1   9
HETATM    9  O   UNL     1     -21.752  -9.465  -3.824  1.00  0.00    -0.291 OA
BRANCH   9  10
HETATM   10  C   UNL     1     -21.380 -10.036  -2.617  1.00  0.00     0.105 A 
HETATM   11  C   UNL     1     -20.057 -10.529  -2.471  1.00  0.00     0.085 A 
HETATM   12  N   UNL     1     -19.043 -10.542  -3.433  1.00  0.00    -0.333 N 
HETATM   13  C   UNL     1     -19.692 -11.086  -1.241  1.00  0.00     0.038 A 
HETATM   14  C   UNL     1     -18.001 -11.188  -2.965  1.00  0.00     0.152 C 
ATOM     15  HN  UNL     1     -19.103 -10.115  -4.358  1.00  0.00     0.168 HD
HETATM   16  S   UNL     1     -18.070 -11.635  -1.327  1.00  0.00    -0.052 SA
HETATM   17  C   UNL     1     -20.571 -11.160  -0.151  1.00  0.00     0.021 A 
HETATM   18  C   UNL     1     -21.857 -10.651  -0.304  1.00  0.00     0.004 A 
HETATM   19  C   UNL     1     -22.249 -10.079  -1.508  1.00  0.00     0.040 A 
BRANCH  14  20
HETATM   20  N   UNL     1     -16.888 -11.435  -3.731  1.00  0.00    -0.307 N 
HETATM   21  C   UNL     1     -16.495 -10.691  -4.825  1.00  0.00     0.219 C 
HETATM   22  C   UNL     1     -15.243 -11.227  -5.468  1.00  0.00     0.117 C 
HETATM   23  O   UNL     1     -17.038  -9.688  -5.277  1.00  0.00    -0.274 OA
HETATM   24  H   UNL     1     -16.239 -12.085  -3.311  1.00  0.00     0.171 HD
ENDBRANCH  14  20
ENDBRANCH   9  10
ENDBRANCH   1   9
BRANCH   3  25
HETATM   25  C   UNL     1     -21.362  -5.582  -6.730  1.00  0.00    -0.009 A 
HETATM   26  C   UNL     1     -22.427  -4.791  -7.197  1.00  0.00     0.014 A 
HETATM   27  C   UNL     1     -22.381  -4.176  -8.452  1.00  0.00     0.017 A 
HETATM   28  C   UNL     1     -21.265  -4.323  -9.283  1.00  0.00     0.048 A 
HETATM   29  C   UNL     1     -20.190  -5.094  -8.826  1.00  0.00     0.017 A 
HETATM   30  C   UNL     1     -20.238  -5.707  -7.567  1.00  0.00     0.014 A 
BRANCH  28  31
HETATM   31  C   UNL     1     -21.209  -3.670 -10.643  1.00  0.00     0.417 C 
HETATM   32  F   UNL     1     -22.229  -2.796 -10.869  1.00  0.00    -0.166 F 
HETATM   33  F   UNL     1     -20.062  -2.962 -10.838  1.00  0.00    -0.166 F 
HETATM   34  F   UNL     1     -21.266  -4.577 -11.659  1.00  0.00    -0.166 F 
ENDBRANCH  28  31
ENDBRANCH   3  25
TORSDOF 5
ENDMDL
