MODEL 1
REMARK VINA RESULT:     -10.1      0.000      0.000
REMARK  11 active torsions:
REMARK  status: ('A' for Active; 'I' for Inactive)
REMARK    1  A    between atoms: C_2  and  C_4 
REMARK    2  A    between atoms: C_10  and  C_11 
REMARK    3  A    between atoms: C_11  and  C_12 
REMARK    4  A    between atoms: C_22  and  C_23 
REMARK    5  A    between atoms: C_23  and  O_24 
REMARK    6  A    between atoms: O_24  and  C_25 
REMARK    7  A    between atoms: C_25  and  C_27 
REMARK    8  A    between atoms: C_27  and  C_28 
REMARK    9  A    between atoms: C_31  and  O_32 
REMARK   10  A    between atoms: C_33  and  O_34 
REMARK   11  A    between atoms: C_38  and  O_39 
ROOT
HETATM    1  C   UNL     1     -19.691 -12.208  -6.039  1.00  0.00     0.116 C 
HETATM    2  C   UNL     1     -20.400 -13.031  -4.926  1.00  0.00     0.053 C 
HETATM    3  C   UNL     1     -20.161 -12.629  -3.497  1.00  0.00     0.021 C 
HETATM    4  C   UNL     1     -18.948 -13.371  -2.868  1.00  0.00     0.013 C 
HETATM    5  C   UNL     1     -19.934 -11.114  -3.353  1.00  0.00     0.086 C 
HETATM    6  O   UNL     1     -18.554 -10.952  -3.832  1.00  0.00    -0.319 OA
HETATM    7  C   UNL     1     -18.268 -10.704  -5.283  1.00  0.00     0.288 C 
HETATM    8  O   UNL     1     -19.004  -9.763  -5.932  1.00  0.00    -0.323 OA
HETATM    9  C   UNL     1     -20.235 -10.446  -5.680  1.00  0.00     0.177 C 
HETATM   10  C   UNL     1     -20.621 -10.100  -4.209  1.00  0.00     0.077 C 
HETATM   11  C   UNL     1     -19.905  -8.721  -3.704  1.00  0.00    -0.011 C 
HETATM   12  C   UNL     1     -20.471  -7.843  -2.853  1.00  0.00    -0.056 C 
HETATM   13  C   UNL     1     -20.207  -8.161  -1.387  1.00  0.00     0.082 C 
HETATM   14  C   UNL     1     -20.952  -9.469  -1.138  1.00  0.00     0.128 C 
HETATM   15  C   UNL     1     -20.915  -9.849   0.331  1.00  0.00     0.165 C 
HETATM   16  O   UNL     1     -21.221  -9.115   1.240  1.00  0.00    -0.294 OA
HETATM   17  C   UNL     1     -20.689 -11.324   0.536  1.00  0.00     0.055 C 
HETATM   18  C   UNL     1     -22.046 -11.973   0.746  1.00  0.00     0.018 C 
HETATM   19  C   UNL     1     -19.975 -11.588  -0.611  1.00  0.00     0.023 C 
HETATM   20  C   UNL     1     -20.483 -10.813  -1.818  1.00  0.00     0.065 C 
HETATM   21  O   UNL     1     -18.409 -11.720  -6.147  1.00  0.00    -0.314 OA
ENDROOT
BRANCH  12  22
HETATM   22  C   UNL     1     -21.781  -7.168  -3.133  1.00  0.00     0.212 C 
BRANCH  22  23
HETATM   23  O   UNL     1     -21.535  -5.931  -3.806  1.00  0.00    -0.317 OA
BRANCH  23  24
HETATM   24  C   UNL     1     -21.466  -5.974  -5.159  1.00  0.00     0.263 C 
HETATM   25  O   UNL     1     -21.819  -6.939  -5.842  1.00  0.00    -0.265 OA
BRANCH  24  26
HETATM   26  C   UNL     1     -20.662  -4.820  -5.682  1.00  0.00     0.149 C 
BRANCH  26  27
HETATM   27  C   UNL     1     -20.865  -4.642  -7.158  1.00  0.00    -0.046 A 
HETATM   28  C   UNL     1     -19.883  -4.941  -8.099  1.00  0.00     0.010 A 
HETATM   29  C   UNL     1     -20.044  -4.652  -9.491  1.00  0.00     0.040 A 
HETATM   30  C   UNL     1     -21.318  -4.135  -9.911  1.00  0.00     0.099 A 
HETATM   31  C   UNL     1     -22.295  -3.890  -9.020  1.00  0.00     0.101 A 
HETATM   32  C   UNL     1     -22.079  -4.129  -7.664  1.00  0.00     0.047 A 
BRANCH  30  33
HETATM   33  O   UNL     1     -21.417  -3.933 -11.330  1.00  0.00    -0.358 OA
HETATM   34  H   UNL     1     -22.242  -3.514 -11.591  1.00  0.00     0.217 HD
ENDBRANCH  30  33
BRANCH  31  35
HETATM   35  O   UNL     1     -23.516  -3.390  -9.306  1.00  0.00    -0.353 OA
HETATM   36  C   UNL     1     -24.438  -4.345  -9.794  1.00  0.00     0.210 C 
ENDBRANCH  31  35
ENDBRANCH  26  27
ENDBRANCH  24  26
ENDBRANCH  23  24
ENDBRANCH  22  23
ENDBRANCH  12  22
BRANCH  14  37
HETATM   37  O   UNL     1     -22.379  -9.276  -1.366  1.00  0.00    -0.381 OA
HETATM   38  H   UNL     1     -22.549  -9.522  -2.299  1.00  0.00     0.211 HD
ENDBRANCH  14  37
BRANCH   1  39
HETATM   39  C   UNL     1     -18.670 -13.456  -6.541  1.00  0.00    -0.056 C 
HETATM   40  C   UNL     1     -18.539 -13.714  -7.855  1.00  0.00     0.017 C 
HETATM   41  C   UNL     1     -17.631 -14.328  -5.653  1.00  0.00     0.046 C 
ENDBRANCH   1  39
BRANCH   7  42
HETATM   42  C   UNL     1     -16.837 -10.467  -5.252  1.00  0.00     0.140 C 
BRANCH  42  43
HETATM   43  C   UNL     1     -15.610 -11.301  -5.380  1.00  0.00    -0.051 A 
HETATM   44  C   UNL     1     -14.911 -11.757  -6.509  1.00  0.00     0.007 A 
HETATM   45  C   UNL     1     -13.787 -12.495  -6.289  1.00  0.00     0.001 A 
HETATM   46  C   UNL     1     -13.359 -12.765  -4.980  1.00  0.00     0.000 A 
HETATM   47  C   UNL     1     -14.097 -12.360  -3.869  1.00  0.00     0.001 A 
HETATM   48  C   UNL     1     -15.215 -11.608  -4.087  1.00  0.00     0.007 A 
ENDBRANCH  42  43
ENDBRANCH   7  42
TORSDOF 11
ENDMDL
MODEL 2
REMARK VINA RESULT:     -10.0      1.646      2.640
REMARK  11 active torsions:
REMARK  status: ('A' for Active; 'I' for Inactive)
REMARK    1  A    between atoms: C_2  and  C_4 
REMARK    2  A    between atoms: C_10  and  C_11 
REMARK    3  A    between atoms: C_11  and  C_12 
REMARK    4  A    between atoms: C_22  and  C_23 
REMARK    5  A    between atoms: C_23  and  O_24 
REMARK    6  A    between atoms: O_24  and  C_25 
REMARK    7  A    between atoms: C_25  and  C_27 
REMARK    8  A    between atoms: C_27  and  C_28 
REMARK    9  A    between atoms: C_31  and  O_32 
REMARK   10  A    between atoms: C_33  and  O_34 
REMARK   11  A    between atoms: C_38  and  O_39 
ROOT
HETATM    1  C   UNL     1     -19.599 -12.379  -4.835  1.00  0.00     0.116 C 
HETATM    2  C   UNL     1     -20.578 -12.278  -3.631  1.00  0.00     0.053 C 
HETATM    3  C   UNL     1     -20.538 -11.027  -2.798  1.00  0.00     0.021 C 
HETATM    4  C   UNL     1     -19.544 -11.142  -1.607  1.00  0.00     0.013 C 
HETATM    5  C   UNL     1     -20.160  -9.791  -3.631  1.00  0.00     0.086 C 
HETATM    6  O   UNL     1     -18.710  -9.953  -3.804  1.00  0.00    -0.319 OA
HETATM    7  C   UNL     1     -18.156 -10.718  -4.969  1.00  0.00     0.288 C 
HETATM    8  O   UNL     1     -18.655 -10.458  -6.206  1.00  0.00    -0.323 OA
HETATM    9  C   UNL     1     -19.983 -10.832  -5.830  1.00  0.00     0.177 C 
HETATM   10  C   UNL     1     -20.568  -9.610  -5.057  1.00  0.00     0.077 C 
HETATM   11  C   UNL     1     -19.789  -8.225  -5.438  1.00  0.00    -0.011 C 
HETATM   12  C   UNL     1     -20.382  -7.016  -5.501  1.00  0.00    -0.056 C 
HETATM   13  C   UNL     1     -20.409  -6.282  -4.168  1.00  0.00     0.082 C 
HETATM   14  C   UNL     1     -21.335  -7.116  -3.288  1.00  0.00     0.128 C 
HETATM   15  C   UNL     1     -21.591  -6.430  -1.958  1.00  0.00     0.165 C 
HETATM   16  O   UNL     1     -21.957  -5.287  -1.833  1.00  0.00    -0.294 OA
HETATM   17  C   UNL     1     -21.580  -7.398  -0.803  1.00  0.00     0.055 C 
HETATM   18  C   UNL     1     -23.020  -7.777  -0.505  1.00  0.00     0.018 C 
HETATM   19  C   UNL     1     -20.719  -8.336  -1.325  1.00  0.00     0.023 C 
HETATM   20  C   UNL     1     -20.920  -8.563  -2.815  1.00  0.00     0.065 C 
HETATM   21  O   UNL     1     -18.268 -12.055  -4.969  1.00  0.00    -0.314 OA
ENDROOT
BRANCH  12  22
HETATM   22  C   UNL     1     -21.537  -6.726  -6.414  1.00  0.00     0.212 C 
BRANCH  22  23
HETATM   23  O   UNL     1     -21.916  -5.355  -6.266  1.00  0.00    -0.317 OA
BRANCH  23  24
HETATM   24  C   UNL     1     -21.400  -4.479  -7.163  1.00  0.00     0.263 C 
HETATM   25  O   UNL     1     -21.394  -3.255  -7.014  1.00  0.00    -0.265 OA
BRANCH  24  26
HETATM   26  C   UNL     1     -21.093  -5.173  -8.458  1.00  0.00     0.149 C 
BRANCH  26  27
HETATM   27  C   UNL     1     -21.634  -4.403  -9.626  1.00  0.00    -0.046 A 
HETATM   28  C   UNL     1     -20.818  -3.825 -10.596  1.00  0.00     0.010 A 
HETATM   29  C   UNL     1     -21.338  -2.992 -11.636  1.00  0.00     0.040 A 
HETATM   30  C   UNL     1     -22.766  -2.855 -11.715  1.00  0.00     0.099 A 
HETATM   31  C   UNL     1     -23.571  -3.449 -10.815  1.00  0.00     0.101 A 
HETATM   32  C   UNL     1     -23.023  -4.206  -9.782  1.00  0.00     0.047 A 
BRANCH  30  33
HETATM   33  O   UNL     1     -23.207  -2.054 -12.823  1.00  0.00    -0.358 OA
HETATM   34  H   UNL     1     -23.846  -1.381 -12.567  1.00  0.00     0.217 HD
ENDBRANCH  30  33
BRANCH  31  35
HETATM   35  O   UNL     1     -24.919  -3.371 -10.789  1.00  0.00    -0.353 OA
HETATM   36  C   UNL     1     -25.466  -3.153  -9.503  1.00  0.00     0.210 C 
ENDBRANCH  31  35
ENDBRANCH  26  27
ENDBRANCH  24  26
ENDBRANCH  23  24
ENDBRANCH  22  23
ENDBRANCH  12  22
BRANCH  14  37
HETATM   37  O   UNL     1     -22.670  -7.154  -3.872  1.00  0.00    -0.381 OA
HETATM   38  H   UNL     1     -22.827  -8.081  -4.151  1.00  0.00     0.211 HD
ENDBRANCH  14  37
BRANCH   1  39
HETATM   39  C   UNL     1     -18.663 -13.624  -4.183  1.00  0.00    -0.056 C 
HETATM   40  C   UNL     1     -19.082 -14.251  -3.069  1.00  0.00     0.017 C 
HETATM   41  C   UNL     1     -17.352 -14.339  -4.815  1.00  0.00     0.046 C 
ENDBRANCH   1  39
BRANCH   7  42
HETATM   42  C   UNL     1     -16.733 -10.488  -4.807  1.00  0.00     0.140 C 
BRANCH  42  43
HETATM   43  C   UNL     1     -15.517 -11.337  -4.677  1.00  0.00    -0.051 A 
HETATM   44  C   UNL     1     -14.851 -11.839  -3.548  1.00  0.00     0.007 A 
HETATM   45  C   UNL     1     -13.758 -12.623  -3.766  1.00  0.00     0.001 A 
HETATM   46  C   UNL     1     -13.341 -12.911  -5.075  1.00  0.00     0.000 A 
HETATM   47  C   UNL     1     -13.973 -12.355  -6.186  1.00  0.00     0.001 A 
HETATM   48  C   UNL     1     -15.078 -11.583  -5.969  1.00  0.00     0.007 A 
ENDBRANCH  42  43
ENDBRANCH   7  42
TORSDOF 11
ENDMDL
MODEL 3
REMARK VINA RESULT:      -9.7      2.225      3.272
REMARK  11 active torsions:
REMARK  status: ('A' for Active; 'I' for Inactive)
REMARK    1  A    between atoms: C_2  and  C_4 
REMARK    2  A    between atoms: C_10  and  C_11 
REMARK    3  A    between atoms: C_11  and  C_12 
REMARK    4  A    between atoms: C_22  and  C_23 
REMARK    5  A    between atoms: C_23  and  O_24 
REMARK    6  A    between atoms: O_24  and  C_25 
REMARK    7  A    between atoms: C_25  and  C_27 
REMARK    8  A    between atoms: C_27  and  C_28 
REMARK    9  A    between atoms: C_31  and  O_32 
REMARK   10  A    between atoms: C_33  and  O_34 
REMARK   11  A    between atoms: C_38  and  O_39 
ROOT
HETATM    1  C   UNL     1     -19.738 -13.611  -2.421  1.00  0.00     0.116 C 
HETATM    2  C   UNL     1     -20.918 -13.258  -1.472  1.00  0.00     0.053 C 
HETATM    3  C   UNL     1     -20.944 -11.881  -0.867  1.00  0.00     0.021 C 
HETATM    4  C   UNL     1     -20.207 -11.822   0.501  1.00  0.00     0.013 C 
HETATM    5  C   UNL     1     -20.323 -10.829  -1.802  1.00  0.00     0.086 C 
HETATM    6  O   UNL     1     -18.883 -11.078  -1.650  1.00  0.00    -0.319 OA
HETATM    7  C   UNL     1     -18.176 -12.060  -2.536  1.00  0.00     0.288 C 
HETATM    8  O   UNL     1     -18.409 -12.004  -3.874  1.00  0.00    -0.323 OA
HETATM    9  C   UNL     1     -19.808 -12.251  -3.716  1.00  0.00     0.177 C 
HETATM   10  C   UNL     1     -20.437 -10.889  -3.290  1.00  0.00     0.077 C 
HETATM   11  C   UNL     1     -19.499  -9.626  -3.732  1.00  0.00    -0.011 C 
HETATM   12  C   UNL     1     -19.977  -8.425  -4.114  1.00  0.00    -0.056 C 
HETATM   13  C   UNL     1     -20.203  -7.465  -2.954  1.00  0.00     0.082 C 
HETATM   14  C   UNL     1     -21.339  -8.090  -2.151  1.00  0.00     0.128 C 
HETATM   15  C   UNL     1     -21.792  -7.169  -1.034  1.00  0.00     0.165 C 
HETATM   16  O   UNL     1     -22.089  -6.008  -1.176  1.00  0.00    -0.294 OA
HETATM   17  C   UNL     1     -22.073  -7.916   0.245  1.00  0.00     0.055 C 
HETATM   18  C   UNL     1     -23.568  -8.177   0.307  1.00  0.00     0.018 C 
HETATM   19  C   UNL     1     -21.201  -8.966   0.070  1.00  0.00     0.023 C 
HETATM   20  C   UNL     1     -21.131  -9.446  -1.371  1.00  0.00     0.065 C 
HETATM   21  O   UNL     1     -18.385 -13.370  -2.336  1.00  0.00    -0.314 OA
ENDROOT
BRANCH  12  22
HETATM   22  C   UNL     1     -20.912  -8.255  -5.275  1.00  0.00     0.212 C 
BRANCH  22  23
HETATM   23  O   UNL     1     -20.565  -7.062  -5.982  1.00  0.00    -0.317 OA
BRANCH  23  24
HETATM   24  C   UNL     1     -21.314  -5.961  -5.727  1.00  0.00     0.263 C 
HETATM   25  O   UNL     1     -22.447  -5.990  -5.240  1.00  0.00    -0.265 OA
BRANCH  24  26
HETATM   26  C   UNL     1     -20.698  -4.748  -6.361  1.00  0.00     0.149 C 
BRANCH  26  27
HETATM   27  C   UNL     1     -20.996  -4.695  -7.830  1.00  0.00    -0.046 A 
HETATM   28  C   UNL     1     -20.002  -4.601  -8.802  1.00  0.00     0.010 A 
HETATM   29  C   UNL     1     -20.303  -4.427 -10.189  1.00  0.00     0.040 A 
HETATM   30  C   UNL     1     -21.688  -4.462 -10.571  1.00  0.00     0.099 A 
HETATM   31  C   UNL     1     -22.658  -4.603  -9.648  1.00  0.00     0.101 A 
HETATM   32  C   UNL     1     -22.327  -4.711  -8.299  1.00  0.00     0.047 A 
BRANCH  30  33
HETATM   33  O   UNL     1     -21.899  -4.343 -11.986  1.00  0.00    -0.358 OA
HETATM   34  H   UNL     1     -21.356  -3.659 -12.389  1.00  0.00     0.217 HD
ENDBRANCH  30  33
BRANCH  31  35
HETATM   35  O   UNL     1     -23.985  -4.630  -9.897  1.00  0.00    -0.353 OA
HETATM   36  C   UNL     1     -24.627  -3.376  -9.780  1.00  0.00     0.210 C 
ENDBRANCH  31  35
ENDBRANCH  26  27
ENDBRANCH  24  26
ENDBRANCH  23  24
ENDBRANCH  22  23
ENDBRANCH  12  22
BRANCH  14  37
HETATM   37  O   UNL     1     -22.537  -8.178  -2.977  1.00  0.00    -0.381 OA
HETATM   38  H   UNL     1     -22.781  -7.259  -3.216  1.00  0.00     0.211 HD
ENDBRANCH  14  37
BRANCH   1  39
HETATM   39  C   UNL     1     -19.038 -14.756  -1.395  1.00  0.00    -0.056 C 
HETATM   40  C   UNL     1     -18.554 -15.899  -1.915  1.00  0.00     0.017 C 
HETATM   41  C   UNL     1     -18.682 -14.616   0.181  1.00  0.00     0.046 C 
ENDBRANCH   1  39
BRANCH   7  42
HETATM   42  C   UNL     1     -16.797 -11.862  -2.133  1.00  0.00     0.140 C 
BRANCH  42  43
HETATM   43  C   UNL     1     -15.857 -12.507  -1.175  1.00  0.00    -0.051 A 
HETATM   44  C   UNL     1     -14.900 -13.519  -1.352  1.00  0.00     0.007 A 
HETATM   45  C   UNL     1     -14.166 -13.880  -0.262  1.00  0.00     0.001 A 
HETATM   46  C   UNL     1     -14.368 -13.244   0.972  1.00  0.00     0.000 A 
HETATM   47  C   UNL     1     -15.364 -12.285   1.150  1.00  0.00     0.001 A 
HETATM   48  C   UNL     1     -16.089 -11.911   0.056  1.00  0.00     0.007 A 
ENDBRANCH  42  43
ENDBRANCH   7  42
TORSDOF 11
ENDMDL
MODEL 4
REMARK VINA RESULT:      -9.7      1.648      2.053
REMARK  11 active torsions:
REMARK  status: ('A' for Active; 'I' for Inactive)
REMARK    1  A    between atoms: C_2  and  C_4 
REMARK    2  A    between atoms: C_10  and  C_11 
REMARK    3  A    between atoms: C_11  and  C_12 
REMARK    4  A    between atoms: C_22  and  C_23 
REMARK    5  A    between atoms: C_23  and  O_24 
REMARK    6  A    between atoms: O_24  and  C_25 
REMARK    7  A    between atoms: C_25  and  C_27 
REMARK    8  A    between atoms: C_27  and  C_28 
REMARK    9  A    between atoms: C_31  and  O_32 
REMARK   10  A    between atoms: C_33  and  O_34 
REMARK   11  A    between atoms: C_38  and  O_39 
ROOT
HETATM    1  C   UNL     1     -21.823 -12.991  -6.452  1.00  0.00     0.116 C 
HETATM    2  C   UNL     1     -22.829 -13.052  -5.268  1.00  0.00     0.053 C 
HETATM    3  C   UNL     1     -22.360 -12.572  -3.923  1.00  0.00     0.021 C 
HETATM    4  C   UNL     1     -21.735 -13.714  -3.071  1.00  0.00     0.013 C 
HETATM    5  C   UNL     1     -21.331 -11.434  -4.043  1.00  0.00     0.086 C 
HETATM    6  O   UNL     1     -20.107 -12.151  -4.429  1.00  0.00    -0.319 OA
HETATM    7  C   UNL     1     -19.781 -12.393  -5.872  1.00  0.00     0.288 C 
HETATM    8  O   UNL     1     -19.900 -11.354  -6.742  1.00  0.00    -0.323 OA
HETATM    9  C   UNL     1     -21.293 -11.188  -6.470  1.00  0.00     0.177 C 
HETATM   10  C   UNL     1     -21.375 -10.404  -5.124  1.00  0.00     0.077 C 
HETATM   11  C   UNL     1     -20.000  -9.571  -4.825  1.00  0.00    -0.011 C 
HETATM   12  C   UNL     1     -19.960  -8.379  -4.198  1.00  0.00    -0.056 C 
HETATM   13  C   UNL     1     -19.865  -8.491  -2.683  1.00  0.00     0.082 C 
HETATM   14  C   UNL     1     -21.198  -9.100  -2.258  1.00  0.00     0.128 C 
HETATM   15  C   UNL     1     -21.326  -9.138  -0.746  1.00  0.00     0.165 C 
HETATM   16  O   UNL     1     -21.146  -8.194  -0.016  1.00  0.00    -0.294 OA
HETATM   17  C   UNL     1     -21.943 -10.422  -0.256  1.00  0.00     0.055 C 
HETATM   18  C   UNL     1     -23.425 -10.168  -0.041  1.00  0.00     0.018 C 
HETATM   19  C   UNL     1     -21.532 -11.254  -1.273  1.00  0.00     0.023 C 
HETATM   20  C   UNL     1     -21.570 -10.585  -2.639  1.00  0.00     0.065 C 
HETATM   21  O   UNL     1     -20.488 -13.315  -6.543  1.00  0.00    -0.314 OA
ENDROOT
BRANCH  12  22
HETATM   22  C   UNL     1     -20.690  -7.170  -4.704  1.00  0.00     0.212 C 
BRANCH  22  23
HETATM   23  O   UNL     1     -20.039  -6.691  -5.883  1.00  0.00    -0.317 OA
BRANCH  23  24
HETATM   24  C   UNL     1     -20.231  -5.386  -6.199  1.00  0.00     0.263 C 
HETATM   25  O   UNL     1     -19.490  -4.468  -5.841  1.00  0.00    -0.265 OA
BRANCH  24  26
HETATM   26  C   UNL     1     -21.593  -5.186  -6.799  1.00  0.00     0.149 C 
BRANCH  26  27
HETATM   27  C   UNL     1     -21.496  -4.797  -8.244  1.00  0.00    -0.046 A 
HETATM   28  C   UNL     1     -20.343  -4.983  -9.004  1.00  0.00     0.010 A 
HETATM   29  C   UNL     1     -20.223  -4.497 -10.344  1.00  0.00     0.040 A 
HETATM   30  C   UNL     1     -21.388  -3.895 -10.931  1.00  0.00     0.099 A 
HETATM   31  C   UNL     1     -22.526  -3.754 -10.227  1.00  0.00     0.101 A 
HETATM   32  C   UNL     1     -22.585  -4.188  -8.904  1.00  0.00     0.047 A 
BRANCH  30  33
HETATM   33  O   UNL     1     -21.201  -3.491 -12.297  1.00  0.00    -0.358 OA
HETATM   34  H   UNL     1     -21.770  -3.968 -12.909  1.00  0.00     0.217 HD
ENDBRANCH  30  33
BRANCH  31  35
HETATM   35  O   UNL     1     -23.667  -3.189 -10.676  1.00  0.00    -0.353 OA
HETATM   36  C   UNL     1     -24.782  -3.369  -9.825  1.00  0.00     0.210 C 
ENDBRANCH  31  35
ENDBRANCH  26  27
ENDBRANCH  24  26
ENDBRANCH  23  24
ENDBRANCH  22  23
ENDBRANCH  12  22
BRANCH  14  37
HETATM   37  O   UNL     1     -22.289  -8.209  -2.633  1.00  0.00    -0.381 OA
HETATM   38  H   UNL     1     -22.842  -8.700  -3.278  1.00  0.00     0.211 HD
ENDBRANCH  14  37
BRANCH   1  39
HETATM   39  C   UNL     1     -21.675 -14.663  -6.631  1.00  0.00    -0.056 C 
HETATM   40  C   UNL     1     -22.766 -15.439  -6.503  1.00  0.00     0.017 C 
HETATM   41  C   UNL     1     -20.388 -15.515  -7.129  1.00  0.00     0.046 C 
ENDBRANCH   1  39
BRANCH   7  42
HETATM   42  C   UNL     1     -18.457 -12.975  -5.769  1.00  0.00     0.140 C 
BRANCH  42  43
HETATM   43  C   UNL     1     -17.057 -12.478  -5.868  1.00  0.00    -0.051 A 
HETATM   44  C   UNL     1     -16.009 -12.820  -6.737  1.00  0.00     0.007 A 
HETATM   45  C   UNL     1     -14.830 -12.154  -6.584  1.00  0.00     0.001 A 
HETATM   46  C   UNL     1     -14.697 -11.164  -5.599  1.00  0.00     0.000 A 
HETATM   47  C   UNL     1     -15.724 -10.878  -4.702  1.00  0.00     0.001 A 
HETATM   48  C   UNL     1     -16.910 -11.533  -4.864  1.00  0.00     0.007 A 
ENDBRANCH  42  43
ENDBRANCH   7  42
TORSDOF 11
ENDMDL
MODEL 5
REMARK VINA RESULT:      -9.7      2.586      6.082
REMARK  11 active torsions:
REMARK  status: ('A' for Active; 'I' for Inactive)
REMARK    1  A    between atoms: C_2  and  C_4 
REMARK    2  A    between atoms: C_10  and  C_11 
REMARK    3  A    between atoms: C_11  and  C_12 
REMARK    4  A    between atoms: C_22  and  C_23 
REMARK    5  A    between atoms: C_23  and  O_24 
REMARK    6  A    between atoms: O_24  and  C_25 
REMARK    7  A    between atoms: C_25  and  C_27 
REMARK    8  A    between atoms: C_27  and  C_28 
REMARK    9  A    between atoms: C_31  and  O_32 
REMARK   10  A    between atoms: C_33  and  O_34 
REMARK   11  A    between atoms: C_38  and  O_39 
ROOT
HETATM    1  C   UNL     1     -22.308 -11.743   0.241  1.00  0.00     0.116 C 
HETATM    2  C   UNL     1     -20.815 -11.412   0.519  1.00  0.00     0.053 C 
HETATM    3  C   UNL     1     -19.844 -11.538  -0.622  1.00  0.00     0.021 C 
HETATM    4  C   UNL     1     -19.212 -12.957  -0.707  1.00  0.00     0.013 C 
HETATM    5  C   UNL     1     -20.499 -11.213  -1.975  1.00  0.00     0.086 C 
HETATM    6  O   UNL     1     -21.278 -12.429  -2.252  1.00  0.00    -0.319 OA
HETATM    7  C   UNL     1     -22.693 -12.559  -1.771  1.00  0.00     0.288 C 
HETATM    8  O   UNL     1     -23.540 -11.514  -1.971  1.00  0.00    -0.323 OA
HETATM    9  C   UNL     1     -22.734 -10.618  -1.202  1.00  0.00     0.177 C 
HETATM   10  C   UNL     1     -21.567 -10.182  -2.140  1.00  0.00     0.077 C 
HETATM   11  C   UNL     1     -21.954 -10.374  -3.716  1.00  0.00    -0.011 C 
HETATM   12  C   UNL     1     -21.531  -9.560  -4.703  1.00  0.00    -0.056 C 
HETATM   13  C   UNL     1     -20.188  -9.968  -5.294  1.00  0.00     0.082 C 
HETATM   14  C   UNL     1     -19.188  -9.748  -4.163  1.00  0.00     0.128 C 
HETATM   15  C   UNL     1     -17.764  -9.966  -4.641  1.00  0.00     0.165 C 
HETATM   16  O   UNL     1     -17.278  -9.449  -5.617  1.00  0.00    -0.294 OA
HETATM   17  C   UNL     1     -16.929 -10.711  -3.632  1.00  0.00     0.055 C 
HETATM   18  C   UNL     1     -16.148  -9.683  -2.832  1.00  0.00     0.018 C 
HETATM   19  C   UNL     1     -17.931 -11.434  -3.025  1.00  0.00     0.023 C 
HETATM   20  C   UNL     1     -19.220 -10.644  -2.865  1.00  0.00     0.065 C 
HETATM   21  O   UNL     1     -22.909 -12.763  -0.462  1.00  0.00    -0.314 OA
ENDROOT
BRANCH  12  22
HETATM   22  C   UNL     1     -21.814  -8.087  -4.719  1.00  0.00     0.212 C 
BRANCH  22  23
HETATM   23  O   UNL     1     -21.315  -7.528  -5.936  1.00  0.00    -0.317 OA
BRANCH  23  24
HETATM   24  C   UNL     1     -20.938  -6.226  -5.901  1.00  0.00     0.263 C 
HETATM   25  O   UNL     1     -19.970  -5.800  -5.268  1.00  0.00    -0.265 OA
BRANCH  24  26
HETATM   26  C   UNL     1     -22.002  -5.355  -6.503  1.00  0.00     0.149 C 
BRANCH  26  27
HETATM   27  C   UNL     1     -21.645  -4.955  -7.905  1.00  0.00    -0.046 A 
HETATM   28  C   UNL     1     -20.356  -5.068  -8.421  1.00  0.00     0.010 A 
HETATM   29  C   UNL     1     -20.004  -4.571  -9.714  1.00  0.00     0.040 A 
HETATM   30  C   UNL     1     -21.064  -4.038 -10.525  1.00  0.00     0.099 A 
HETATM   31  C   UNL     1     -22.324  -3.968 -10.059  1.00  0.00     0.101 A 
HETATM   32  C   UNL     1     -22.618  -4.410  -8.771  1.00  0.00     0.047 A 
BRANCH  30  33
HETATM   33  O   UNL     1     -20.636  -3.618 -11.830  1.00  0.00    -0.358 OA
HETATM   34  H   UNL     1     -20.624  -2.662 -11.930  1.00  0.00     0.217 HD
ENDBRANCH  30  33
BRANCH  31  35
HETATM   35  O   UNL     1     -23.387  -3.471 -10.729  1.00  0.00    -0.353 OA
HETATM   36  C   UNL     1     -24.567  -3.367  -9.957  1.00  0.00     0.210 C 
ENDBRANCH  31  35
ENDBRANCH  26  27
ENDBRANCH  24  26
ENDBRANCH  23  24
ENDBRANCH  22  23
ENDBRANCH  12  22
BRANCH  14  37
HETATM   37  O   UNL     1     -19.169  -8.340  -3.787  1.00  0.00    -0.381 OA
HETATM   38  H   UNL     1     -18.314  -8.182  -3.336  1.00  0.00     0.211 HD
ENDBRANCH  14  37
BRANCH   1  39
HETATM   39  C   UNL     1     -22.354 -13.126   1.209  1.00  0.00    -0.056 C 
HETATM   40  C   UNL     1     -23.474 -13.415   1.895  1.00  0.00     0.017 C 
HETATM   41  C   UNL     1     -21.262 -14.321   1.315  1.00  0.00     0.046 C 
ENDBRANCH   1  39
BRANCH   7  42
HETATM   42  C   UNL     1     -23.086 -13.811  -2.389  1.00  0.00     0.140 C 
BRANCH  42  43
HETATM   43  C   UNL     1     -24.078 -14.883  -2.100  1.00  0.00    -0.051 A 
HETATM   44  C   UNL     1     -24.820 -15.176  -0.945  1.00  0.00     0.007 A 
HETATM   45  C   UNL     1     -25.680 -16.231  -1.007  1.00  0.00     0.001 A 
HETATM   46  C   UNL     1     -25.808 -16.974  -2.191  1.00  0.00     0.000 A 
HETATM   47  C   UNL     1     -25.019 -16.713  -3.311  1.00  0.00     0.001 A 
HETATM   48  C   UNL     1     -24.170 -15.646  -3.255  1.00  0.00     0.007 A 
ENDBRANCH  42  43
ENDBRANCH   7  42
TORSDOF 11
ENDMDL
MODEL 6
REMARK VINA RESULT:      -9.1      3.165      8.089
REMARK  11 active torsions:
REMARK  status: ('A' for Active; 'I' for Inactive)
REMARK    1  A    between atoms: C_2  and  C_4 
REMARK    2  A    between atoms: C_10  and  C_11 
REMARK    3  A    between atoms: C_11  and  C_12 
REMARK    4  A    between atoms: C_22  and  C_23 
REMARK    5  A    between atoms: C_23  and  O_24 
REMARK    6  A    between atoms: O_24  and  C_25 
REMARK    7  A    between atoms: C_25  and  C_27 
REMARK    8  A    between atoms: C_27  and  C_28 
REMARK    9  A    between atoms: C_31  and  O_32 
REMARK   10  A    between atoms: C_33  and  O_34 
REMARK   11  A    between atoms: C_38  and  O_39 
ROOT
HETATM    1  C   UNL     1     -21.106  -9.012  -0.493  1.00  0.00     0.116 C 
HETATM    2  C   UNL     1     -21.925  -9.983   0.403  1.00  0.00     0.053 C 
HETATM    3  C   UNL     1     -22.443 -11.247  -0.224  1.00  0.00     0.021 C 
HETATM    4  C   UNL     1     -23.865 -11.069  -0.828  1.00  0.00     0.013 C 
HETATM    5  C   UNL     1     -21.507 -11.771  -1.326  1.00  0.00     0.086 C 
HETATM    6  O   UNL     1     -21.798 -10.866  -2.448  1.00  0.00    -0.319 OA
HETATM    7  C   UNL     1     -21.037  -9.586  -2.620  1.00  0.00     0.288 C 
HETATM    8  O   UNL     1     -19.682  -9.622  -2.508  1.00  0.00    -0.323 OA
HETATM    9  C   UNL     1     -19.732 -10.105  -1.163  1.00  0.00     0.177 C 
HETATM   10  C   UNL     1     -20.020 -11.634  -1.268  1.00  0.00     0.077 C 
HETATM   11  C   UNL     1     -19.589 -12.231  -2.727  1.00  0.00    -0.011 C 
HETATM   12  C   UNL     1     -19.097 -13.471  -2.921  1.00  0.00    -0.056 C 
HETATM   13  C   UNL     1     -20.174 -14.524  -3.144  1.00  0.00     0.082 C 
HETATM   14  C   UNL     1     -20.909 -14.610  -1.810  1.00  0.00     0.128 C 
HETATM   15  C   UNL     1     -21.927 -15.736  -1.817  1.00  0.00     0.165 C 
HETATM   16  O   UNL     1     -21.691 -16.875  -2.139  1.00  0.00    -0.294 OA
HETATM   17  C   UNL     1     -23.218 -15.345  -1.145  1.00  0.00     0.055 C 
HETATM   18  C   UNL     1     -23.164 -15.852   0.286  1.00  0.00     0.018 C 
HETATM   19  C   UNL     1     -23.182 -13.992  -1.393  1.00  0.00     0.023 C 
HETATM   20  C   UNL     1     -21.783 -13.405  -1.285  1.00  0.00     0.065 C 
HETATM   21  O   UNL     1     -21.294  -8.570  -1.783  1.00  0.00    -0.314 OA
ENDROOT
BRANCH  12  22
HETATM   22  C   UNL     1     -17.851 -13.965  -2.248  1.00  0.00     0.212 C 
BRANCH  22  23
HETATM   23  O   UNL     1     -17.556 -13.121  -1.133  1.00  0.00    -0.317 OA
BRANCH  23  24
HETATM   24  C   UNL     1     -16.256 -12.784  -0.949  1.00  0.00     0.263 C 
HETATM   25  O   UNL     1     -15.459 -13.436  -0.271  1.00  0.00    -0.265 OA
BRANCH  24  26
HETATM   26  C   UNL     1     -15.999 -11.391  -1.446  1.00  0.00     0.149 C 
BRANCH  26  27
HETATM   27  C   UNL     1     -15.684 -11.389  -2.913  1.00  0.00    -0.046 A 
HETATM   28  C   UNL     1     -16.381 -10.614  -3.837  1.00  0.00     0.010 A 
HETATM   29  C   UNL     1     -16.153 -10.713  -5.245  1.00  0.00     0.040 A 
HETATM   30  C   UNL     1     -15.088 -11.574  -5.679  1.00  0.00     0.099 A 
HETATM   31  C   UNL     1     -14.372 -12.292  -4.795  1.00  0.00     0.101 A 
HETATM   32  C   UNL     1     -14.663 -12.212  -3.434  1.00  0.00     0.047 A 
BRANCH  30  33
HETATM   33  O   UNL     1     -14.885 -11.568  -7.101  1.00  0.00    -0.358 OA
HETATM   34  H   UNL     1     -14.831 -12.452  -7.475  1.00  0.00     0.217 HD
ENDBRANCH  30  33
BRANCH  31  35
HETATM   35  O   UNL     1     -13.366 -13.140  -5.097  1.00  0.00    -0.353 OA
HETATM   36  C   UNL     1     -13.374 -14.344  -4.354  1.00  0.00     0.210 C 
ENDBRANCH  31  35
ENDBRANCH  26  27
ENDBRANCH  24  26
ENDBRANCH  23  24
ENDBRANCH  22  23
ENDBRANCH  12  22
BRANCH  14  37
HETATM   37  O   UNL     1     -19.988 -15.040  -0.765  1.00  0.00    -0.381 OA
HETATM   38  H   UNL     1     -19.095 -14.744  -1.040  1.00  0.00     0.211 HD
ENDBRANCH  14  37
BRANCH   1  39
HETATM   39  C   UNL     1     -22.254  -7.773  -0.488  1.00  0.00    -0.056 C 
HETATM   40  C   UNL     1     -23.199  -7.754   0.469  1.00  0.00     0.017 C 
HETATM   41  C   UNL     1     -22.298  -6.434  -1.400  1.00  0.00     0.046 C 
ENDBRANCH   1  39
BRANCH   7  42
HETATM   42  C   UNL     1     -21.547  -9.124  -3.897  1.00  0.00     0.140 C 
BRANCH  42  43
HETATM   43  C   UNL     1     -21.440  -7.880  -4.707  1.00  0.00    -0.051 A 
HETATM   44  C   UNL     1     -22.358  -6.845  -4.945  1.00  0.00     0.007 A 
HETATM   45  C   UNL     1     -21.942  -5.810  -5.728  1.00  0.00     0.001 A 
HETATM   46  C   UNL     1     -20.641  -5.797  -6.255  1.00  0.00     0.000 A 
HETATM   47  C   UNL     1     -19.761  -6.861  -6.064  1.00  0.00     0.001 A 
HETATM   48  C   UNL     1     -20.171  -7.890  -5.267  1.00  0.00     0.007 A 
ENDBRANCH  42  43
ENDBRANCH   7  42
TORSDOF 11
ENDMDL
MODEL 7
REMARK VINA RESULT:      -8.9      2.220      3.383
REMARK  11 active torsions:
REMARK  status: ('A' for Active; 'I' for Inactive)
REMARK    1  A    between atoms: C_2  and  C_4 
REMARK    2  A    between atoms: C_10  and  C_11 
REMARK    3  A    between atoms: C_11  and  C_12 
REMARK    4  A    between atoms: C_22  and  C_23 
REMARK    5  A    between atoms: C_23  and  O_24 
REMARK    6  A    between atoms: O_24  and  C_25 
REMARK    7  A    between atoms: C_25  and  C_27 
REMARK    8  A    between atoms: C_27  and  C_28 
REMARK    9  A    between atoms: C_31  and  O_32 
REMARK   10  A    between atoms: C_33  and  O_34 
REMARK   11  A    between atoms: C_38  and  O_39 
ROOT
HETATM    1  C   UNL     1     -16.866 -10.636  -5.094  1.00  0.00     0.116 C 
HETATM    2  C   UNL     1     -17.852 -11.673  -5.702  1.00  0.00     0.053 C 
HETATM    3  C   UNL     1     -18.735 -12.439  -4.757  1.00  0.00     0.021 C 
HETATM    4  C   UNL     1     -18.082 -13.770  -4.285  1.00  0.00     0.013 C 
HETATM    5  C   UNL     1     -19.107 -11.611  -3.516  1.00  0.00     0.086 C 
HETATM    6  O   UNL     1     -17.875 -11.666  -2.715  1.00  0.00    -0.319 OA
HETATM    7  C   UNL     1     -16.799 -10.637  -2.890  1.00  0.00     0.288 C 
HETATM    8  O   UNL     1     -17.161  -9.327  -2.935  1.00  0.00    -0.323 OA
HETATM    9  C   UNL     1     -17.989  -9.518  -4.084  1.00  0.00     0.177 C 
HETATM   10  C   UNL     1     -19.321 -10.133  -3.553  1.00  0.00     0.077 C 
HETATM   11  C   UNL     1     -19.549  -9.804  -1.969  1.00  0.00    -0.011 C 
HETATM   12  C   UNL     1     -20.755  -9.592  -1.406  1.00  0.00    -0.056 C 
HETATM   13  C   UNL     1     -21.436 -10.868  -0.930  1.00  0.00     0.082 C 
HETATM   14  C   UNL     1     -21.743 -11.640  -2.210  1.00  0.00     0.128 C 
HETATM   15  C   UNL     1     -22.567 -12.880  -1.916  1.00  0.00     0.165 C 
HETATM   16  O   UNL     1     -23.587 -12.892  -1.271  1.00  0.00    -0.294 OA
HETATM   17  C   UNL     1     -22.117 -14.071  -2.722  1.00  0.00     0.055 C 
HETATM   18  C   UNL     1     -23.016 -14.169  -3.942  1.00  0.00     0.018 C 
HETATM   19  C   UNL     1     -20.791 -13.731  -2.874  1.00  0.00     0.023 C 
HETATM   20  C   UNL     1     -20.581 -12.241  -3.093  1.00  0.00     0.065 C 
HETATM   21  O   UNL     1     -16.038 -10.687  -3.995  1.00  0.00    -0.314 OA
ENDROOT
BRANCH  12  22
HETATM   22  C   UNL     1     -21.682  -8.504  -1.859  1.00  0.00     0.212 C 
BRANCH  22  23
HETATM   23  O   UNL     1     -21.144  -7.889  -3.032  1.00  0.00    -0.317 OA
BRANCH  23  24
HETATM   24  C   UNL     1     -21.664  -6.688  -3.387  1.00  0.00     0.263 C 
HETATM   25  O   UNL     1     -21.777  -5.728  -2.622  1.00  0.00    -0.265 OA
BRANCH  24  26
HETATM   26  C   UNL     1     -22.323  -6.778  -4.732  1.00  0.00     0.149 C 
BRANCH  26  27
HETATM   27  C   UNL     1     -21.592  -5.953  -5.750  1.00  0.00    -0.046 A 
HETATM   28  C   UNL     1     -20.202  -5.918  -5.839  1.00  0.00     0.010 A 
HETATM   29  C   UNL     1     -19.515  -5.035  -6.731  1.00  0.00     0.040 A 
HETATM   30  C   UNL     1     -20.319  -4.249  -7.626  1.00  0.00     0.099 A 
HETATM   31  C   UNL     1     -21.663  -4.311  -7.586  1.00  0.00     0.101 A 
HETATM   32  C   UNL     1     -22.296  -5.140  -6.663  1.00  0.00     0.047 A 
BRANCH  30  33
HETATM   33  O   UNL     1     -19.551  -3.438  -8.529  1.00  0.00    -0.358 OA
HETATM   34  H   UNL     1     -19.985  -2.608  -8.748  1.00  0.00     0.217 HD
ENDBRANCH  30  33
BRANCH  31  35
HETATM   35  O   UNL     1     -22.508  -3.604  -8.367  1.00  0.00    -0.353 OA
HETATM   36  C   UNL     1     -22.898  -4.267  -9.554  1.00  0.00     0.210 C 
ENDBRANCH  31  35
ENDBRANCH  26  27
ENDBRANCH  24  26
ENDBRANCH  23  24
ENDBRANCH  22  23
ENDBRANCH  12  22
BRANCH  14  37
HETATM   37  O   UNL     1     -22.647 -10.865  -3.050  1.00  0.00    -0.381 OA
HETATM   38  H   UNL     1     -23.320 -11.491  -3.388  1.00  0.00     0.211 HD
ENDBRANCH  14  37
BRANCH   1  39
HETATM   39  C   UNL     1     -15.463 -11.483  -5.501  1.00  0.00    -0.056 C 
HETATM   40  C   UNL     1     -15.311 -11.944  -6.756  1.00  0.00     0.017 C 
HETATM   41  C   UNL     1     -14.119 -11.693  -4.618  1.00  0.00     0.046 C 
ENDBRANCH   1  39
BRANCH   7  42
HETATM   42  C   UNL     1     -15.887 -10.998  -1.822  1.00  0.00     0.140 C 
BRANCH  42  43
HETATM   43  C   UNL     1     -15.613 -12.217  -1.013  1.00  0.00    -0.051 A 
HETATM   44  C   UNL     1     -15.239 -13.517  -1.389  1.00  0.00     0.007 A 
HETATM   45  C   UNL     1     -15.036 -14.421  -0.390  1.00  0.00     0.001 A 
HETATM   46  C   UNL     1     -15.188 -14.042   0.952  1.00  0.00     0.000 A 
HETATM   47  C   UNL     1     -15.621 -12.765   1.310  1.00  0.00     0.001 A 
HETATM   48  C   UNL     1     -15.810 -11.855   0.311  1.00  0.00     0.007 A 
ENDBRANCH  42  43
ENDBRANCH   7  42
TORSDOF 11
ENDMDL
MODEL 8
REMARK VINA RESULT:      -8.9      2.797      7.854
REMARK  11 active torsions:
REMARK  status: ('A' for Active; 'I' for Inactive)
REMARK    1  A    between atoms: C_2  and  C_4 
REMARK    2  A    between atoms: C_10  and  C_11 
REMARK    3  A    between atoms: C_11  and  C_12 
REMARK    4  A    between atoms: C_22  and  C_23 
REMARK    5  A    between atoms: C_23  and  O_24 
REMARK    6  A    between atoms: O_24  and  C_25 
REMARK    7  A    between atoms: C_25  and  C_27 
REMARK    8  A    between atoms: C_27  and  C_28 
REMARK    9  A    between atoms: C_31  and  O_32 
REMARK   10  A    between atoms: C_33  and  O_34 
REMARK   11  A    between atoms: C_38  and  O_39 
ROOT
HETATM    1  C   UNL     1     -22.177 -12.886  -1.091  1.00  0.00     0.116 C 
HETATM    2  C   UNL     1     -23.124 -11.707  -1.457  1.00  0.00     0.053 C 
HETATM    3  C   UNL     1     -22.495 -10.400  -1.852  1.00  0.00     0.021 C 
HETATM    4  C   UNL     1     -22.270  -9.459  -0.633  1.00  0.00     0.013 C 
HETATM    5  C   UNL     1     -21.149 -10.600  -2.569  1.00  0.00     0.086 C 
HETATM    6  O   UNL     1     -20.241 -10.922  -1.458  1.00  0.00    -0.319 OA
HETATM    7  C   UNL     1     -20.043 -12.341  -1.014  1.00  0.00     0.288 C 
HETATM    8  O   UNL     1     -19.825 -13.288  -1.965  1.00  0.00    -0.323 OA
HETATM    9  C   UNL     1     -21.078 -13.038  -2.607  1.00  0.00     0.177 C 
HETATM   10  C   UNL     1     -20.867 -11.757  -3.471  1.00  0.00     0.077 C 
HETATM   11  C   UNL     1     -19.289 -11.514  -3.817  1.00  0.00    -0.011 C 
HETATM   12  C   UNL     1     -18.840 -10.980  -4.971  1.00  0.00    -0.056 C 
HETATM   13  C   UNL     1     -18.759  -9.460  -4.946  1.00  0.00     0.082 C 
HETATM   14  C   UNL     1     -20.210  -8.999  -4.851  1.00  0.00     0.128 C 
HETATM   15  C   UNL     1     -20.314  -7.489  -4.971  1.00  0.00     0.165 C 
HETATM   16  O   UNL     1     -19.816  -6.833  -5.852  1.00  0.00    -0.294 OA
HETATM   17  C   UNL     1     -21.315  -6.906  -4.006  1.00  0.00     0.055 C 
HETATM   18  C   UNL     1     -22.623  -6.721  -4.756  1.00  0.00     0.018 C 
HETATM   19  C   UNL     1     -21.224  -7.854  -3.012  1.00  0.00     0.023 C 
HETATM   20  C   UNL     1     -21.064  -9.267  -3.551  1.00  0.00     0.065 C 
HETATM   21  O   UNL     1     -21.029 -12.943  -0.334  1.00  0.00    -0.314 OA
ENDROOT
BRANCH  12  22
HETATM   22  C   UNL     1     -19.136 -11.582  -6.312  1.00  0.00     0.212 C 
BRANCH  22  23
HETATM   23  O   UNL     1     -17.981 -11.457  -7.146  1.00  0.00    -0.317 OA
BRANCH  23  24
HETATM   24  C   UNL     1     -17.052 -12.440  -7.053  1.00  0.00     0.263 C 
HETATM   25  O   UNL     1     -17.316 -13.630  -6.871  1.00  0.00    -0.265 OA
BRANCH  24  26
HETATM   26  C   UNL     1     -15.676 -11.852  -6.931  1.00  0.00     0.149 C 
BRANCH  26  27
HETATM   27  C   UNL     1     -14.978 -12.359  -5.704  1.00  0.00    -0.046 A 
HETATM   28  C   UNL     1     -13.949 -13.298  -5.751  1.00  0.00     0.010 A 
HETATM   29  C   UNL     1     -13.376 -13.864  -4.570  1.00  0.00     0.040 A 
HETATM   30  C   UNL     1     -13.826 -13.346  -3.307  1.00  0.00     0.099 A 
HETATM   31  C   UNL     1     -14.783 -12.402  -3.247  1.00  0.00     0.101 A 
HETATM   32  C   UNL     1     -15.360 -11.917  -4.419  1.00  0.00     0.047 A 
BRANCH  30  33
HETATM   33  O   UNL     1     -13.156 -13.923  -2.176  1.00  0.00    -0.358 OA
HETATM   34  H   UNL     1     -12.745 -14.769  -2.376  1.00  0.00     0.217 HD
ENDBRANCH  30  33
BRANCH  31  35
HETATM   35  O   UNL     1     -15.288 -11.861  -2.117  1.00  0.00    -0.353 OA
HETATM   36  C   UNL     1     -15.755 -10.534  -2.263  1.00  0.00     0.210 C 
ENDBRANCH  31  35
ENDBRANCH  26  27
ENDBRANCH  24  26
ENDBRANCH  23  24
ENDBRANCH  22  23
ENDBRANCH  12  22
BRANCH  14  37
HETATM   37  O   UNL     1     -20.950  -9.449  -6.024  1.00  0.00    -0.381 OA
HETATM   38  H   UNL     1     -21.873  -9.141  -5.908  1.00  0.00     0.211 HD
ENDBRANCH  14  37
BRANCH   1  39
HETATM   39  C   UNL     1     -22.599 -12.935   0.544  1.00  0.00    -0.056 C 
HETATM   40  C   UNL     1     -23.752 -12.369   0.945  1.00  0.00     0.017 C 
HETATM   41  C   UNL     1     -21.880 -13.749   1.747  1.00  0.00     0.046 C 
ENDBRANCH   1  39
BRANCH   7  42
HETATM   42  C   UNL     1     -18.986 -12.184  -0.033  1.00  0.00     0.140 C 
BRANCH  42  43
HETATM   43  C   UNL     1     -17.962 -13.068   0.589  1.00  0.00    -0.051 A 
HETATM   44  C   UNL     1     -17.956 -14.449   0.840  1.00  0.00     0.007 A 
HETATM   45  C   UNL     1     -16.836 -14.973   1.412  1.00  0.00     0.001 A 
HETATM   46  C   UNL     1     -15.743 -14.149   1.719  1.00  0.00     0.000 A 
HETATM   47  C   UNL     1     -15.786 -12.769   1.523  1.00  0.00     0.001 A 
HETATM   48  C   UNL     1     -16.901 -12.245   0.935  1.00  0.00     0.007 A 
ENDBRANCH  42  43
ENDBRANCH   7  42
TORSDOF 11
ENDMDL
MODEL 9
REMARK VINA RESULT:      -8.6      3.871      7.867
REMARK  11 active torsions:
REMARK  status: ('A' for Active; 'I' for Inactive)
REMARK    1  A    between atoms: C_2  and  C_4 
REMARK    2  A    between atoms: C_10  and  C_11 
REMARK    3  A    between atoms: C_11  and  C_12 
REMARK    4  A    between atoms: C_22  and  C_23 
REMARK    5  A    between atoms: C_23  and  O_24 
REMARK    6  A    between atoms: O_24  and  C_25 
REMARK    7  A    between atoms: C_25  and  C_27 
REMARK    8  A    between atoms: C_27  and  C_28 
REMARK    9  A    between atoms: C_31  and  O_32 
REMARK   10  A    between atoms: C_33  and  O_34 
REMARK   11  A    between atoms: C_38  and  O_39 
ROOT
HETATM    1  C   UNL     1     -20.414  -8.991  -1.060  1.00  0.00     0.116 C 
HETATM    2  C   UNL     1     -21.297  -9.288   0.185  1.00  0.00     0.053 C 
HETATM    3  C   UNL     1     -22.093 -10.564   0.192  1.00  0.00     0.021 C 
HETATM    4  C   UNL     1     -23.514 -10.379  -0.412  1.00  0.00     0.013 C 
HETATM    5  C   UNL     1     -21.381 -11.692  -0.575  1.00  0.00     0.086 C 
HETATM    6  O   UNL     1     -21.620 -11.325  -1.978  1.00  0.00    -0.319 OA
HETATM    7  C   UNL     1     -20.664 -10.431  -2.711  1.00  0.00     0.288 C 
HETATM    8  O   UNL     1     -19.334 -10.691  -2.611  1.00  0.00    -0.323 OA
HETATM    9  C   UNL     1     -19.331 -10.522  -1.192  1.00  0.00     0.177 C 
HETATM   10  C   UNL     1     -19.895 -11.851  -0.602  1.00  0.00     0.077 C 
HETATM   11  C   UNL     1     -19.728 -13.095  -1.648  1.00  0.00    -0.011 C 
HETATM   12  C   UNL     1     -19.486 -14.368  -1.277  1.00  0.00    -0.056 C 
HETATM   13  C   UNL     1     -20.750 -15.169  -0.995  1.00  0.00     0.082 C 
HETATM   14  C   UNL     1     -21.350 -14.516   0.247  1.00  0.00     0.128 C 
HETATM   15  C   UNL     1     -22.547 -15.300   0.754  1.00  0.00     0.165 C 
HETATM   16  O   UNL     1     -22.551 -16.488   0.969  1.00  0.00    -0.294 OA
HETATM   17  C   UNL     1     -23.672 -14.402   1.198  1.00  0.00     0.055 C 
HETATM   18  C   UNL     1     -23.564 -14.239   2.704  1.00  0.00     0.018 C 
HETATM   19  C   UNL     1     -23.422 -13.329   0.374  1.00  0.00     0.023 C 
HETATM   20  C   UNL     1     -21.937 -13.053   0.192  1.00  0.00     0.065 C 
HETATM   21  O   UNL     1     -20.650  -9.123  -2.410  1.00  0.00    -0.314 OA
ENDROOT
BRANCH  12  22
HETATM   22  C   UNL     1     -18.286 -14.765  -0.470  1.00  0.00     0.212 C 
BRANCH  22  23
HETATM   23  O   UNL     1     -17.955 -13.703   0.429  1.00  0.00    -0.317 OA
BRANCH  23  24
HETATM   24  C   UNL     1     -16.637 -13.497   0.672  1.00  0.00     0.263 C 
HETATM   25  O   UNL     1     -15.933 -14.242   1.356  1.00  0.00    -0.265 OA
BRANCH  24  26
HETATM   26  C   UNL     1     -16.232 -12.121   0.230  1.00  0.00     0.149 C 
BRANCH  26  27
HETATM   27  C   UNL     1     -15.751 -12.128  -1.191  1.00  0.00    -0.046 A 
HETATM   28  C   UNL     1     -15.045 -13.192  -1.747  1.00  0.00     0.010 A 
HETATM   29  C   UNL     1     -14.487 -13.135  -3.063  1.00  0.00     0.040 A 
HETATM   30  C   UNL     1     -14.776 -11.968  -3.850  1.00  0.00     0.099 A 
HETATM   31  C   UNL     1     -15.501 -10.953  -3.344  1.00  0.00     0.101 A 
HETATM   32  C   UNL     1     -15.978 -11.020  -2.037  1.00  0.00     0.047 A 
BRANCH  30  33
HETATM   33  O   UNL     1     -14.232 -12.019  -5.178  1.00  0.00    -0.358 OA
HETATM   34  H   UNL     1     -14.059 -12.916  -5.477  1.00  0.00     0.217 HD
ENDBRANCH  30  33
BRANCH  31  35
HETATM   35  O   UNL     1     -15.814  -9.809  -3.990  1.00  0.00    -0.353 OA
HETATM   36  C   UNL     1     -16.918  -9.917  -4.867  1.00  0.00     0.210 C 
ENDBRANCH  31  35
ENDBRANCH  26  27
ENDBRANCH  24  26
ENDBRANCH  23  24
ENDBRANCH  22  23
ENDBRANCH  12  22
BRANCH  14  37
HETATM   37  O   UNL     1     -20.418 -14.629   1.363  1.00  0.00    -0.381 OA
HETATM   38  H   UNL     1     -20.860 -14.225   2.138  1.00  0.00     0.211 HD
ENDBRANCH  14  37
BRANCH   1  39
HETATM   39  C   UNL     1     -21.317  -7.667  -1.592  1.00  0.00    -0.056 C 
HETATM   40  C   UNL     1     -21.138  -7.206  -2.843  1.00  0.00     0.017 C 
HETATM   41  C   UNL     1     -22.557  -6.929  -0.853  1.00  0.00     0.046 C 
ENDBRANCH   1  39
BRANCH   7  42
HETATM   42  C   UNL     1     -21.212 -10.474  -4.053  1.00  0.00     0.140 C 
BRANCH  42  43
HETATM   43  C   UNL     1     -21.366 -11.506  -5.116  1.00  0.00    -0.051 A 
HETATM   44  C   UNL     1     -22.368 -12.462  -5.343  1.00  0.00     0.007 A 
HETATM   45  C   UNL     1     -22.230 -13.261  -6.438  1.00  0.00     0.001 A 
HETATM   46  C   UNL     1     -21.129 -13.108  -7.294  1.00  0.00     0.000 A 
HETATM   47  C   UNL     1     -20.108 -12.198  -7.023  1.00  0.00     0.001 A 
HETATM   48  C   UNL     1     -20.253 -11.386  -5.935  1.00  0.00     0.007 A 
ENDBRANCH  42  43
ENDBRANCH   7  42
TORSDOF 11
ENDMDL
