REMARK  11 active torsions:
REMARK  status: ('A' for Active; 'I' for Inactive)
REMARK    1  A    between atoms: C_2  and  C_4 
REMARK    2  A    between atoms: C_10  and  C_11 
REMARK    3  A    between atoms: C_11  and  C_12 
REMARK    4  A    between atoms: C_22  and  C_23 
REMARK    5  A    between atoms: C_23  and  O_24 
REMARK    6  A    between atoms: O_24  and  C_25 
REMARK    7  A    between atoms: C_25  and  C_27 
REMARK    8  A    between atoms: C_27  and  C_28 
REMARK    9  A    between atoms: C_31  and  O_32 
REMARK   10  A    between atoms: C_33  and  O_34 
REMARK   11  A    between atoms: C_38  and  O_39 
ROOT
HETATM    1  C   UNL     1       5.590  -6.355   2.580  1.00  0.00     0.116 C 
HETATM    2  C   UNL     1       6.194  -5.108   3.286  1.00  0.00     0.053 C 
HETATM    3  C   UNL     1       5.888  -4.911   4.745  1.00  0.00     0.021 C 
HETATM    4  C   UNL     1       4.607  -4.058   4.971  1.00  0.00     0.013 C 
HETATM    5  C   UNL     1       5.720  -6.249   5.485  1.00  0.00     0.086 C 
HETATM    6  O   UNL     1       4.379  -6.680   5.064  1.00  0.00    -0.319 OA
HETATM    7  C   UNL     1       4.192  -7.513   3.831  1.00  0.00     0.288 C 
HETATM    8  O   UNL     1       5.007  -8.586   3.649  1.00  0.00    -0.323 OA
HETATM    9  C   UNL     1       6.189  -7.782   3.646  1.00  0.00     0.177 C 
HETATM   10  C   UNL     1       6.501  -7.476   5.143  1.00  0.00     0.077 C 
HETATM   11  C   UNL     1       5.818  -8.576   6.140  1.00  0.00    -0.011 C 
HETATM   12  C   UNL     1       6.370  -8.995   7.296  1.00  0.00    -0.056 C 
HETATM   13  C   UNL     1       6.005  -8.128   8.493  1.00  0.00     0.082 C 
HETATM   14  C   UNL     1       6.675  -6.786   8.215  1.00  0.00     0.128 C 
HETATM   15  C   UNL     1       6.533  -5.847   9.399  1.00  0.00     0.165 C 
HETATM   16  O   UNL     1       6.816  -6.128  10.538  1.00  0.00    -0.294 OA
HETATM   17  C   UNL     1       6.230  -4.433   8.975  1.00  0.00     0.055 C 
HETATM   18  C   UNL     1       7.542  -3.668   8.952  1.00  0.00     0.018 C 
HETATM   19  C   UNL     1       5.575  -4.704   7.795  1.00  0.00     0.023 C 
HETATM   20  C   UNL     1       6.188  -5.866   7.029  1.00  0.00     0.065 C 
HETATM   21  O   UNL     1       4.339  -6.927   2.633  1.00  0.00    -0.314 OA
ENDROOT
BRANCH  12  22
HETATM   22  C   UNL     1       7.723  -9.639   7.363  1.00  0.00     0.212 C 
BRANCH  22  23
HETATM   23  O   UNL     1       7.645 -10.950   6.798  1.00  0.00    -0.317 OA
BRANCH  23  24
HETATM   24  C   UNL     1       7.401 -11.971   7.656  1.00  0.00     0.263 C 
HETATM   25  O   UNL     1       7.396 -11.860   8.884  1.00  0.00    -0.265 OA
BRANCH  24  26
HETATM   26  C   UNL     1       7.411 -13.283   6.927  1.00  0.00     0.149 C 
BRANCH  26  27
HETATM   27  C   UNL     1       6.038 -13.643   6.441  1.00  0.00    -0.046 A 
HETATM   28  C   UNL     1       5.354 -14.777   6.873  1.00  0.00     0.010 A 
HETATM   29  C   UNL     1       4.100 -15.174   6.312  1.00  0.00     0.040 A 
HETATM   30  C   UNL     1       3.503 -14.292   5.347  1.00  0.00     0.099 A 
HETATM   31  C   UNL     1       4.128 -13.166   4.957  1.00  0.00     0.101 A 
HETATM   32  C   UNL     1       5.377 -12.843   5.484  1.00  0.00     0.047 A 
BRANCH  30  33
HETATM   33  O   UNL     1       2.218 -14.733   4.881  1.00  0.00    -0.358 OA
HETATM   34  H   UNL     1       1.941 -15.564   5.278  1.00  0.00     0.217 HD
ENDBRANCH  30  33
BRANCH  31  35
HETATM   35  O   UNL     1       3.665 -12.281   4.048  1.00  0.00    -0.353 OA
HETATM   36  C   UNL     1       2.262 -12.104   4.068  1.00  0.00     0.210 C 
ENDBRANCH  31  35
ENDBRANCH  26  27
ENDBRANCH  24  26
ENDBRANCH  23  24
ENDBRANCH  22  23
ENDBRANCH  12  22
BRANCH  14  37
HETATM   37  O   UNL     1       8.120  -6.962   8.138  1.00  0.00    -0.381 OA
HETATM   38  H   UNL     1       8.411  -7.275   9.020  1.00  0.00     0.211 HD
ENDBRANCH  14  37
BRANCH   1  39
HETATM   39  C   UNL     1       4.546  -5.487   1.576  1.00  0.00    -0.056 C 
HETATM   40  C   UNL     1       5.057  -4.742   0.579  1.00  0.00     0.017 C 
HETATM   41  C   UNL     1       2.927  -5.547   1.510  1.00  0.00     0.046 C 
ENDBRANCH   1  39
BRANCH   7  42
HETATM   42  C   UNL     1       2.774  -7.809   3.903  1.00  0.00     0.140 C 
BRANCH  42  43
HETATM   43  C   UNL     1       1.810  -8.633   3.123  1.00  0.00    -0.051 A 
HETATM   44  C   UNL     1       1.918  -9.246   1.865  1.00  0.00     0.007 A 
HETATM   45  C   UNL     1       0.847  -9.967   1.429  1.00  0.00     0.001 A 
HETATM   46  C   UNL     1      -0.301 -10.086   2.227  1.00  0.00     0.000 A 
HETATM   47  C   UNL     1      -0.420  -9.420   3.446  1.00  0.00     0.001 A 
HETATM   48  C   UNL     1       0.658  -8.711   3.891  1.00  0.00     0.007 A 
ENDBRANCH  42  43
ENDBRANCH   7  42
TORSDOF 11
