MODEL 1
REMARK VINA RESULT:      -7.8      0.000      0.000
REMARK  22 active torsions:
REMARK  status: ('A' for Active; 'I' for Inactive)
REMARK    1  A    between atoms: C_2  and  C_3 
REMARK    2  A    between atoms: C_3  and  C_4 
REMARK    3  A    between atoms: C_4  and  C_5 
REMARK    4  A    between atoms: C_5  and  C_6 
REMARK    5  A    between atoms: C_6  and  C_7 
REMARK    6  A    between atoms: C_7  and  C_8 
REMARK    7  A    between atoms: C_7  and  C_31 
REMARK    8  A    between atoms: C_8  and  C_9 
REMARK    9  A    between atoms: C_10  and  C_11 
REMARK   10  A    between atoms: C_11  and  C_12 
REMARK   11  A    between atoms: C_12  and  C_13 
REMARK   12  A    between atoms: C_13  and  C_14 
REMARK   13  A    between atoms: C_14  and  C_15 
REMARK   14  A    between atoms: C_15  and  C_16 
REMARK   15  A    between atoms: C_16  and  C_17 
REMARK   16  A    between atoms: C_17  and  C_18 
REMARK       I    between atoms: C_18  and  N_20 
REMARK   17  A    between atoms: N_20  and  C_21 
REMARK   18  A    between atoms: C_21  and  C_22 
REMARK   19  A    between atoms: C_25  and  O_26 
REMARK   20  A    between atoms: C_27  and  O_28 
REMARK   21  A    between atoms: C_31  and  C_33 
REMARK   22  A    between atoms: C_33  and  C_34 
ROOT
HETATM    1  C   UNL     1     -21.349  -7.921  -0.467  1.00  0.00     0.004 C 
ENDROOT
BRANCH   1   2
HETATM    2  C   UNL     1     -21.623  -8.405   0.955  1.00  0.00     0.027 C 
BRANCH   2   3
HETATM    3  C   UNL     1     -20.953  -9.702   1.272  1.00  0.00    -0.031 C 
HETATM    4  C   UNL     1     -20.221 -10.357   0.363  1.00  0.00    -0.030 C 
BRANCH   4   5
HETATM    5  C   UNL     1     -19.748 -11.770   0.534  1.00  0.00     0.039 C 
BRANCH   5   6
HETATM    6  C   UNL     1     -20.555 -12.747  -0.347  1.00  0.00     0.059 C 
BRANCH   6   7
HETATM    7  C   UNL     1     -21.498 -13.669   0.467  1.00  0.00     0.012 C 
BRANCH   7   8
HETATM    8  C   UNL     1     -22.836 -13.016   0.790  1.00  0.00     0.001 C 
BRANCH   8   9
HETATM    9  C   UNL     1     -23.658 -12.719  -0.460  1.00  0.00     0.000 C 
BRANCH   9  10
HETATM   10  C   UNL     1     -23.928 -11.217  -0.534  1.00  0.00    -0.000 C 
BRANCH  10  11
HETATM   11  C   UNL     1     -23.190 -10.558  -1.693  1.00  0.00    -0.005 C 
HETATM   12  C   UNL     1     -22.851 -11.585  -2.760  1.00  0.00     0.005 C 
ENDBRANCH  10  11
ENDBRANCH   9  10
ENDBRANCH   8   9
ENDBRANCH   7   8
ENDBRANCH   6   7
BRANCH   6  13
HETATM   13  C   UNL     1     -19.624 -13.608  -1.218  1.00  0.00     0.135 C 
HETATM   14  O   UNL     1     -19.133 -14.663  -0.801  1.00  0.00    -0.297 OA
BRANCH  13  15
HETATM   15  C   UNL     1     -19.370 -13.173  -2.649  1.00  0.00     0.117 C 
BRANCH  15  16
HETATM   16  C   UNL     1     -18.555 -11.911  -2.750  1.00  0.00    -0.051 A 
HETATM   17  C   UNL     1     -19.111 -10.741  -3.283  1.00  0.00     0.007 A 
HETATM   18  C   UNL     1     -18.371  -9.558  -3.312  1.00  0.00     0.001 A 
HETATM   19  C   UNL     1     -17.071  -9.533  -2.809  1.00  0.00     0.000 A 
HETATM   20  C   UNL     1     -16.504 -10.696  -2.289  1.00  0.00     0.001 A 
HETATM   21  C   UNL     1     -17.241 -11.880  -2.262  1.00  0.00     0.007 A 
ENDBRANCH  15  16
ENDBRANCH  13  15
ENDBRANCH   6  13
ENDBRANCH   5   6
ENDBRANCH   4   5
ENDBRANCH   2   3
ENDBRANCH   1   2
BRANCH   1  22
HETATM   22  C   UNL     1     -22.315  -6.806  -0.885  1.00  0.00     0.000 C 
BRANCH  22  23
HETATM   23  C   UNL     1     -22.069  -6.345  -2.319  1.00  0.00     0.000 C 
BRANCH  23  24
HETATM   24  C   UNL     1     -21.001  -7.173  -3.027  1.00  0.00     0.000 C 
BRANCH  24  25
HETATM   25  C   UNL     1     -21.615  -7.812  -4.267  1.00  0.00     0.009 C 
BRANCH  25  26
HETATM   26  C   UNL     1     -22.279  -6.798  -5.190  1.00  0.00     0.103 C 
BRANCH  26  27
HETATM   27  C   UNL     1     -21.240  -6.174  -6.098  1.00  0.00     0.217 C 
HETATM   28  O   UNL     1     -20.273  -6.788  -6.538  1.00  0.00    -0.274 OA
HETATM   29  N   UNL     1     -21.495  -4.861  -6.407  1.00  0.00    -0.357 N 
HETATM   30  H   UNL     1     -22.230  -4.368  -5.919  1.00  0.00     0.162 HD
BRANCH  29  31
HETATM   31  C   UNL     1     -20.582  -4.111  -7.236  1.00  0.00     0.161 C 
BRANCH  31  32
HETATM   32  C   UNL     1     -21.007  -4.124  -8.681  1.00  0.00    -0.038 A 
HETATM   33  C   UNL     1     -20.089  -4.370  -9.710  1.00  0.00     0.012 A 
HETATM   34  C   UNL     1     -20.507  -4.388 -11.044  1.00  0.00     0.040 A 
HETATM   35  C   UNL     1     -21.846  -4.149 -11.350  1.00  0.00     0.099 A 
HETATM   36  C   UNL     1     -22.775  -3.878 -10.338  1.00  0.00     0.101 A 
HETATM   37  C   UNL     1     -22.343  -3.866  -9.010  1.00  0.00     0.048 A 
BRANCH  35  38
HETATM   38  O   UNL     1     -22.263  -4.176 -12.655  1.00  0.00    -0.358 OA
HETATM   39  H   UNL     1     -21.586  -3.756 -13.209  1.00  0.00     0.217 HD
ENDBRANCH  35  38
BRANCH  36  40
HETATM   40  O   UNL     1     -24.069  -3.646 -10.722  1.00  0.00    -0.353 OA
HETATM   41  C   UNL     1     -24.967  -3.268  -9.690  1.00  0.00     0.210 C 
ENDBRANCH  36  40
ENDBRANCH  31  32
ENDBRANCH  29  31
ENDBRANCH  26  27
ENDBRANCH  25  26
ENDBRANCH  24  25
ENDBRANCH  23  24
ENDBRANCH  22  23
ENDBRANCH   1  22
TORSDOF 22
ENDMDL
MODEL 2
REMARK VINA RESULT:      -7.6      1.311      2.390
REMARK  22 active torsions:
REMARK  status: ('A' for Active; 'I' for Inactive)
REMARK    1  A    between atoms: C_2  and  C_3 
REMARK    2  A    between atoms: C_3  and  C_4 
REMARK    3  A    between atoms: C_4  and  C_5 
REMARK    4  A    between atoms: C_5  and  C_6 
REMARK    5  A    between atoms: C_6  and  C_7 
REMARK    6  A    between atoms: C_7  and  C_8 
REMARK    7  A    between atoms: C_7  and  C_31 
REMARK    8  A    between atoms: C_8  and  C_9 
REMARK    9  A    between atoms: C_10  and  C_11 
REMARK   10  A    between atoms: C_11  and  C_12 
REMARK   11  A    between atoms: C_12  and  C_13 
REMARK   12  A    between atoms: C_13  and  C_14 
REMARK   13  A    between atoms: C_14  and  C_15 
REMARK   14  A    between atoms: C_15  and  C_16 
REMARK   15  A    between atoms: C_16  and  C_17 
REMARK   16  A    between atoms: C_17  and  C_18 
REMARK       I    between atoms: C_18  and  N_20 
REMARK   17  A    between atoms: N_20  and  C_21 
REMARK   18  A    between atoms: C_21  and  C_22 
REMARK   19  A    between atoms: C_25  and  O_26 
REMARK   20  A    between atoms: C_27  and  O_28 
REMARK   21  A    between atoms: C_31  and  C_33 
REMARK   22  A    between atoms: C_33  and  C_34 
ROOT
HETATM    1  C   UNL     1     -21.532  -8.246  -0.777  1.00  0.00     0.004 C 
ENDROOT
BRANCH   1   2
HETATM    2  C   UNL     1     -22.248  -9.254   0.117  1.00  0.00     0.027 C 
BRANCH   2   3
HETATM    3  C   UNL     1     -21.402 -10.439   0.460  1.00  0.00    -0.031 C 
HETATM    4  C   UNL     1     -20.303 -10.744  -0.239  1.00  0.00    -0.030 C 
BRANCH   4   5
HETATM    5  C   UNL     1     -19.571 -12.047  -0.113  1.00  0.00     0.039 C 
BRANCH   5   6
HETATM    6  C   UNL     1     -18.485 -12.193  -1.200  1.00  0.00     0.059 C 
BRANCH   6   7
HETATM    7  C   UNL     1     -18.845 -13.238  -2.287  1.00  0.00     0.012 C 
BRANCH   7   8
HETATM    8  C   UNL     1     -18.862 -12.653  -3.694  1.00  0.00     0.001 C 
BRANCH   8   9
HETATM    9  C   UNL     1     -19.420 -11.234  -3.730  1.00  0.00     0.000 C 
BRANCH   9  10
HETATM   10  C   UNL     1     -20.722 -11.230  -4.529  1.00  0.00    -0.000 C 
BRANCH  10  11
HETATM   11  C   UNL     1     -21.860 -11.909  -3.775  1.00  0.00    -0.005 C 
HETATM   12  C   UNL     1     -22.772 -10.872  -3.143  1.00  0.00     0.005 C 
ENDBRANCH  10  11
ENDBRANCH   9  10
ENDBRANCH   8   9
ENDBRANCH   7   8
ENDBRANCH   6   7
BRANCH   6  13
HETATM   13  C   UNL     1     -17.122 -12.547  -0.581  1.00  0.00     0.135 C 
HETATM   14  O   UNL     1     -16.934 -13.617   0.009  1.00  0.00    -0.297 OA
BRANCH  13  15
HETATM   15  C   UNL     1     -15.970 -11.578  -0.773  1.00  0.00     0.117 C 
BRANCH  15  16
HETATM   16  C   UNL     1     -15.764 -11.181  -2.210  1.00  0.00    -0.051 A 
HETATM   17  C   UNL     1     -15.244 -12.094  -3.137  1.00  0.00     0.007 A 
HETATM   18  C   UNL     1     -15.117 -11.740  -4.480  1.00  0.00     0.001 A 
HETATM   19  C   UNL     1     -15.507 -10.473  -4.910  1.00  0.00     0.000 A 
HETATM   20  C   UNL     1     -16.013  -9.552  -3.994  1.00  0.00     0.001 A 
HETATM   21  C   UNL     1     -16.137  -9.903  -2.650  1.00  0.00     0.007 A 
ENDBRANCH  15  16
ENDBRANCH  13  15
ENDBRANCH   6  13
ENDBRANCH   5   6
ENDBRANCH   4   5
ENDBRANCH   2   3
ENDBRANCH   1   2
BRANCH   1  22
HETATM   22  C   UNL     1     -22.329  -6.945  -0.922  1.00  0.00     0.000 C 
BRANCH  22  23
HETATM   23  C   UNL     1     -22.021  -6.228  -2.232  1.00  0.00     0.000 C 
BRANCH  23  24
HETATM   24  C   UNL     1     -21.103  -7.037  -3.144  1.00  0.00     0.000 C 
BRANCH  24  25
HETATM   25  C   UNL     1     -21.889  -7.471  -4.376  1.00  0.00     0.009 C 
BRANCH  25  26
HETATM   26  C   UNL     1     -22.286  -6.302  -5.268  1.00  0.00     0.103 C 
BRANCH  26  27
HETATM   27  C   UNL     1     -21.199  -6.046  -6.290  1.00  0.00     0.217 C 
HETATM   28  O   UNL     1     -20.311  -6.853  -6.547  1.00  0.00    -0.274 OA
HETATM   29  N   UNL     1     -21.313  -4.834  -6.925  1.00  0.00    -0.357 N 
HETATM   30  H   UNL     1     -21.982  -4.156  -6.588  1.00  0.00     0.162 HD
BRANCH  29  31
HETATM   31  C   UNL     1     -20.336  -4.423  -7.905  1.00  0.00     0.161 C 
BRANCH  31  32
HETATM   32  C   UNL     1     -20.964  -4.203  -9.256  1.00  0.00    -0.038 A 
HETATM   33  C   UNL     1     -20.260  -4.460 -10.440  1.00  0.00     0.012 A 
HETATM   34  C   UNL     1     -20.866  -4.260 -11.683  1.00  0.00     0.040 A 
HETATM   35  C   UNL     1     -22.177  -3.790 -11.743  1.00  0.00     0.099 A 
HETATM   36  C   UNL     1     -22.890  -3.504 -10.572  1.00  0.00     0.101 A 
HETATM   37  C   UNL     1     -22.272  -3.712  -9.338  1.00  0.00     0.048 A 
BRANCH  35  38
HETATM   38  O   UNL     1     -22.779  -3.601 -12.960  1.00  0.00    -0.358 OA
HETATM   39  H   UNL     1     -23.658  -4.011 -12.942  1.00  0.00     0.217 HD
ENDBRANCH  35  38
BRANCH  36  40
HETATM   40  O   UNL     1     -24.170  -3.038 -10.717  1.00  0.00    -0.353 OA
HETATM   41  C   UNL     1     -25.060  -3.320  -9.649  1.00  0.00     0.210 C 
ENDBRANCH  36  40
ENDBRANCH  31  32
ENDBRANCH  29  31
ENDBRANCH  26  27
ENDBRANCH  25  26
ENDBRANCH  24  25
ENDBRANCH  23  24
ENDBRANCH  22  23
ENDBRANCH   1  22
TORSDOF 22
ENDMDL
MODEL 3
REMARK VINA RESULT:      -7.5      1.305      2.043
REMARK  22 active torsions:
REMARK  status: ('A' for Active; 'I' for Inactive)
REMARK    1  A    between atoms: C_2  and  C_3 
REMARK    2  A    between atoms: C_3  and  C_4 
REMARK    3  A    between atoms: C_4  and  C_5 
REMARK    4  A    between atoms: C_5  and  C_6 
REMARK    5  A    between atoms: C_6  and  C_7 
REMARK    6  A    between atoms: C_7  and  C_8 
REMARK    7  A    between atoms: C_7  and  C_31 
REMARK    8  A    between atoms: C_8  and  C_9 
REMARK    9  A    between atoms: C_10  and  C_11 
REMARK   10  A    between atoms: C_11  and  C_12 
REMARK   11  A    between atoms: C_12  and  C_13 
REMARK   12  A    between atoms: C_13  and  C_14 
REMARK   13  A    between atoms: C_14  and  C_15 
REMARK   14  A    between atoms: C_15  and  C_16 
REMARK   15  A    between atoms: C_16  and  C_17 
REMARK   16  A    between atoms: C_17  and  C_18 
REMARK       I    between atoms: C_18  and  N_20 
REMARK   17  A    between atoms: N_20  and  C_21 
REMARK   18  A    between atoms: C_21  and  C_22 
REMARK   19  A    between atoms: C_25  and  O_26 
REMARK   20  A    between atoms: C_27  and  O_28 
REMARK   21  A    between atoms: C_31  and  C_33 
REMARK   22  A    between atoms: C_33  and  C_34 
ROOT
HETATM    1  C   UNL     1     -22.821  -7.476  -0.181  1.00  0.00     0.004 C 
ENDROOT
BRANCH   1   2
HETATM    2  C   UNL     1     -21.910  -8.176   0.824  1.00  0.00     0.027 C 
BRANCH   2   3
HETATM    3  C   UNL     1     -21.462  -9.527   0.366  1.00  0.00    -0.031 C 
HETATM    4  C   UNL     1     -20.726  -9.687  -0.739  1.00  0.00    -0.030 C 
BRANCH   4   5
HETATM    5  C   UNL     1     -20.471 -11.017  -1.385  1.00  0.00     0.039 C 
BRANCH   5   6
HETATM    6  C   UNL     1     -20.866 -11.006  -2.878  1.00  0.00     0.059 C 
BRANCH   6   7
HETATM    7  C   UNL     1     -22.366 -11.317  -3.115  1.00  0.00     0.012 C 
BRANCH   7   8
HETATM    8  C   UNL     1     -22.960 -12.232  -2.051  1.00  0.00     0.001 C 
BRANCH   8   9
HETATM    9  C   UNL     1     -24.044 -11.542  -1.227  1.00  0.00     0.000 C 
BRANCH   9  10
HETATM   10  C   UNL     1     -23.897 -11.956   0.236  1.00  0.00    -0.000 C 
BRANCH  10  11
HETATM   11  C   UNL     1     -23.050 -13.213   0.395  1.00  0.00    -0.005 C 
HETATM   12  C   UNL     1     -22.927 -13.590   1.862  1.00  0.00     0.005 C 
ENDBRANCH  10  11
ENDBRANCH   9  10
ENDBRANCH   8   9
ENDBRANCH   7   8
ENDBRANCH   6   7
BRANCH   6  13
HETATM   13  C   UNL     1     -20.004 -11.988  -3.689  1.00  0.00     0.135 C 
HETATM   14  O   UNL     1     -19.791 -13.141  -3.299  1.00  0.00    -0.297 OA
BRANCH  13  15
HETATM   15  C   UNL     1     -19.469 -11.535  -5.034  1.00  0.00     0.117 C 
BRANCH  15  16
HETATM   16  C   UNL     1     -18.130 -10.855  -4.941  1.00  0.00    -0.051 A 
HETATM   17  C   UNL     1     -17.709 -10.265  -3.742  1.00  0.00     0.007 A 
HETATM   18  C   UNL     1     -16.440  -9.694  -3.644  1.00  0.00     0.001 A 
HETATM   19  C   UNL     1     -15.580  -9.707  -4.741  1.00  0.00     0.000 A 
HETATM   20  C   UNL     1     -15.994 -10.279  -5.942  1.00  0.00     0.001 A 
HETATM   21  C   UNL     1     -17.263 -10.848  -6.043  1.00  0.00     0.007 A 
ENDBRANCH  15  16
ENDBRANCH  13  15
ENDBRANCH   6  13
ENDBRANCH   5   6
ENDBRANCH   4   5
ENDBRANCH   2   3
ENDBRANCH   1   2
BRANCH   1  22
HETATM   22  C   UNL     1     -22.088  -6.361  -0.935  1.00  0.00     0.000 C 
BRANCH  22  23
HETATM   23  C   UNL     1     -22.251  -6.490  -2.447  1.00  0.00     0.000 C 
BRANCH  23  24
HETATM   24  C   UNL     1     -21.099  -7.248  -3.100  1.00  0.00     0.000 C 
BRANCH  24  25
HETATM   25  C   UNL     1     -21.587  -7.854  -4.410  1.00  0.00     0.009 C 
BRANCH  25  26
HETATM   26  C   UNL     1     -22.213  -6.825  -5.343  1.00  0.00     0.103 C 
BRANCH  26  27
HETATM   27  C   UNL     1     -21.138  -6.191  -6.200  1.00  0.00     0.217 C 
HETATM   28  O   UNL     1     -20.146  -6.796  -6.596  1.00  0.00    -0.274 OA
HETATM   29  N   UNL     1     -21.389  -4.879  -6.519  1.00  0.00    -0.357 N 
HETATM   30  H   UNL     1     -22.149  -4.393  -6.065  1.00  0.00     0.162 HD
BRANCH  29  31
HETATM   31  C   UNL     1     -20.444  -4.120  -7.303  1.00  0.00     0.161 C 
BRANCH  31  32
HETATM   32  C   UNL     1     -20.851  -4.056  -8.752  1.00  0.00    -0.038 A 
HETATM   33  C   UNL     1     -19.940  -4.333  -9.780  1.00  0.00     0.012 A 
HETATM   34  C   UNL     1     -20.342  -4.278 -11.117  1.00  0.00     0.040 A 
HETATM   35  C   UNL     1     -21.657  -3.935 -11.428  1.00  0.00     0.099 A 
HETATM   36  C   UNL     1     -22.577  -3.632 -10.417  1.00  0.00     0.101 A 
HETATM   37  C   UNL     1     -22.161  -3.693  -9.086  1.00  0.00     0.048 A 
BRANCH  35  38
HETATM   38  O   UNL     1     -22.059  -3.890 -12.738  1.00  0.00    -0.358 OA
HETATM   39  H   UNL     1     -22.424  -4.754 -12.984  1.00  0.00     0.217 HD
ENDBRANCH  35  38
BRANCH  36  40
HETATM   40  O   UNL     1     -23.847  -3.296 -10.806  1.00  0.00    -0.353 OA
HETATM   41  C   UNL     1     -24.839  -3.336  -9.793  1.00  0.00     0.210 C 
ENDBRANCH  36  40
ENDBRANCH  31  32
ENDBRANCH  29  31
ENDBRANCH  26  27
ENDBRANCH  25  26
ENDBRANCH  24  25
ENDBRANCH  23  24
ENDBRANCH  22  23
ENDBRANCH   1  22
TORSDOF 22
ENDMDL
MODEL 4
REMARK VINA RESULT:      -7.4      0.970      3.890
REMARK  22 active torsions:
REMARK  status: ('A' for Active; 'I' for Inactive)
REMARK    1  A    between atoms: C_2  and  C_3 
REMARK    2  A    between atoms: C_3  and  C_4 
REMARK    3  A    between atoms: C_4  and  C_5 
REMARK    4  A    between atoms: C_5  and  C_6 
REMARK    5  A    between atoms: C_6  and  C_7 
REMARK    6  A    between atoms: C_7  and  C_8 
REMARK    7  A    between atoms: C_7  and  C_31 
REMARK    8  A    between atoms: C_8  and  C_9 
REMARK    9  A    between atoms: C_10  and  C_11 
REMARK   10  A    between atoms: C_11  and  C_12 
REMARK   11  A    between atoms: C_12  and  C_13 
REMARK   12  A    between atoms: C_13  and  C_14 
REMARK   13  A    between atoms: C_14  and  C_15 
REMARK   14  A    between atoms: C_15  and  C_16 
REMARK   15  A    between atoms: C_16  and  C_17 
REMARK   16  A    between atoms: C_17  and  C_18 
REMARK       I    between atoms: C_18  and  N_20 
REMARK   17  A    between atoms: N_20  and  C_21 
REMARK   18  A    between atoms: C_21  and  C_22 
REMARK   19  A    between atoms: C_25  and  O_26 
REMARK   20  A    between atoms: C_27  and  O_28 
REMARK   21  A    between atoms: C_31  and  C_33 
REMARK   22  A    between atoms: C_33  and  C_34 
ROOT
HETATM    1  C   UNL     1     -21.154  -8.538  -0.515  1.00  0.00     0.004 C 
ENDROOT
BRANCH   1   2
HETATM    2  C   UNL     1     -21.051  -9.388   0.750  1.00  0.00     0.027 C 
BRANCH   2   3
HETATM    3  C   UNL     1     -20.473 -10.743   0.499  1.00  0.00    -0.031 C 
HETATM    4  C   UNL     1     -19.636 -10.975  -0.518  1.00  0.00    -0.030 C 
BRANCH   4   5
HETATM    5  C   UNL     1     -19.236 -12.347  -0.973  1.00  0.00     0.039 C 
BRANCH   5   6
HETATM    6  C   UNL     1     -19.438 -12.521  -2.493  1.00  0.00     0.059 C 
BRANCH   6   7
HETATM    7  C   UNL     1     -19.768 -11.193  -3.221  1.00  0.00     0.012 C 
BRANCH   7   8
HETATM    8  C   UNL     1     -18.684 -10.766  -4.204  1.00  0.00     0.001 C 
BRANCH   8   9
HETATM    9  C   UNL     1     -17.676 -11.877  -4.481  1.00  0.00     0.000 C 
BRANCH   9  10
HETATM   10  C   UNL     1     -16.264 -11.332  -4.278  1.00  0.00    -0.000 C 
BRANCH  10  11
HETATM   11  C   UNL     1     -16.014 -10.911  -2.835  1.00  0.00    -0.005 C 
HETATM   12  C   UNL     1     -15.890  -9.400  -2.735  1.00  0.00     0.005 C 
ENDBRANCH  10  11
ENDBRANCH   9  10
ENDBRANCH   8   9
ENDBRANCH   7   8
ENDBRANCH   6   7
BRANCH   6  13
HETATM   13  C   UNL     1     -20.534 -13.557  -2.794  1.00  0.00     0.135 C 
HETATM   14  O   UNL     1     -20.321 -14.772  -2.713  1.00  0.00    -0.297 OA
BRANCH  13  15
HETATM   15  C   UNL     1     -21.926 -13.056  -3.128  1.00  0.00     0.117 C 
BRANCH  15  16
HETATM   16  C   UNL     1     -22.697 -12.599  -1.918  1.00  0.00    -0.051 A 
HETATM   17  C   UNL     1     -22.763 -13.397  -0.769  1.00  0.00     0.007 A 
HETATM   18  C   UNL     1     -23.424 -12.939   0.371  1.00  0.00     0.001 A 
HETATM   19  C   UNL     1     -24.024 -11.681   0.374  1.00  0.00     0.000 A 
HETATM   20  C   UNL     1     -23.976 -10.885  -0.769  1.00  0.00     0.001 A 
HETATM   21  C   UNL     1     -23.319 -11.342  -1.910  1.00  0.00     0.007 A 
ENDBRANCH  15  16
ENDBRANCH  13  15
ENDBRANCH   6  13
ENDBRANCH   5   6
ENDBRANCH   4   5
ENDBRANCH   2   3
ENDBRANCH   1   2
BRANCH   1  22
HETATM   22  C   UNL     1     -22.238  -7.461  -0.390  1.00  0.00     0.000 C 
BRANCH  22  23
HETATM   23  C   UNL     1     -22.299  -6.566  -1.624  1.00  0.00     0.000 C 
BRANCH  23  24
HETATM   24  C   UNL     1     -21.565  -7.164  -2.821  1.00  0.00     0.000 C 
BRANCH  24  25
HETATM   25  C   UNL     1     -21.929  -6.370  -4.070  1.00  0.00     0.009 C 
BRANCH  25  26
HETATM   26  C   UNL     1     -21.659  -7.135  -5.359  1.00  0.00     0.103 C 
BRANCH  26  27
HETATM   27  C   UNL     1     -20.747  -6.323  -6.254  1.00  0.00     0.217 C 
HETATM   28  O   UNL     1     -19.708  -6.764  -6.738  1.00  0.00    -0.274 OA
HETATM   29  N   UNL     1     -21.204  -5.051  -6.499  1.00  0.00    -0.357 N 
HETATM   30  H   UNL     1     -21.993  -4.696  -5.977  1.00  0.00     0.162 HD
BRANCH  29  31
HETATM   31  C   UNL     1     -20.434  -4.137  -7.308  1.00  0.00     0.161 C 
BRANCH  31  32
HETATM   32  C   UNL     1     -20.911  -4.123  -8.736  1.00  0.00    -0.038 A 
HETATM   33  C   UNL     1     -20.067  -4.491  -9.792  1.00  0.00     0.012 A 
HETATM   34  C   UNL     1     -20.534  -4.483 -11.110  1.00  0.00     0.040 A 
HETATM   35  C   UNL     1     -21.847  -4.094 -11.373  1.00  0.00     0.099 A 
HETATM   36  C   UNL     1     -22.699  -3.700 -10.334  1.00  0.00     0.101 A 
HETATM   37  C   UNL     1     -22.219  -3.717  -9.024  1.00  0.00     0.048 A 
BRANCH  35  38
HETATM   38  O   UNL     1     -22.312  -4.093 -12.662  1.00  0.00    -0.358 OA
HETATM   39  H   UNL     1     -22.027  -3.274 -13.098  1.00  0.00     0.217 HD
ENDBRANCH  35  38
BRANCH  36  40
HETATM   40  O   UNL     1     -23.971  -3.325 -10.678  1.00  0.00    -0.353 OA
HETATM   41  C   UNL     1     -24.925  -3.325  -9.627  1.00  0.00     0.210 C 
ENDBRANCH  36  40
ENDBRANCH  31  32
ENDBRANCH  29  31
ENDBRANCH  26  27
ENDBRANCH  25  26
ENDBRANCH  24  25
ENDBRANCH  23  24
ENDBRANCH  22  23
ENDBRANCH   1  22
TORSDOF 22
ENDMDL
MODEL 5
REMARK VINA RESULT:      -7.4      1.580      2.918
REMARK  22 active torsions:
REMARK  status: ('A' for Active; 'I' for Inactive)
REMARK    1  A    between atoms: C_2  and  C_3 
REMARK    2  A    between atoms: C_3  and  C_4 
REMARK    3  A    between atoms: C_4  and  C_5 
REMARK    4  A    between atoms: C_5  and  C_6 
REMARK    5  A    between atoms: C_6  and  C_7 
REMARK    6  A    between atoms: C_7  and  C_8 
REMARK    7  A    between atoms: C_7  and  C_31 
REMARK    8  A    between atoms: C_8  and  C_9 
REMARK    9  A    between atoms: C_10  and  C_11 
REMARK   10  A    between atoms: C_11  and  C_12 
REMARK   11  A    between atoms: C_12  and  C_13 
REMARK   12  A    between atoms: C_13  and  C_14 
REMARK   13  A    between atoms: C_14  and  C_15 
REMARK   14  A    between atoms: C_15  and  C_16 
REMARK   15  A    between atoms: C_16  and  C_17 
REMARK   16  A    between atoms: C_17  and  C_18 
REMARK       I    between atoms: C_18  and  N_20 
REMARK   17  A    between atoms: N_20  and  C_21 
REMARK   18  A    between atoms: C_21  and  C_22 
REMARK   19  A    between atoms: C_25  and  O_26 
REMARK   20  A    between atoms: C_27  and  O_28 
REMARK   21  A    between atoms: C_31  and  C_33 
REMARK   22  A    between atoms: C_33  and  C_34 
ROOT
HETATM    1  C   UNL     1     -22.855  -7.433   0.058  1.00  0.00     0.004 C 
ENDROOT
BRANCH   1   2
HETATM    2  C   UNL     1     -22.602  -8.865   0.523  1.00  0.00     0.027 C 
BRANCH   2   3
HETATM    3  C   UNL     1     -23.128  -9.892  -0.427  1.00  0.00    -0.031 C 
HETATM    4  C   UNL     1     -23.932 -10.881  -0.021  1.00  0.00    -0.030 C 
BRANCH   4   5
HETATM    5  C   UNL     1     -24.276 -12.075  -0.861  1.00  0.00     0.039 C 
BRANCH   5   6
HETATM    6  C   UNL     1     -23.644 -13.365  -0.296  1.00  0.00     0.059 C 
BRANCH   6   7
HETATM    7  C   UNL     1     -22.851 -13.134   1.015  1.00  0.00     0.012 C 
BRANCH   7   8
HETATM    8  C   UNL     1     -23.403 -13.927   2.193  1.00  0.00     0.001 C 
BRANCH   8   9
HETATM    9  C   UNL     1     -22.985 -15.394   2.157  1.00  0.00     0.000 C 
BRANCH   9  10
HETATM   10  C   UNL     1     -22.079 -15.684   3.352  1.00  0.00    -0.000 C 
BRANCH  10  11
HETATM   11  C   UNL     1     -20.822 -16.444   2.948  1.00  0.00    -0.005 C 
HETATM   12  C   UNL     1     -20.093 -15.713   1.833  1.00  0.00     0.005 C 
ENDBRANCH  10  11
ENDBRANCH   9  10
ENDBRANCH   8   9
ENDBRANCH   7   8
ENDBRANCH   6   7
BRANCH   6  13
HETATM   13  C   UNL     1     -22.730 -14.037  -1.335  1.00  0.00     0.135 C 
HETATM   14  O   UNL     1     -23.184 -14.754  -2.234  1.00  0.00    -0.297 OA
BRANCH  13  15
HETATM   15  C   UNL     1     -21.243 -13.743  -1.284  1.00  0.00     0.117 C 
BRANCH  15  16
HETATM   16  C   UNL     1     -20.892 -12.374  -1.803  1.00  0.00    -0.051 A 
HETATM   17  C   UNL     1     -20.006 -11.548  -1.100  1.00  0.00     0.007 A 
HETATM   18  C   UNL     1     -19.634 -10.307  -1.620  1.00  0.00     0.001 A 
HETATM   19  C   UNL     1     -20.142  -9.882  -2.846  1.00  0.00     0.000 A 
HETATM   20  C   UNL     1     -21.034 -10.691  -3.548  1.00  0.00     0.001 A 
HETATM   21  C   UNL     1     -21.410 -11.929  -3.028  1.00  0.00     0.007 A 
ENDBRANCH  15  16
ENDBRANCH  13  15
ENDBRANCH   6  13
ENDBRANCH   5   6
ENDBRANCH   4   5
ENDBRANCH   2   3
ENDBRANCH   1   2
BRANCH   1  22
HETATM   22  C   UNL     1     -21.734  -6.924  -0.856  1.00  0.00     0.000 C 
BRANCH  22  23
HETATM   23  C   UNL     1     -22.278  -6.313  -2.143  1.00  0.00     0.000 C 
BRANCH  23  24
HETATM   24  C   UNL     1     -21.345  -6.520  -3.333  1.00  0.00     0.000 C 
BRANCH  24  25
HETATM   25  C   UNL     1     -22.184  -6.683  -4.594  1.00  0.00     0.009 C 
BRANCH  25  26
HETATM   26  C   UNL     1     -21.431  -7.377  -5.722  1.00  0.00     0.103 C 
BRANCH  26  27
HETATM   27  C   UNL     1     -20.649  -6.355  -6.520  1.00  0.00     0.217 C 
HETATM   28  O   UNL     1     -19.554  -6.587  -7.024  1.00  0.00    -0.274 OA
HETATM   29  N   UNL     1     -21.292  -5.149  -6.652  1.00  0.00    -0.357 N 
HETATM   30  H   UNL     1     -22.128  -4.968  -6.114  1.00  0.00     0.162 HD
BRANCH  29  31
HETATM   31  C   UNL     1     -20.666  -4.057  -7.357  1.00  0.00     0.161 C 
BRANCH  31  32
HETATM   32  C   UNL     1     -21.077  -4.023  -8.806  1.00  0.00    -0.038 A 
HETATM   33  C   UNL     1     -20.151  -4.244  -9.833  1.00  0.00     0.012 A 
HETATM   34  C   UNL     1     -20.556  -4.220 -11.171  1.00  0.00     0.040 A 
HETATM   35  C   UNL     1     -21.891  -3.963 -11.482  1.00  0.00     0.099 A 
HETATM   36  C   UNL     1     -22.827  -3.715 -10.471  1.00  0.00     0.101 A 
HETATM   37  C   UNL     1     -22.408  -3.746  -9.140  1.00  0.00     0.048 A 
BRANCH  35  38
HETATM   38  O   UNL     1     -22.295  -3.947 -12.791  1.00  0.00    -0.358 OA
HETATM   39  H   UNL     1     -22.980  -4.623 -12.916  1.00  0.00     0.217 HD
ENDBRANCH  35  38
BRANCH  36  40
HETATM   40  O   UNL     1     -24.116  -3.464 -10.860  1.00  0.00    -0.353 OA
HETATM   41  C   UNL     1     -25.046  -3.220  -9.816  1.00  0.00     0.210 C 
ENDBRANCH  36  40
ENDBRANCH  31  32
ENDBRANCH  29  31
ENDBRANCH  26  27
ENDBRANCH  25  26
ENDBRANCH  24  25
ENDBRANCH  23  24
ENDBRANCH  22  23
ENDBRANCH   1  22
TORSDOF 22
ENDMDL
MODEL 6
REMARK VINA RESULT:      -7.4      2.080      3.338
REMARK  22 active torsions:
REMARK  status: ('A' for Active; 'I' for Inactive)
REMARK    1  A    between atoms: C_2  and  C_3 
REMARK    2  A    between atoms: C_3  and  C_4 
REMARK    3  A    between atoms: C_4  and  C_5 
REMARK    4  A    between atoms: C_5  and  C_6 
REMARK    5  A    between atoms: C_6  and  C_7 
REMARK    6  A    between atoms: C_7  and  C_8 
REMARK    7  A    between atoms: C_7  and  C_31 
REMARK    8  A    between atoms: C_8  and  C_9 
REMARK    9  A    between atoms: C_10  and  C_11 
REMARK   10  A    between atoms: C_11  and  C_12 
REMARK   11  A    between atoms: C_12  and  C_13 
REMARK   12  A    between atoms: C_13  and  C_14 
REMARK   13  A    between atoms: C_14  and  C_15 
REMARK   14  A    between atoms: C_15  and  C_16 
REMARK   15  A    between atoms: C_16  and  C_17 
REMARK   16  A    between atoms: C_17  and  C_18 
REMARK       I    between atoms: C_18  and  N_20 
REMARK   17  A    between atoms: N_20  and  C_21 
REMARK   18  A    between atoms: C_21  and  C_22 
REMARK   19  A    between atoms: C_25  and  O_26 
REMARK   20  A    between atoms: C_27  and  O_28 
REMARK   21  A    between atoms: C_31  and  C_33 
REMARK   22  A    between atoms: C_33  and  C_34 
ROOT
HETATM    1  C   UNL     1     -21.880  -7.430  -0.250  1.00  0.00     0.004 C 
ENDROOT
BRANCH   1   2
HETATM    2  C   UNL     1     -22.999  -8.315   0.293  1.00  0.00     0.027 C 
BRANCH   2   3
HETATM    3  C   UNL     1     -23.123  -9.615  -0.435  1.00  0.00    -0.031 C 
HETATM    4  C   UNL     1     -22.077 -10.181  -1.046  1.00  0.00    -0.030 C 
BRANCH   4   5
HETATM    5  C   UNL     1     -22.193 -11.333  -2.000  1.00  0.00     0.039 C 
BRANCH   5   6
HETATM    6  C   UNL     1     -21.234 -11.173  -3.199  1.00  0.00     0.059 C 
BRANCH   6   7
HETATM    7  C   UNL     1     -21.531 -12.162  -4.356  1.00  0.00     0.012 C 
BRANCH   7   8
HETATM    8  C   UNL     1     -21.411 -11.521  -5.733  1.00  0.00     0.001 C 
BRANCH   8   9
HETATM    9  C   UNL     1     -21.692 -12.507  -6.863  1.00  0.00     0.000 C 
BRANCH   9  10
HETATM   10  C   UNL     1     -20.387 -13.193  -7.262  1.00  0.00    -0.000 C 
BRANCH  10  11
HETATM   11  C   UNL     1     -19.235 -12.204  -7.393  1.00  0.00    -0.005 C 
HETATM   12  C   UNL     1     -17.902 -12.928  -7.319  1.00  0.00     0.005 C 
ENDBRANCH  10  11
ENDBRANCH   9  10
ENDBRANCH   8   9
ENDBRANCH   7   8
ENDBRANCH   6   7
BRANCH   6  13
HETATM   13  C   UNL     1     -19.767 -11.322  -2.761  1.00  0.00     0.135 C 
HETATM   14  O   UNL     1     -19.259 -12.430  -2.555  1.00  0.00    -0.297 OA
BRANCH  13  15
HETATM   15  C   UNL     1     -18.916 -10.070  -2.656  1.00  0.00     0.117 C 
BRANCH  15  16
HETATM   16  C   UNL     1     -17.925  -9.931  -3.781  1.00  0.00    -0.051 A 
HETATM   17  C   UNL     1     -16.579 -10.270  -3.594  1.00  0.00     0.007 A 
HETATM   18  C   UNL     1     -15.679 -10.201  -4.658  1.00  0.00     0.001 A 
HETATM   19  C   UNL     1     -16.116  -9.794  -5.918  1.00  0.00     0.000 A 
HETATM   20  C   UNL     1     -17.451  -9.442  -6.111  1.00  0.00     0.001 A 
HETATM   21  C   UNL     1     -18.350  -9.507  -5.048  1.00  0.00     0.007 A 
ENDBRANCH  15  16
ENDBRANCH  13  15
ENDBRANCH   6  13
ENDBRANCH   5   6
ENDBRANCH   4   5
ENDBRANCH   2   3
ENDBRANCH   1   2
BRANCH   1  22
HETATM   22  C   UNL     1     -22.324  -6.646  -1.490  1.00  0.00     0.000 C 
BRANCH  22  23
HETATM   23  C   UNL     1     -21.242  -6.616  -2.566  1.00  0.00     0.000 C 
BRANCH  23  24
HETATM   24  C   UNL     1     -21.513  -7.602  -3.699  1.00  0.00     0.000 C 
BRANCH  24  25
HETATM   25  C   UNL     1     -22.146  -6.851  -4.864  1.00  0.00     0.009 C 
BRANCH  25  26
HETATM   26  C   UNL     1     -21.356  -5.613  -5.272  1.00  0.00     0.103 C 
BRANCH  26  27
HETATM   27  C   UNL     1     -20.643  -5.870  -6.582  1.00  0.00     0.217 C 
HETATM   28  O   UNL     1     -19.872  -6.809  -6.759  1.00  0.00    -0.274 OA
HETATM   29  N   UNL     1     -20.960  -4.968  -7.569  1.00  0.00    -0.357 N 
HETATM   30  H   UNL     1     -21.497  -4.144  -7.337  1.00  0.00     0.162 HD
BRANCH  29  31
HETATM   31  C   UNL     1     -20.340  -5.054  -8.869  1.00  0.00     0.161 C 
BRANCH  31  32
HETATM   32  C   UNL     1     -21.115  -4.283  -9.905  1.00  0.00    -0.038 A 
HETATM   33  C   UNL     1     -20.490  -3.756 -11.042  1.00  0.00     0.012 A 
HETATM   34  C   UNL     1     -21.230  -3.053 -11.997  1.00  0.00     0.040 A 
HETATM   35  C   UNL     1     -22.599  -2.868 -11.809  1.00  0.00     0.099 A 
HETATM   36  C   UNL     1     -23.239  -3.367 -10.667  1.00  0.00     0.101 A 
HETATM   37  C   UNL     1     -22.486  -4.069  -9.724  1.00  0.00     0.048 A 
BRANCH  35  38
HETATM   38  O   UNL     1     -23.331  -2.189 -12.747  1.00  0.00    -0.358 OA
HETATM   39  H   UNL     1     -23.268  -2.657 -13.594  1.00  0.00     0.217 HD
ENDBRANCH  35  38
BRANCH  36  40
HETATM   40  O   UNL     1     -24.584  -3.136 -10.553  1.00  0.00    -0.353 OA
HETATM   41  C   UNL     1     -25.160  -3.422  -9.289  1.00  0.00     0.210 C 
ENDBRANCH  36  40
ENDBRANCH  31  32
ENDBRANCH  29  31
ENDBRANCH  26  27
ENDBRANCH  25  26
ENDBRANCH  24  25
ENDBRANCH  23  24
ENDBRANCH  22  23
ENDBRANCH   1  22
TORSDOF 22
ENDMDL
MODEL 7
REMARK VINA RESULT:      -7.4      1.670      4.048
REMARK  22 active torsions:
REMARK  status: ('A' for Active; 'I' for Inactive)
REMARK    1  A    between atoms: C_2  and  C_3 
REMARK    2  A    between atoms: C_3  and  C_4 
REMARK    3  A    between atoms: C_4  and  C_5 
REMARK    4  A    between atoms: C_5  and  C_6 
REMARK    5  A    between atoms: C_6  and  C_7 
REMARK    6  A    between atoms: C_7  and  C_8 
REMARK    7  A    between atoms: C_7  and  C_31 
REMARK    8  A    between atoms: C_8  and  C_9 
REMARK    9  A    between atoms: C_10  and  C_11 
REMARK   10  A    between atoms: C_11  and  C_12 
REMARK   11  A    between atoms: C_12  and  C_13 
REMARK   12  A    between atoms: C_13  and  C_14 
REMARK   13  A    between atoms: C_14  and  C_15 
REMARK   14  A    between atoms: C_15  and  C_16 
REMARK   15  A    between atoms: C_16  and  C_17 
REMARK   16  A    between atoms: C_17  and  C_18 
REMARK       I    between atoms: C_18  and  N_20 
REMARK   17  A    between atoms: N_20  and  C_21 
REMARK   18  A    between atoms: C_21  and  C_22 
REMARK   19  A    between atoms: C_25  and  O_26 
REMARK   20  A    between atoms: C_27  and  O_28 
REMARK   21  A    between atoms: C_31  and  C_33 
REMARK   22  A    between atoms: C_33  and  C_34 
ROOT
HETATM    1  C   UNL     1     -19.247  -9.225  -2.531  1.00  0.00     0.004 C 
ENDROOT
BRANCH   1   2
HETATM    2  C   UNL     1     -19.837  -9.888  -3.773  1.00  0.00     0.027 C 
BRANCH   2   3
HETATM    3  C   UNL     1     -20.556 -11.163  -3.471  1.00  0.00    -0.031 C 
HETATM    4  C   UNL     1     -21.762 -11.429  -3.985  1.00  0.00    -0.030 C 
BRANCH   4   5
HETATM    5  C   UNL     1     -22.638 -12.554  -3.518  1.00  0.00     0.039 C 
BRANCH   5   6
HETATM    6  C   UNL     1     -22.309 -12.963  -2.066  1.00  0.00     0.059 C 
BRANCH   6   7
HETATM    7  C   UNL     1     -21.947 -14.463  -1.920  1.00  0.00     0.012 C 
BRANCH   7   8
HETATM    8  C   UNL     1     -20.572 -14.687  -1.303  1.00  0.00     0.001 C 
BRANCH   8   9
HETATM    9  C   UNL     1     -19.449 -14.610  -2.334  1.00  0.00     0.000 C 
BRANCH   9  10
HETATM   10  C   UNL     1     -18.351 -13.690  -1.807  1.00  0.00    -0.000 C 
BRANCH  10  11
HETATM   11  C   UNL     1     -18.771 -12.964  -0.535  1.00  0.00    -0.005 C 
HETATM   12  C   UNL     1     -17.691 -11.989  -0.097  1.00  0.00     0.005 C 
ENDBRANCH  10  11
ENDBRANCH   9  10
ENDBRANCH   8   9
ENDBRANCH   7   8
ENDBRANCH   6   7
BRANCH   6  13
HETATM   13  C   UNL     1     -23.469 -12.620  -1.116  1.00  0.00     0.135 C 
HETATM   14  O   UNL     1     -24.011 -13.481  -0.414  1.00  0.00    -0.297 OA
BRANCH  13  15
HETATM   15  C   UNL     1     -23.898 -11.170  -0.997  1.00  0.00     0.117 C 
BRANCH  15  16
HETATM   16  C   UNL     1     -22.950 -10.338  -0.175  1.00  0.00    -0.051 A 
HETATM   17  C   UNL     1     -21.732 -10.869   0.269  1.00  0.00     0.007 A 
HETATM   18  C   UNL     1     -20.830 -10.072   0.973  1.00  0.00     0.001 A 
HETATM   19  C   UNL     1     -21.134  -8.738   1.239  1.00  0.00     0.000 A 
HETATM   20  C   UNL     1     -22.348  -8.203   0.814  1.00  0.00     0.001 A 
HETATM   21  C   UNL     1     -23.254  -8.999   0.113  1.00  0.00     0.007 A 
ENDBRANCH  15  16
ENDBRANCH  13  15
ENDBRANCH   6  13
ENDBRANCH   5   6
ENDBRANCH   4   5
ENDBRANCH   2   3
ENDBRANCH   1   2
BRANCH   1  22
HETATM   22  C   UNL     1     -20.074  -8.013  -2.085  1.00  0.00     0.000 C 
BRANCH  22  23
HETATM   23  C   UNL     1     -21.291  -7.793  -2.978  1.00  0.00     0.000 C 
BRANCH  23  24
HETATM   24  C   UNL     1     -21.553  -6.316  -3.261  1.00  0.00     0.000 C 
BRANCH  24  25
HETATM   25  C   UNL     1     -21.607  -6.105  -4.770  1.00  0.00     0.009 C 
BRANCH  25  26
HETATM   26  C   UNL     1     -20.489  -5.209  -5.285  1.00  0.00     0.103 C 
BRANCH  26  27
HETATM   27  C   UNL     1     -20.278  -5.451  -6.764  1.00  0.00     0.217 C 
HETATM   28  O   UNL     1     -19.918  -6.530  -7.227  1.00  0.00    -0.274 OA
HETATM   29  N   UNL     1     -20.555  -4.358  -7.547  1.00  0.00    -0.357 N 
HETATM   30  H   UNL     1     -20.722  -3.462  -7.111  1.00  0.00     0.162 HD
BRANCH  29  31
HETATM   31  C   UNL     1     -20.373  -4.414  -8.978  1.00  0.00     0.161 C 
BRANCH  31  32
HETATM   32  C   UNL     1     -21.644  -4.079  -9.712  1.00  0.00    -0.038 A 
HETATM   33  C   UNL     1     -22.893  -4.510  -9.246  1.00  0.00     0.012 A 
HETATM   34  C   UNL     1     -24.061  -4.178  -9.936  1.00  0.00     0.040 A 
HETATM   35  C   UNL     1     -23.980  -3.421 -11.104  1.00  0.00     0.099 A 
HETATM   36  C   UNL     1     -22.740  -3.000 -11.600  1.00  0.00     0.101 A 
HETATM   37  C   UNL     1     -21.582  -3.337 -10.897  1.00  0.00     0.048 A 
BRANCH  35  38
HETATM   38  O   UNL     1     -25.124  -3.084 -11.780  1.00  0.00    -0.358 OA
HETATM   39  H   UNL     1     -25.629  -2.451 -11.246  1.00  0.00     0.217 HD
ENDBRANCH  35  38
BRANCH  36  40
HETATM   40  O   UNL     1     -22.745  -2.266 -12.757  1.00  0.00    -0.353 OA
HETATM   41  C   UNL     1     -22.972  -2.993 -13.954  1.00  0.00     0.210 C 
ENDBRANCH  36  40
ENDBRANCH  31  32
ENDBRANCH  29  31
ENDBRANCH  26  27
ENDBRANCH  25  26
ENDBRANCH  24  25
ENDBRANCH  23  24
ENDBRANCH  22  23
ENDBRANCH   1  22
TORSDOF 22
ENDMDL
MODEL 8
REMARK VINA RESULT:      -7.3      1.973      3.839
REMARK  22 active torsions:
REMARK  status: ('A' for Active; 'I' for Inactive)
REMARK    1  A    between atoms: C_2  and  C_3 
REMARK    2  A    between atoms: C_3  and  C_4 
REMARK    3  A    between atoms: C_4  and  C_5 
REMARK    4  A    between atoms: C_5  and  C_6 
REMARK    5  A    between atoms: C_6  and  C_7 
REMARK    6  A    between atoms: C_7  and  C_8 
REMARK    7  A    between atoms: C_7  and  C_31 
REMARK    8  A    between atoms: C_8  and  C_9 
REMARK    9  A    between atoms: C_10  and  C_11 
REMARK   10  A    between atoms: C_11  and  C_12 
REMARK   11  A    between atoms: C_12  and  C_13 
REMARK   12  A    between atoms: C_13  and  C_14 
REMARK   13  A    between atoms: C_14  and  C_15 
REMARK   14  A    between atoms: C_15  and  C_16 
REMARK   15  A    between atoms: C_16  and  C_17 
REMARK   16  A    between atoms: C_17  and  C_18 
REMARK       I    between atoms: C_18  and  N_20 
REMARK   17  A    between atoms: N_20  and  C_21 
REMARK   18  A    between atoms: C_21  and  C_22 
REMARK   19  A    between atoms: C_25  and  O_26 
REMARK   20  A    between atoms: C_27  and  O_28 
REMARK   21  A    between atoms: C_31  and  C_33 
REMARK   22  A    between atoms: C_33  and  C_34 
ROOT
HETATM    1  C   UNL     1     -22.762  -8.237  -0.064  1.00  0.00     0.004 C 
ENDROOT
BRANCH   1   2
HETATM    2  C   UNL     1     -22.845  -9.731  -0.365  1.00  0.00     0.027 C 
BRANCH   2   3
HETATM    3  C   UNL     1     -22.357 -10.081  -1.734  1.00  0.00    -0.031 C 
HETATM    4  C   UNL     1     -21.640 -11.186  -1.965  1.00  0.00    -0.030 C 
BRANCH   4   5
HETATM    5  C   UNL     1     -20.909 -11.453  -3.247  1.00  0.00     0.039 C 
BRANCH   5   6
HETATM    6  C   UNL     1     -19.389 -11.234  -3.089  1.00  0.00     0.059 C 
BRANCH   6   7
HETATM    7  C   UNL     1     -18.868 -11.569  -1.668  1.00  0.00     0.012 C 
BRANCH   7   8
HETATM    8  C   UNL     1     -17.838 -12.692  -1.661  1.00  0.00     0.001 C 
BRANCH   8   9
HETATM    9  C   UNL     1     -17.269 -12.972  -3.048  1.00  0.00     0.000 C 
BRANCH   9  10
HETATM   10  C   UNL     1     -15.866 -13.557  -2.903  1.00  0.00    -0.000 C 
BRANCH  10  11
HETATM   11  C   UNL     1     -14.795 -12.475  -2.850  1.00  0.00    -0.005 C 
HETATM   12  C   UNL     1     -13.494 -12.984  -3.448  1.00  0.00     0.005 C 
ENDBRANCH  10  11
ENDBRANCH   9  10
ENDBRANCH   8   9
ENDBRANCH   7   8
ENDBRANCH   6   7
BRANCH   6  13
HETATM   13  C   UNL     1     -18.994  -9.792  -3.452  1.00  0.00     0.135 C 
HETATM   14  O   UNL     1     -18.815  -8.929  -2.586  1.00  0.00    -0.297 OA
BRANCH  13  15
HETATM   15  C   UNL     1     -18.752  -9.458  -4.912  1.00  0.00     0.117 C 
BRANCH  15  16
HETATM   16  C   UNL     1     -17.682 -10.306  -5.544  1.00  0.00    -0.051 A 
HETATM   17  C   UNL     1     -16.326 -10.021  -5.334  1.00  0.00     0.007 A 
HETATM   18  C   UNL     1     -15.340 -10.850  -5.870  1.00  0.00     0.001 A 
HETATM   19  C   UNL     1     -15.698 -11.970  -6.618  1.00  0.00     0.000 A 
HETATM   20  C   UNL     1     -17.043 -12.255  -6.844  1.00  0.00     0.001 A 
HETATM   21  C   UNL     1     -18.030 -11.426  -6.313  1.00  0.00     0.007 A 
ENDBRANCH  15  16
ENDBRANCH  13  15
ENDBRANCH   6  13
ENDBRANCH   5   6
ENDBRANCH   4   5
ENDBRANCH   2   3
ENDBRANCH   1   2
BRANCH   1  22
HETATM   22  C   UNL     1     -21.615  -7.565  -0.826  1.00  0.00     0.000 C 
BRANCH  22  23
HETATM   23  C   UNL     1     -22.115  -6.468  -1.762  1.00  0.00     0.000 C 
BRANCH  23  24
HETATM   24  C   UNL     1     -21.329  -6.406  -3.068  1.00  0.00     0.000 C 
BRANCH  24  25
HETATM   25  C   UNL     1     -22.282  -6.657  -4.230  1.00  0.00     0.009 C 
BRANCH  25  26
HETATM   26  C   UNL     1     -21.614  -7.360  -5.405  1.00  0.00     0.103 C 
BRANCH  26  27
HETATM   27  C   UNL     1     -20.802  -6.363  -6.203  1.00  0.00     0.217 C 
HETATM   28  O   UNL     1     -19.713  -6.627  -6.705  1.00  0.00    -0.274 OA
HETATM   29  N   UNL     1     -21.409  -5.139  -6.339  1.00  0.00    -0.357 N 
HETATM   30  H   UNL     1     -22.240  -4.933  -5.802  1.00  0.00     0.162 HD
BRANCH  29  31
HETATM   31  C   UNL     1     -20.751  -4.066  -7.044  1.00  0.00     0.161 C 
BRANCH  31  32
HETATM   32  C   UNL     1     -21.095  -4.073  -8.511  1.00  0.00    -0.038 A 
HETATM   33  C   UNL     1     -20.148  -4.421  -9.482  1.00  0.00     0.012 A 
HETATM   34  C   UNL     1     -20.492  -4.432 -10.837  1.00  0.00     0.040 A 
HETATM   35  C   UNL     1     -21.786  -4.083 -11.222  1.00  0.00     0.099 A 
HETATM   36  C   UNL     1     -22.741  -3.708 -10.268  1.00  0.00     0.101 A 
HETATM   37  C   UNL     1     -22.382  -3.705  -8.919  1.00  0.00     0.048 A 
BRANCH  35  38
HETATM   38  O   UNL     1     -22.132  -4.101 -12.548  1.00  0.00    -0.358 OA
HETATM   39  H   UNL     1     -21.335  -4.265 -13.077  1.00  0.00     0.217 HD
ENDBRANCH  35  38
BRANCH  36  40
HETATM   40  O   UNL     1     -23.986  -3.372 -10.729  1.00  0.00    -0.353 OA
HETATM   41  C   UNL     1     -25.017  -3.317  -9.755  1.00  0.00     0.210 C 
ENDBRANCH  36  40
ENDBRANCH  31  32
ENDBRANCH  29  31
ENDBRANCH  26  27
ENDBRANCH  25  26
ENDBRANCH  24  25
ENDBRANCH  23  24
ENDBRANCH  22  23
ENDBRANCH   1  22
TORSDOF 22
ENDMDL
MODEL 9
REMARK VINA RESULT:      -7.3      1.678      2.869
REMARK  22 active torsions:
REMARK  status: ('A' for Active; 'I' for Inactive)
REMARK    1  A    between atoms: C_2  and  C_3 
REMARK    2  A    between atoms: C_3  and  C_4 
REMARK    3  A    between atoms: C_4  and  C_5 
REMARK    4  A    between atoms: C_5  and  C_6 
REMARK    5  A    between atoms: C_6  and  C_7 
REMARK    6  A    between atoms: C_7  and  C_8 
REMARK    7  A    between atoms: C_7  and  C_31 
REMARK    8  A    between atoms: C_8  and  C_9 
REMARK    9  A    between atoms: C_10  and  C_11 
REMARK   10  A    between atoms: C_11  and  C_12 
REMARK   11  A    between atoms: C_12  and  C_13 
REMARK   12  A    between atoms: C_13  and  C_14 
REMARK   13  A    between atoms: C_14  and  C_15 
REMARK   14  A    between atoms: C_15  and  C_16 
REMARK   15  A    between atoms: C_16  and  C_17 
REMARK   16  A    between atoms: C_17  and  C_18 
REMARK       I    between atoms: C_18  and  N_20 
REMARK   17  A    between atoms: N_20  and  C_21 
REMARK   18  A    between atoms: C_21  and  C_22 
REMARK   19  A    between atoms: C_25  and  O_26 
REMARK   20  A    between atoms: C_27  and  O_28 
REMARK   21  A    between atoms: C_31  and  C_33 
REMARK   22  A    between atoms: C_33  and  C_34 
ROOT
HETATM    1  C   UNL     1     -22.262  -7.261  -0.499  1.00  0.00     0.004 C 
ENDROOT
BRANCH   1   2
HETATM    2  C   UNL     1     -22.155  -8.095   0.775  1.00  0.00     0.027 C 
BRANCH   2   3
HETATM    3  C   UNL     1     -21.830  -9.530   0.511  1.00  0.00    -0.031 C 
HETATM    4  C   UNL     1     -20.714 -10.097   0.983  1.00  0.00    -0.030 C 
BRANCH   4   5
HETATM    5  C   UNL     1     -20.209 -11.438   0.539  1.00  0.00     0.039 C 
BRANCH   5   6
HETATM    6  C   UNL     1     -19.397 -11.332  -0.769  1.00  0.00     0.059 C 
BRANCH   6   7
HETATM    7  C   UNL     1     -20.242 -11.611  -2.038  1.00  0.00     0.012 C 
BRANCH   7   8
HETATM    8  C   UNL     1     -19.781 -10.810  -3.249  1.00  0.00     0.001 C 
BRANCH   8   9
HETATM    9  C   UNL     1     -19.589 -11.680  -4.487  1.00  0.00     0.000 C 
BRANCH   9  10
HETATM   10  C   UNL     1     -19.990 -10.882  -5.726  1.00  0.00    -0.000 C 
BRANCH  10  11
HETATM   11  C   UNL     1     -21.247 -11.436  -6.384  1.00  0.00    -0.005 C 
HETATM   12  C   UNL     1     -21.296 -12.948  -6.249  1.00  0.00     0.005 C 
ENDBRANCH  10  11
ENDBRANCH   9  10
ENDBRANCH   8   9
ENDBRANCH   7   8
ENDBRANCH   6   7
BRANCH   6  13
HETATM   13  C   UNL     1     -18.181 -12.274  -0.746  1.00  0.00     0.135 C 
HETATM   14  O   UNL     1     -18.310 -13.502  -0.709  1.00  0.00    -0.297 OA
BRANCH  13  15
HETATM   15  C   UNL     1     -16.795 -11.664  -0.845  1.00  0.00     0.117 C 
BRANCH  15  16
HETATM   16  C   UNL     1     -16.425 -11.258  -2.246  1.00  0.00    -0.051 A 
HETATM   17  C   UNL     1     -16.320  -9.905  -2.595  1.00  0.00     0.007 A 
HETATM   18  C   UNL     1     -15.913  -9.536  -3.878  1.00  0.00     0.001 A 
HETATM   19  C   UNL     1     -15.607 -10.514  -4.823  1.00  0.00     0.000 A 
HETATM   20  C   UNL     1     -15.722 -11.863  -4.490  1.00  0.00     0.001 A 
HETATM   21  C   UNL     1     -16.132 -12.233  -3.210  1.00  0.00     0.007 A 
ENDBRANCH  15  16
ENDBRANCH  13  15
ENDBRANCH   6  13
ENDBRANCH   5   6
ENDBRANCH   4   5
ENDBRANCH   2   3
ENDBRANCH   1   2
BRANCH   1  22
HETATM   22  C   UNL     1     -21.866  -8.067  -1.742  1.00  0.00     0.000 C 
BRANCH  22  23
HETATM   23  C   UNL     1     -20.871  -7.312  -2.619  1.00  0.00     0.000 C 
BRANCH  23  24
HETATM   24  C   UNL     1     -21.557  -6.410  -3.642  1.00  0.00     0.000 C 
BRANCH  24  25
HETATM   25  C   UNL     1     -21.535  -7.101  -5.001  1.00  0.00     0.009 C 
BRANCH  25  26
HETATM   26  C   UNL     1     -20.164  -7.062  -5.664  1.00  0.00     0.103 C 
BRANCH  26  27
HETATM   27  C   UNL     1     -20.018  -5.785  -6.463  1.00  0.00     0.217 C 
HETATM   28  O   UNL     1     -19.712  -4.707  -5.962  1.00  0.00    -0.274 OA
HETATM   29  N   UNL     1     -20.233  -5.948  -7.810  1.00  0.00    -0.357 N 
HETATM   30  H   UNL     1     -20.607  -6.823  -8.152  1.00  0.00     0.162 HD
BRANCH  29  31
HETATM   31  C   UNL     1     -20.165  -4.820  -8.706  1.00  0.00     0.161 C 
BRANCH  31  32
HETATM   32  C   UNL     1     -21.531  -4.414  -9.194  1.00  0.00    -0.038 A 
HETATM   33  C   UNL     1     -22.552  -4.068  -8.299  1.00  0.00     0.012 A 
HETATM   34  C   UNL     1     -23.809  -3.683  -8.773  1.00  0.00     0.040 A 
HETATM   35  C   UNL     1     -24.049  -3.655 -10.146  1.00  0.00     0.099 A 
HETATM   36  C   UNL     1     -23.050  -4.020 -11.056  1.00  0.00     0.101 A 
HETATM   37  C   UNL     1     -21.798  -4.399 -10.567  1.00  0.00     0.048 A 
BRANCH  35  38
HETATM   38  O   UNL     1     -25.278  -3.269 -10.616  1.00  0.00    -0.358 OA
HETATM   39  H   UNL     1     -25.162  -2.834 -11.475  1.00  0.00     0.217 HD
ENDBRANCH  35  38
BRANCH  36  40
HETATM   40  O   UNL     1     -23.368  -3.973 -12.387  1.00  0.00    -0.353 OA
HETATM   41  C   UNL     1     -22.753  -2.938 -13.138  1.00  0.00     0.210 C 
ENDBRANCH  36  40
ENDBRANCH  31  32
ENDBRANCH  29  31
ENDBRANCH  26  27
ENDBRANCH  25  26
ENDBRANCH  24  25
ENDBRANCH  23  24
ENDBRANCH  22  23
ENDBRANCH   1  22
TORSDOF 22
ENDMDL
