REMARK  10 active torsions:
REMARK  status: ('A' for Active; 'I' for Inactive)
REMARK    1  A    between atoms: O_2  and  C_3 
REMARK    2  A    between atoms: C_5  and  C_6 
REMARK    3  A    between atoms: C_6  and  N_7 
REMARK       I    between atoms: N_7  and  C_8 
REMARK    4  A    between atoms: C_8  and  C_10 
REMARK    5  A    between atoms: C_10  and  C_11 
REMARK    6  A    between atoms: C_11  and  C_12 
REMARK    7  A    between atoms: C_12  and  C_13 
REMARK    8  A    between atoms: C_13  and  C_14 
REMARK    9  A    between atoms: C_15  and  C_16 
REMARK   10  A    between atoms: C_21  and  O_22 
ROOT
HETATM    1  N   UNL     1       0.962   5.112  -0.684  1.00  0.00    -0.357 N 
HETATM    2  C   UNL     1       0.256   6.070  -0.001  1.00  0.00     0.217 C 
HETATM    3  O   UNL     1       0.784   7.013   0.581  1.00  0.00    -0.274 OA
HETATM    4  H   UNL     1       0.480   4.326  -1.099  1.00  0.00     0.162 HD
ENDROOT
BRANCH   1   5
HETATM    5  C   UNL     1       2.403   5.152  -0.769  1.00  0.00     0.161 C 
BRANCH   5   6
HETATM    6  C   UNL     1       2.887   5.107  -2.196  1.00  0.00    -0.038 A 
HETATM    7  C   UNL     1       2.540   6.126  -3.103  1.00  0.00     0.048 A 
HETATM    8  C   UNL     1       3.030   6.123  -4.414  1.00  0.00     0.101 A 
HETATM    9  C   UNL     1       3.880   5.080  -4.812  1.00  0.00     0.099 A 
HETATM   10  C   UNL     1       4.236   4.066  -3.924  1.00  0.00     0.040 A 
HETATM   11  C   UNL     1       3.741   4.080  -2.621  1.00  0.00     0.012 A 
BRANCH   8  12
HETATM   12  O   UNL     1       2.755   7.075  -5.360  1.00  0.00    -0.353 OA
HETATM   13  C   UNL     1       1.906   8.148  -4.980  1.00  0.00     0.210 C 
ENDBRANCH   8  12
BRANCH   9  14
HETATM   14  O   UNL     1       4.371   5.062  -6.089  1.00  0.00    -0.358 OA
HETATM   15  H   UNL     1       4.947   4.292  -6.199  1.00  0.00     0.217 HD
ENDBRANCH   9  14
ENDBRANCH   5   6
ENDBRANCH   1   5
BRANCH   2  16
HETATM   16  C   UNL     1      -1.245   5.848  -0.003  1.00  0.00     0.103 C 
BRANCH  16  17
HETATM   17  C   UNL     1      -2.019   7.164   0.038  1.00  0.00     0.010 C 
BRANCH  17  18
HETATM   18  C   UNL     1      -1.754   8.024  -1.202  1.00  0.00     0.004 C 
BRANCH  18  19
HETATM   19  C   UNL     1      -2.533   9.336  -1.141  1.00  0.00     0.027 C 
BRANCH  19  20
HETATM   20  C   UNL     1      -2.251  10.177  -2.351  1.00  0.00    -0.030 C 
HETATM   21  C   UNL     1      -3.195  10.572  -3.220  1.00  0.00    -0.027 C 
BRANCH  21  22
HETATM   22  C   UNL     1      -2.911  11.408  -4.441  1.00  0.00    -0.001 C 
HETATM   23  C   UNL     1      -3.336  10.653  -5.701  1.00  0.00     0.013 C 
HETATM   24  C   UNL     1      -3.637  12.748  -4.345  1.00  0.00     0.013 C 
ENDBRANCH  21  22
ENDBRANCH  19  20
ENDBRANCH  18  19
ENDBRANCH  17  18
ENDBRANCH  16  17
ENDBRANCH   2  16
TORSDOF 10
