MODEL 1
REMARK VINA RESULT:      -8.7      0.000      0.000
REMARK  10 active torsions:
REMARK  status: ('A' for Active; 'I' for Inactive)
REMARK    1  A    between atoms: O_2  and  C_3 
REMARK    2  A    between atoms: C_5  and  C_6 
REMARK    3  A    between atoms: C_6  and  N_7 
REMARK       I    between atoms: N_7  and  C_8 
REMARK    4  A    between atoms: C_8  and  C_10 
REMARK    5  A    between atoms: C_10  and  C_11 
REMARK    6  A    between atoms: C_11  and  C_12 
REMARK    7  A    between atoms: C_12  and  C_13 
REMARK    8  A    between atoms: C_13  and  C_14 
REMARK    9  A    between atoms: C_15  and  C_16 
REMARK   10  A    between atoms: C_21  and  O_22 
ROOT
HETATM    1  N   UNL     1     -21.232  -5.177  -6.417  1.00  0.00    -0.357 N 
HETATM    2  C   UNL     1     -20.668  -6.425  -6.330  1.00  0.00     0.217 C 
HETATM    3  O   UNL     1     -19.599  -6.722  -6.856  1.00  0.00    -0.274 OA
HETATM    4  H   UNL     1     -22.141  -5.002  -6.010  1.00  0.00     0.162 HD
ENDROOT
BRANCH   1   5
HETATM    5  C   UNL     1     -20.592  -4.107  -7.145  1.00  0.00     0.161 C 
BRANCH   5   6
HETATM    6  C   UNL     1     -20.970  -4.111  -8.604  1.00  0.00    -0.038 A 
HETATM    7  C   UNL     1     -22.264  -3.734  -9.010  1.00  0.00     0.048 A 
HETATM    8  C   UNL     1     -22.607  -3.680 -10.366  1.00  0.00     0.101 A 
HETATM    9  C   UNL     1     -21.633  -4.009 -11.321  1.00  0.00     0.099 A 
HETATM   10  C   UNL     1     -20.346  -4.380 -10.934  1.00  0.00     0.040 A 
HETATM   11  C   UNL     1     -20.016  -4.431  -9.581  1.00  0.00     0.012 A 
BRANCH   8  12
HETATM   12  O   UNL     1     -23.835  -3.316 -10.854  1.00  0.00    -0.353 OA
HETATM   13  C   UNL     1     -24.926  -3.318  -9.945  1.00  0.00     0.210 C 
ENDBRANCH   8  12
BRANCH   9  14
HETATM   14  O   UNL     1     -21.950  -3.959 -12.651  1.00  0.00    -0.358 OA
HETATM   15  H   UNL     1     -22.611  -4.638 -12.847  1.00  0.00     0.217 HD
ENDBRANCH   9  14
ENDBRANCH   5   6
ENDBRANCH   1   5
BRANCH   2  16
HETATM   16  C   UNL     1     -21.497  -7.423  -5.543  1.00  0.00     0.103 C 
BRANCH  16  17
HETATM   17  C   UNL     1     -22.220  -6.768  -4.369  1.00  0.00     0.010 C 
BRANCH  17  18
HETATM   18  C   UNL     1     -21.356  -6.745  -3.104  1.00  0.00     0.004 C 
BRANCH  18  19
HETATM   19  C   UNL     1     -22.080  -6.049  -1.953  1.00  0.00     0.027 C 
BRANCH  19  20
HETATM   20  C   UNL     1     -22.301  -7.000  -0.813  1.00  0.00    -0.030 C 
HETATM   21  C   UNL     1     -22.297  -8.336  -0.946  1.00  0.00    -0.027 C 
BRANCH  21  22
HETATM   22  C   UNL     1     -22.529  -9.291   0.196  1.00  0.00    -0.001 C 
HETATM   23  C   UNL     1     -23.529 -10.370  -0.221  1.00  0.00     0.013 C 
HETATM   24  C   UNL     1     -21.209  -9.920   0.636  1.00  0.00     0.013 C 
ENDBRANCH  21  22
ENDBRANCH  19  20
ENDBRANCH  18  19
ENDBRANCH  17  18
ENDBRANCH  16  17
ENDBRANCH   2  16
TORSDOF 10
ENDMDL
MODEL 2
REMARK VINA RESULT:      -8.1      1.426      1.965
REMARK  10 active torsions:
REMARK  status: ('A' for Active; 'I' for Inactive)
REMARK    1  A    between atoms: O_2  and  C_3 
REMARK    2  A    between atoms: C_5  and  C_6 
REMARK    3  A    between atoms: C_6  and  N_7 
REMARK       I    between atoms: N_7  and  C_8 
REMARK    4  A    between atoms: C_8  and  C_10 
REMARK    5  A    between atoms: C_10  and  C_11 
REMARK    6  A    between atoms: C_11  and  C_12 
REMARK    7  A    between atoms: C_12  and  C_13 
REMARK    8  A    between atoms: C_13  and  C_14 
REMARK    9  A    between atoms: C_15  and  C_16 
REMARK   10  A    between atoms: C_21  and  O_22 
ROOT
HETATM    1  N   UNL     1     -20.745  -5.444  -6.374  1.00  0.00    -0.357 N 
HETATM    2  C   UNL     1     -21.847  -6.085  -5.866  1.00  0.00     0.217 C 
HETATM    3  O   UNL     1     -22.966  -5.582  -5.831  1.00  0.00    -0.274 OA
HETATM    4  H   UNL     1     -19.836  -5.885  -6.328  1.00  0.00     0.162 HD
ENDROOT
BRANCH   1   5
HETATM    5  C   UNL     1     -20.831  -4.109  -6.916  1.00  0.00     0.161 C 
BRANCH   5   6
HETATM    6  C   UNL     1     -21.107  -4.116  -8.398  1.00  0.00    -0.038 A 
HETATM    7  C   UNL     1     -22.367  -3.734  -8.895  1.00  0.00     0.048 A 
HETATM    8  C   UNL     1     -22.616  -3.684 -10.271  1.00  0.00     0.101 A 
HETATM    9  C   UNL     1     -21.580  -4.022 -11.155  1.00  0.00     0.099 A 
HETATM   10  C   UNL     1     -20.325  -4.398 -10.678  1.00  0.00     0.040 A 
HETATM   11  C   UNL     1     -20.090  -4.445  -9.305  1.00  0.00     0.012 A 
BRANCH   8  12
HETATM   12  O   UNL     1     -23.804  -3.315 -10.844  1.00  0.00    -0.353 OA
HETATM   13  C   UNL     1     -24.957  -3.315 -10.015  1.00  0.00     0.210 C 
ENDBRANCH   8  12
BRANCH   9  14
HETATM   14  O   UNL     1     -21.803  -3.976 -12.504  1.00  0.00    -0.358 OA
HETATM   15  H   UNL     1     -22.751  -4.078 -12.674  1.00  0.00     0.217 HD
ENDBRANCH   9  14
ENDBRANCH   5   6
ENDBRANCH   1   5
BRANCH   2  16
HETATM   16  C   UNL     1     -21.557  -7.472  -5.322  1.00  0.00     0.103 C 
BRANCH  16  17
HETATM   17  C   UNL     1     -20.187  -7.549  -4.652  1.00  0.00     0.010 C 
BRANCH  17  18
HETATM   18  C   UNL     1     -19.684  -8.992  -4.541  1.00  0.00     0.004 C 
BRANCH  18  19
HETATM   19  C   UNL     1     -19.607  -9.440  -3.083  1.00  0.00     0.027 C 
BRANCH  19  20
HETATM   20  C   UNL     1     -20.450  -8.556  -2.212  1.00  0.00    -0.030 C 
HETATM   21  C   UNL     1     -21.463  -9.004  -1.453  1.00  0.00    -0.027 C 
BRANCH  21  22
HETATM   22  C   UNL     1     -22.315  -8.115  -0.586  1.00  0.00    -0.001 C 
HETATM   23  C   UNL     1     -21.803  -8.145   0.855  1.00  0.00     0.013 C 
HETATM   24  C   UNL     1     -22.315  -6.688  -1.129  1.00  0.00     0.013 C 
ENDBRANCH  21  22
ENDBRANCH  19  20
ENDBRANCH  18  19
ENDBRANCH  17  18
ENDBRANCH  16  17
ENDBRANCH   2  16
TORSDOF 10
ENDMDL
MODEL 3
REMARK VINA RESULT:      -7.6      2.845      3.560
REMARK  10 active torsions:
REMARK  status: ('A' for Active; 'I' for Inactive)
REMARK    1  A    between atoms: O_2  and  C_3 
REMARK    2  A    between atoms: C_5  and  C_6 
REMARK    3  A    between atoms: C_6  and  N_7 
REMARK       I    between atoms: N_7  and  C_8 
REMARK    4  A    between atoms: C_8  and  C_10 
REMARK    5  A    between atoms: C_10  and  C_11 
REMARK    6  A    between atoms: C_11  and  C_12 
REMARK    7  A    between atoms: C_12  and  C_13 
REMARK    8  A    between atoms: C_13  and  C_14 
REMARK    9  A    between atoms: C_15  and  C_16 
REMARK   10  A    between atoms: C_21  and  O_22 
ROOT
HETATM    1  N   UNL     1     -20.675  -5.405  -6.345  1.00  0.00    -0.357 N 
HETATM    2  C   UNL     1     -21.732  -6.048  -5.752  1.00  0.00     0.217 C 
HETATM    3  O   UNL     1     -22.857  -5.564  -5.667  1.00  0.00    -0.274 OA
HETATM    4  H   UNL     1     -19.756  -5.826  -6.338  1.00  0.00     0.162 HD
ENDROOT
BRANCH   1   5
HETATM    5  C   UNL     1     -20.819  -4.091  -6.926  1.00  0.00     0.161 C 
BRANCH   5   6
HETATM    6  C   UNL     1     -21.145  -4.154  -8.396  1.00  0.00    -0.038 A 
HETATM    7  C   UNL     1     -22.450  -3.890  -8.852  1.00  0.00     0.048 A 
HETATM    8  C   UNL     1     -22.751  -3.891 -10.219  1.00  0.00     0.101 A 
HETATM    9  C   UNL     1     -21.722  -4.161 -11.134  1.00  0.00     0.099 A 
HETATM   10  C   UNL     1     -20.424  -4.421 -10.697  1.00  0.00     0.040 A 
HETATM   11  C   UNL     1     -20.137  -4.417  -9.333  1.00  0.00     0.012 A 
BRANCH   8  12
HETATM   12  O   UNL     1     -23.986  -3.635 -10.755  1.00  0.00    -0.353 OA
HETATM   13  C   UNL     1     -25.013  -3.226  -9.864  1.00  0.00     0.210 C 
ENDBRANCH   8  12
BRANCH   9  14
HETATM   14  O   UNL     1     -21.996  -4.164 -12.475  1.00  0.00    -0.358 OA
HETATM   15  H   UNL     1     -22.902  -4.476 -12.615  1.00  0.00     0.217 HD
ENDBRANCH   9  14
ENDBRANCH   5   6
ENDBRANCH   1   5
BRANCH   2  16
HETATM   16  C   UNL     1     -21.382  -7.409  -5.179  1.00  0.00     0.103 C 
BRANCH  16  17
HETATM   17  C   UNL     1     -20.991  -7.327  -3.705  1.00  0.00     0.010 C 
BRANCH  17  18
HETATM   18  C   UNL     1     -20.430  -8.655  -3.186  1.00  0.00     0.004 C 
BRANCH  18  19
HETATM   19  C   UNL     1     -19.945  -9.536  -4.335  1.00  0.00     0.027 C 
BRANCH  19  20
HETATM   20  C   UNL     1     -18.455  -9.708  -4.280  1.00  0.00    -0.030 C 
HETATM   21  C   UNL     1     -17.710  -9.401  -3.206  1.00  0.00    -0.027 C 
BRANCH  21  22
HETATM   22  C   UNL     1     -16.213  -9.563  -3.153  1.00  0.00    -0.001 C 
HETATM   23  C   UNL     1     -15.845 -10.705  -2.206  1.00  0.00     0.013 C 
HETATM   24  C   UNL     1     -15.659  -9.825  -4.553  1.00  0.00     0.013 C 
ENDBRANCH  21  22
ENDBRANCH  19  20
ENDBRANCH  18  19
ENDBRANCH  17  18
ENDBRANCH  16  17
ENDBRANCH   2  16
TORSDOF 10
ENDMDL
MODEL 4
REMARK VINA RESULT:      -7.6      2.867      9.393
REMARK  10 active torsions:
REMARK  status: ('A' for Active; 'I' for Inactive)
REMARK    1  A    between atoms: O_2  and  C_3 
REMARK    2  A    between atoms: C_5  and  C_6 
REMARK    3  A    between atoms: C_6  and  N_7 
REMARK       I    between atoms: N_7  and  C_8 
REMARK    4  A    between atoms: C_8  and  C_10 
REMARK    5  A    between atoms: C_10  and  C_11 
REMARK    6  A    between atoms: C_11  and  C_12 
REMARK    7  A    between atoms: C_12  and  C_13 
REMARK    8  A    between atoms: C_13  and  C_14 
REMARK    9  A    between atoms: C_15  and  C_16 
REMARK   10  A    between atoms: C_21  and  O_22 
ROOT
HETATM    1  N   UNL     1     -21.267  -6.349  -3.682  1.00  0.00    -0.357 N 
HETATM    2  C   UNL     1     -21.867  -6.307  -4.916  1.00  0.00     0.217 C 
HETATM    3  O   UNL     1     -23.078  -6.185  -5.075  1.00  0.00    -0.274 OA
HETATM    4  H   UNL     1     -20.271  -6.506  -3.608  1.00  0.00     0.162 HD
ENDROOT
BRANCH   1   5
HETATM    5  C   UNL     1     -22.036  -6.247  -2.464  1.00  0.00     0.161 C 
BRANCH   5   6
HETATM    6  C   UNL     1     -21.759  -7.391  -1.523  1.00  0.00    -0.038 A 
HETATM    7  C   UNL     1     -20.936  -8.463  -1.919  1.00  0.00     0.048 A 
HETATM    8  C   UNL     1     -20.627  -9.501  -1.034  1.00  0.00     0.101 A 
HETATM    9  C   UNL     1     -21.154  -9.456   0.266  1.00  0.00     0.099 A 
HETATM   10  C   UNL     1     -21.967  -8.400   0.675  1.00  0.00     0.040 A 
HETATM   11  C   UNL     1     -22.267  -7.371  -0.217  1.00  0.00     0.012 A 
BRANCH   8  12
HETATM   12  O   UNL     1     -19.830 -10.576  -1.327  1.00  0.00    -0.353 OA
HETATM   13  C   UNL     1     -20.224 -11.405  -2.412  1.00  0.00     0.210 C 
ENDBRANCH   8  12
BRANCH   9  14
HETATM   14  O   UNL     1     -20.861 -10.462   1.146  1.00  0.00    -0.358 OA
HETATM   15  H   UNL     1     -20.022 -10.873   0.894  1.00  0.00     0.217 HD
ENDBRANCH   9  14
ENDBRANCH   5   6
ENDBRANCH   1   5
BRANCH   2  16
HETATM   16  C   UNL     1     -20.900  -6.453  -6.076  1.00  0.00     0.103 C 
BRANCH  16  17
HETATM   17  C   UNL     1     -19.895  -5.304  -6.132  1.00  0.00     0.010 C 
BRANCH  17  18
HETATM   18  C   UNL     1     -20.094  -4.428  -7.373  1.00  0.00     0.004 C 
BRANCH  18  19
HETATM   19  C   UNL     1     -21.257  -3.456  -7.182  1.00  0.00     0.027 C 
BRANCH  19  20
HETATM   20  C   UNL     1     -22.294  -3.655  -8.248  1.00  0.00    -0.030 C 
HETATM   21  C   UNL     1     -22.256  -4.650  -9.148  1.00  0.00    -0.027 C 
BRANCH  21  22
HETATM   22  C   UNL     1     -23.292  -4.844 -10.225  1.00  0.00    -0.001 C 
HETATM   23  C   UNL     1     -24.448  -3.865 -10.019  1.00  0.00     0.013 C 
HETATM   24  C   UNL     1     -22.663  -4.654 -11.603  1.00  0.00     0.013 C 
ENDBRANCH  21  22
ENDBRANCH  19  20
ENDBRANCH  18  19
ENDBRANCH  17  18
ENDBRANCH  16  17
ENDBRANCH   2  16
TORSDOF 10
ENDMDL
MODEL 5
REMARK VINA RESULT:      -7.5      3.010      9.275
REMARK  10 active torsions:
REMARK  status: ('A' for Active; 'I' for Inactive)
REMARK    1  A    between atoms: O_2  and  C_3 
REMARK    2  A    between atoms: C_5  and  C_6 
REMARK    3  A    between atoms: C_6  and  N_7 
REMARK       I    between atoms: N_7  and  C_8 
REMARK    4  A    between atoms: C_8  and  C_10 
REMARK    5  A    between atoms: C_10  and  C_11 
REMARK    6  A    between atoms: C_11  and  C_12 
REMARK    7  A    between atoms: C_12  and  C_13 
REMARK    8  A    between atoms: C_13  and  C_14 
REMARK    9  A    between atoms: C_15  and  C_16 
REMARK   10  A    between atoms: C_21  and  O_22 
ROOT
HETATM    1  N   UNL     1     -19.849  -7.920  -4.280  1.00  0.00    -0.357 N 
HETATM    2  C   UNL     1     -20.497  -7.719  -5.473  1.00  0.00     0.217 C 
HETATM    3  O   UNL     1     -21.373  -8.464  -5.901  1.00  0.00    -0.274 OA
HETATM    4  H   UNL     1     -19.095  -7.306  -4.002  1.00  0.00     0.162 HD
ENDROOT
BRANCH   1   5
HETATM    5  C   UNL     1     -20.164  -9.044  -3.430  1.00  0.00     0.161 C 
BRANCH   5   6
HETATM    6  C   UNL     1     -21.141  -8.674  -2.343  1.00  0.00    -0.038 A 
HETATM    7  C   UNL     1     -21.875  -9.669  -1.670  1.00  0.00     0.048 A 
HETATM    8  C   UNL     1     -22.743  -9.341  -0.622  1.00  0.00     0.101 A 
HETATM    9  C   UNL     1     -22.871  -7.994  -0.251  1.00  0.00     0.099 A 
HETATM   10  C   UNL     1     -22.148  -6.997  -0.906  1.00  0.00     0.040 A 
HETATM   11  C   UNL     1     -21.287  -7.337  -1.948  1.00  0.00     0.012 A 
BRANCH   8  12
HETATM   12  O   UNL     1     -23.488 -10.240   0.095  1.00  0.00    -0.353 OA
HETATM   13  C   UNL     1     -23.887 -11.432  -0.566  1.00  0.00     0.210 C 
ENDBRANCH   8  12
BRANCH   9  14
HETATM   14  O   UNL     1     -23.713  -7.655   0.773  1.00  0.00    -0.358 OA
HETATM   15  H   UNL     1     -24.015  -8.459   1.217  1.00  0.00     0.217 HD
ENDBRANCH   9  14
ENDBRANCH   5   6
ENDBRANCH   1   5
BRANCH   2  16
HETATM   16  C   UNL     1     -20.014  -6.500  -6.238  1.00  0.00     0.103 C 
BRANCH  16  17
HETATM   17  C   UNL     1     -20.490  -5.197  -5.599  1.00  0.00     0.010 C 
BRANCH  17  18
HETATM   18  C   UNL     1     -20.866  -4.147  -6.650  1.00  0.00     0.004 C 
BRANCH  18  19
HETATM   19  C   UNL     1     -19.865  -4.137  -7.803  1.00  0.00     0.027 C 
BRANCH  19  20
HETATM   20  C   UNL     1     -20.577  -4.133  -9.124  1.00  0.00    -0.030 C 
HETATM   21  C   UNL     1     -21.901  -3.953  -9.256  1.00  0.00    -0.027 C 
BRANCH  21  22
HETATM   22  C   UNL     1     -22.618  -3.959 -10.581  1.00  0.00    -0.001 C 
HETATM   23  C   UNL     1     -21.624  -4.228 -11.711  1.00  0.00     0.013 C 
HETATM   24  C   UNL     1     -23.726  -5.009 -10.577  1.00  0.00     0.013 C 
ENDBRANCH  21  22
ENDBRANCH  19  20
ENDBRANCH  18  19
ENDBRANCH  17  18
ENDBRANCH  16  17
ENDBRANCH   2  16
TORSDOF 10
ENDMDL
MODEL 6
REMARK VINA RESULT:      -7.4     12.517     14.978
REMARK  10 active torsions:
REMARK  status: ('A' for Active; 'I' for Inactive)
REMARK    1  A    between atoms: O_2  and  C_3 
REMARK    2  A    between atoms: C_5  and  C_6 
REMARK    3  A    between atoms: C_6  and  N_7 
REMARK       I    between atoms: N_7  and  C_8 
REMARK    4  A    between atoms: C_8  and  C_10 
REMARK    5  A    between atoms: C_10  and  C_11 
REMARK    6  A    between atoms: C_11  and  C_12 
REMARK    7  A    between atoms: C_12  and  C_13 
REMARK    8  A    between atoms: C_13  and  C_14 
REMARK    9  A    between atoms: C_15  and  C_16 
REMARK   10  A    between atoms: C_21  and  O_22 
ROOT
HETATM    1  N   UNL     1     -32.989  -4.518 -15.209  1.00  0.00    -0.357 N 
HETATM    2  C   UNL     1     -33.996  -3.898 -14.513  1.00  0.00     0.217 C 
HETATM    3  O   UNL     1     -34.691  -3.002 -14.982  1.00  0.00    -0.274 OA
HETATM    4  H   UNL     1     -32.411  -5.213 -14.756  1.00  0.00     0.162 HD
ENDROOT
BRANCH   1   5
HETATM    5  C   UNL     1     -32.676  -4.152 -16.571  1.00  0.00     0.161 C 
BRANCH   5   6
HETATM    6  C   UNL     1     -31.280  -4.568 -16.962  1.00  0.00    -0.038 A 
HETATM    7  C   UNL     1     -30.753  -5.801 -16.533  1.00  0.00     0.048 A 
HETATM    8  C   UNL     1     -29.481  -6.221 -16.936  1.00  0.00     0.101 A 
HETATM    9  C   UNL     1     -28.734  -5.388 -17.782  1.00  0.00     0.099 A 
HETATM   10  C   UNL     1     -29.244  -4.166 -18.219  1.00  0.00     0.040 A 
HETATM   11  C   UNL     1     -30.512  -3.758 -17.810  1.00  0.00     0.012 A 
BRANCH   8  12
HETATM   12  O   UNL     1     -28.892  -7.405 -16.578  1.00  0.00    -0.353 OA
HETATM   13  C   UNL     1     -28.008  -7.386 -15.466  1.00  0.00     0.210 C 
ENDBRANCH   8  12
BRANCH   9  14
HETATM   14  O   UNL     1     -27.489  -5.784 -18.189  1.00  0.00    -0.358 OA
HETATM   15  H   UNL     1     -26.820  -5.267 -17.718  1.00  0.00     0.217 HD
ENDBRANCH   9  14
ENDBRANCH   5   6
ENDBRANCH   1   5
BRANCH   2  16
HETATM   16  C   UNL     1     -34.161  -4.401 -13.091  1.00  0.00     0.103 C 
BRANCH  16  17
HETATM   17  C   UNL     1     -32.922  -4.131 -12.240  1.00  0.00     0.010 C 
BRANCH  17  18
HETATM   18  C   UNL     1     -33.146  -2.985 -11.247  1.00  0.00     0.004 C 
BRANCH  18  19
HETATM   19  C   UNL     1     -34.593  -2.952 -10.760  1.00  0.00     0.027 C 
BRANCH  19  20
HETATM   20  C   UNL     1     -35.345  -1.826 -11.407  1.00  0.00    -0.030 C 
HETATM   21  C   UNL     1     -34.759  -0.853 -12.123  1.00  0.00    -0.027 C 
BRANCH  21  22
HETATM   22  C   UNL     1     -35.512   0.284 -12.763  1.00  0.00    -0.001 C 
HETATM   23  C   UNL     1     -34.755   0.783 -13.994  1.00  0.00     0.013 C 
HETATM   24  C   UNL     1     -36.922  -0.163 -13.143  1.00  0.00     0.013 C 
ENDBRANCH  21  22
ENDBRANCH  19  20
ENDBRANCH  18  19
ENDBRANCH  17  18
ENDBRANCH  16  17
ENDBRANCH   2  16
TORSDOF 10
ENDMDL
MODEL 7
REMARK VINA RESULT:      -7.4     12.634     15.384
REMARK  10 active torsions:
REMARK  status: ('A' for Active; 'I' for Inactive)
REMARK    1  A    between atoms: O_2  and  C_3 
REMARK    2  A    between atoms: C_5  and  C_6 
REMARK    3  A    between atoms: C_6  and  N_7 
REMARK       I    between atoms: N_7  and  C_8 
REMARK    4  A    between atoms: C_8  and  C_10 
REMARK    5  A    between atoms: C_10  and  C_11 
REMARK    6  A    between atoms: C_11  and  C_12 
REMARK    7  A    between atoms: C_12  and  C_13 
REMARK    8  A    between atoms: C_13  and  C_14 
REMARK    9  A    between atoms: C_15  and  C_16 
REMARK   10  A    between atoms: C_21  and  O_22 
ROOT
HETATM    1  N   UNL     1     -33.489  -3.456 -17.200  1.00  0.00    -0.357 N 
HETATM    2  C   UNL     1     -34.365  -2.876 -16.317  1.00  0.00     0.217 C 
HETATM    3  O   UNL     1     -34.638  -3.356 -15.220  1.00  0.00    -0.274 OA
HETATM    4  H   UNL     1     -33.343  -3.047 -18.112  1.00  0.00     0.162 HD
ENDROOT
BRANCH   1   5
HETATM    5  C   UNL     1     -32.813  -4.694 -16.890  1.00  0.00     0.161 C 
BRANCH   5   6
HETATM    6  C   UNL     1     -31.317  -4.518 -16.815  1.00  0.00    -0.038 A 
HETATM    7  C   UNL     1     -30.534  -5.372 -16.016  1.00  0.00     0.048 A 
HETATM    8  C   UNL     1     -29.140  -5.253 -15.984  1.00  0.00     0.101 A 
HETATM    9  C   UNL     1     -28.531  -4.260 -16.766  1.00  0.00     0.099 A 
HETATM   10  C   UNL     1     -29.293  -3.409 -17.565  1.00  0.00     0.040 A 
HETATM   11  C   UNL     1     -30.681  -3.537 -17.589  1.00  0.00     0.012 A 
BRANCH   8  12
HETATM   12  O   UNL     1     -28.299  -6.043 -15.246  1.00  0.00    -0.353 OA
HETATM   13  C   UNL     1     -28.111  -7.382 -15.682  1.00  0.00     0.210 C 
ENDBRANCH   8  12
BRANCH   9  14
HETATM   14  O   UNL     1     -27.169  -4.130 -16.749  1.00  0.00    -0.358 OA
HETATM   15  H   UNL     1     -26.932  -3.224 -16.992  1.00  0.00     0.217 HD
ENDBRANCH   9  14
ENDBRANCH   5   6
ENDBRANCH   1   5
BRANCH   2  16
HETATM   16  C   UNL     1     -34.995  -1.594 -16.827  1.00  0.00     0.103 C 
BRANCH  16  17
HETATM   17  C   UNL     1     -35.886  -0.936 -15.775  1.00  0.00     0.010 C 
BRANCH  17  18
HETATM   18  C   UNL     1     -35.471   0.512 -15.496  1.00  0.00     0.004 C 
BRANCH  18  19
HETATM   19  C   UNL     1     -34.934   0.669 -14.075  1.00  0.00     0.027 C 
BRANCH  19  20
HETATM   20  C   UNL     1     -35.350  -0.492 -13.220  1.00  0.00    -0.030 C 
HETATM   21  C   UNL     1     -34.589  -1.006 -12.241  1.00  0.00    -0.027 C 
BRANCH  21  22
HETATM   22  C   UNL     1     -35.001  -2.178 -11.389  1.00  0.00    -0.001 C 
HETATM   23  C   UNL     1     -33.815  -2.659 -10.552  1.00  0.00     0.013 C 
HETATM   24  C   UNL     1     -36.173  -1.791 -10.489  1.00  0.00     0.013 C 
ENDBRANCH  21  22
ENDBRANCH  19  20
ENDBRANCH  18  19
ENDBRANCH  17  18
ENDBRANCH  16  17
ENDBRANCH   2  16
TORSDOF 10
ENDMDL
MODEL 8
REMARK VINA RESULT:      -7.3     13.409     16.028
REMARK  10 active torsions:
REMARK  status: ('A' for Active; 'I' for Inactive)
REMARK    1  A    between atoms: O_2  and  C_3 
REMARK    2  A    between atoms: C_5  and  C_6 
REMARK    3  A    between atoms: C_6  and  N_7 
REMARK       I    between atoms: N_7  and  C_8 
REMARK    4  A    between atoms: C_8  and  C_10 
REMARK    5  A    between atoms: C_10  and  C_11 
REMARK    6  A    between atoms: C_11  and  C_12 
REMARK    7  A    between atoms: C_12  and  C_13 
REMARK    8  A    between atoms: C_13  and  C_14 
REMARK    9  A    between atoms: C_15  and  C_16 
REMARK   10  A    between atoms: C_21  and  O_22 
ROOT
HETATM    1  N   UNL     1     -33.051  -4.496 -15.361  1.00  0.00    -0.357 N 
HETATM    2  C   UNL     1     -32.556  -4.042 -16.557  1.00  0.00     0.217 C 
HETATM    3  O   UNL     1     -33.124  -3.201 -17.248  1.00  0.00    -0.274 OA
HETATM    4  H   UNL     1     -32.571  -5.231 -14.859  1.00  0.00     0.162 HD
ENDROOT
BRANCH   1   5
HETATM    5  C   UNL     1     -34.296  -4.002 -14.821  1.00  0.00     0.161 C 
BRANCH   5   6
HETATM    6  C   UNL     1     -34.112  -3.361 -13.469  1.00  0.00    -0.038 A 
HETATM    7  C   UNL     1     -34.766  -2.156 -13.153  1.00  0.00     0.048 A 
HETATM    8  C   UNL     1     -34.646  -1.582 -11.882  1.00  0.00     0.101 A 
HETATM    9  C   UNL     1     -33.859  -2.234 -10.921  1.00  0.00     0.099 A 
HETATM   10  C   UNL     1     -33.209  -3.431 -11.218  1.00  0.00     0.040 A 
HETATM   11  C   UNL     1     -33.335  -3.992 -12.488  1.00  0.00     0.012 A 
BRANCH   8  12
HETATM   12  O   UNL     1     -35.252  -0.420 -11.481  1.00  0.00    -0.353 OA
HETATM   13  C   UNL     1     -36.671  -0.371 -11.534  1.00  0.00     0.210 C 
ENDBRANCH   8  12
BRANCH   9  14
HETATM   14  O   UNL     1     -33.733  -1.689  -9.672  1.00  0.00    -0.358 OA
HETATM   15  H   UNL     1     -34.606  -1.630  -9.259  1.00  0.00     0.217 HD
ENDBRANCH   9  14
ENDBRANCH   5   6
ENDBRANCH   1   5
BRANCH   2  16
HETATM   16  C   UNL     1     -31.250  -4.693 -16.971  1.00  0.00     0.103 C 
BRANCH  16  17
HETATM   17  C   UNL     1     -30.376  -3.751 -17.797  1.00  0.00     0.010 C 
BRANCH  17  18
HETATM   18  C   UNL     1     -29.034  -4.391 -18.166  1.00  0.00     0.004 C 
BRANCH  18  19
HETATM   19  C   UNL     1     -29.139  -5.914 -18.203  1.00  0.00     0.027 C 
BRANCH  19  20
HETATM   20  C   UNL     1     -27.873  -6.520 -18.735  1.00  0.00    -0.030 C 
HETATM   21  C   UNL     1     -27.298  -6.149 -19.889  1.00  0.00    -0.027 C 
BRANCH  21  22
HETATM   22  C   UNL     1     -26.032  -6.764 -20.429  1.00  0.00    -0.001 C 
HETATM   23  C   UNL     1     -25.015  -6.940 -19.300  1.00  0.00     0.013 C 
HETATM   24  C   UNL     1     -26.338  -8.105 -21.093  1.00  0.00     0.013 C 
ENDBRANCH  21  22
ENDBRANCH  19  20
ENDBRANCH  18  19
ENDBRANCH  17  18
ENDBRANCH  16  17
ENDBRANCH   2  16
TORSDOF 10
ENDMDL
MODEL 9
REMARK VINA RESULT:      -7.2      1.763      2.283
REMARK  10 active torsions:
REMARK  status: ('A' for Active; 'I' for Inactive)
REMARK    1  A    between atoms: O_2  and  C_3 
REMARK    2  A    between atoms: C_5  and  C_6 
REMARK    3  A    between atoms: C_6  and  N_7 
REMARK       I    between atoms: N_7  and  C_8 
REMARK    4  A    between atoms: C_8  and  C_10 
REMARK    5  A    between atoms: C_10  and  C_11 
REMARK    6  A    between atoms: C_11  and  C_12 
REMARK    7  A    between atoms: C_12  and  C_13 
REMARK    8  A    between atoms: C_13  and  C_14 
REMARK    9  A    between atoms: C_15  and  C_16 
REMARK   10  A    between atoms: C_21  and  O_22 
ROOT
HETATM    1  N   UNL     1     -20.472  -6.298  -6.730  1.00  0.00    -0.357 N 
HETATM    2  C   UNL     1     -21.324  -6.623  -5.704  1.00  0.00     0.217 C 
HETATM    3  O   UNL     1     -22.019  -5.800  -5.116  1.00  0.00    -0.274 OA
HETATM    4  H   UNL     1     -19.882  -7.008  -7.143  1.00  0.00     0.162 HD
ENDROOT
BRANCH   1   5
HETATM    5  C   UNL     1     -20.336  -4.939  -7.197  1.00  0.00     0.161 C 
BRANCH   5   6
HETATM    6  C   UNL     1     -20.860  -4.768  -8.600  1.00  0.00    -0.038 A 
HETATM    7  C   UNL     1     -22.245  -4.693  -8.844  1.00  0.00     0.048 A 
HETATM    8  C   UNL     1     -22.740  -4.478 -10.135  1.00  0.00     0.101 A 
HETATM    9  C   UNL     1     -21.827  -4.337 -11.191  1.00  0.00     0.099 A 
HETATM   10  C   UNL     1     -20.453  -4.405 -10.965  1.00  0.00     0.040 A 
HETATM   11  C   UNL     1     -19.972  -4.620  -9.674  1.00  0.00     0.012 A 
BRANCH   8  12
HETATM   12  O   UNL     1     -24.066  -4.381 -10.464  1.00  0.00    -0.353 OA
HETATM   13  C   UNL     1     -24.828  -3.373  -9.817  1.00  0.00     0.210 C 
ENDBRANCH   8  12
BRANCH   9  14
HETATM   14  O   UNL     1     -22.292  -4.124 -12.460  1.00  0.00    -0.358 OA
HETATM   15  H   UNL     1     -23.256  -4.211 -12.465  1.00  0.00     0.217 HD
ENDBRANCH   9  14
ENDBRANCH   5   6
ENDBRANCH   1   5
BRANCH   2  16
HETATM   16  C   UNL     1     -21.314  -8.096  -5.338  1.00  0.00     0.103 C 
BRANCH  16  17
HETATM   17  C   UNL     1     -21.189  -8.310  -3.831  1.00  0.00     0.010 C 
BRANCH  17  18
HETATM   18  C   UNL     1     -20.846  -9.763  -3.485  1.00  0.00     0.004 C 
BRANCH  18  19
HETATM   19  C   UNL     1     -21.826 -10.733  -4.141  1.00  0.00     0.027 C 
BRANCH  19  20
HETATM   20  C   UNL     1     -22.864 -11.184  -3.157  1.00  0.00    -0.030 C 
HETATM   21  C   UNL     1     -22.654 -11.259  -1.833  1.00  0.00    -0.027 C 
BRANCH  21  22
HETATM   22  C   UNL     1     -23.693 -11.722  -0.845  1.00  0.00    -0.001 C 
HETATM   23  C   UNL     1     -23.122 -12.839   0.028  1.00  0.00     0.013 C 
HETATM   24  C   UNL     1     -24.162 -10.551   0.016  1.00  0.00     0.013 C 
ENDBRANCH  21  22
ENDBRANCH  19  20
ENDBRANCH  18  19
ENDBRANCH  17  18
ENDBRANCH  16  17
ENDBRANCH   2  16
TORSDOF 10
ENDMDL
