REMARK  9 active torsions:
REMARK  status: ('A' for Active; 'I' for Inactive)
REMARK    1  A    between atoms: C_2  and  C_3 
REMARK    2  A    between atoms: C_3  and  C_4 
REMARK    3  A    between atoms: C_7  and  C_8 
REMARK    4  A    between atoms: C_14  and  C_15 
REMARK    5  A    between atoms: C_16  and  C_17 
REMARK       I    between atoms: C_17  and  N_19 
REMARK    6  A    between atoms: N_19  and  C_20 
REMARK    7  A    between atoms: C_20  and  C_22 
REMARK    8  A    between atoms: C_26  and  N_27 
REMARK    9  A    between atoms: N_27  and  S_28 
ROOT
HETATM    1  C   UNL     1       4.275  -4.235   1.337  1.00  0.00     0.241 C 
HETATM    2  O   UNL     1       3.059  -4.171   1.425  1.00  0.00    -0.269 OA
HETATM    3  N   UNL     1       4.981  -5.411   1.239  1.00  0.00    -0.349 N 
HETATM    4  H   UNL     1       5.989  -5.390   1.188  1.00  0.00     0.163 HD
ENDROOT
BRANCH   1   5
HETATM    5  C   UNL     1       5.143  -3.025   1.286  1.00  0.00     0.075 C 
HETATM    6  C   UNL     1       4.578  -1.810   1.338  1.00  0.00     0.019 C 
BRANCH   6   7
HETATM    7  C   UNL     1       5.284  -0.514   1.234  1.00  0.00    -0.013 A 
HETATM    8  C   UNL     1       4.666   0.633   0.702  1.00  0.00     0.019 A 
HETATM    9  N   UNL     1       5.282   1.850   0.652  1.00  0.00    -0.355 N 
HETATM   10  C   UNL     1       6.551   1.973   1.121  1.00  0.00     0.117 A 
ATOM     11  HN  UNL     1       4.795   2.659   0.266  1.00  0.00     0.166 HD
HETATM   12  C   UNL     1       7.237   0.878   1.645  1.00  0.00     0.035 A 
HETATM   13  C   UNL     1       6.593  -0.360   1.708  1.00  0.00     0.015 A 
BRANCH   8  14
HETATM   14  C   UNL     1       3.271   0.614   0.117  1.00  0.00     0.057 C 
BRANCH  14  15
HETATM   15  C   UNL     1       2.198   0.955   1.152  1.00  0.00     0.002 C 
HETATM   16  C   UNL     1       0.808   0.915   0.534  1.00  0.00     0.005 C 
ENDBRANCH  14  15
ENDBRANCH   8  14
BRANCH  10  17
HETATM   17  C   UNL     1       7.246   3.328   1.078  1.00  0.00     0.432 C 
HETATM   18  F   UNL     1       6.488   4.340   0.569  1.00  0.00    -0.165 F 
HETATM   19  F   UNL     1       7.641   3.749   2.317  1.00  0.00    -0.165 F 
HETATM   20  F   UNL     1       8.387   3.305   0.326  1.00  0.00    -0.165 F 
ENDBRANCH  10  17
ENDBRANCH   6   7
ENDBRANCH   1   5
BRANCH   3  21
HETATM   21  C   UNL     1       4.310  -6.699   1.130  1.00  0.00     0.114 C 
HETATM   22  C   UNL     1       5.131  -7.662   0.272  1.00  0.00     0.037 C 
BRANCH  21  23
HETATM   23  C   UNL     1       3.998  -7.298   2.493  1.00  0.00    -0.030 A 
HETATM   24  C   UNL     1       2.663  -7.583   2.829  1.00  0.00     0.053 A 
HETATM   25  C   UNL     1       2.335  -8.108   4.082  1.00  0.00     0.142 A 
HETATM   26  F   UNL     1       1.043  -8.339   4.363  1.00  0.00    -0.204 F 
HETATM   27  C   UNL     1       3.312  -8.319   5.050  1.00  0.00     0.099 A 
HETATM   28  C   UNL     1       4.645  -8.096   4.700  1.00  0.00     0.142 A 
HETATM   29  F   UNL     1       5.617  -8.309   5.600  1.00  0.00    -0.204 F 
HETATM   30  C   UNL     1       4.993  -7.589   3.441  1.00  0.00     0.053 A 
BRANCH  27  31
HETATM   31  N   UNL     1       2.946  -8.680   6.393  1.00  0.00    -0.180 NA
HETATM   32  H   UNL     1       3.487  -8.200   7.117  1.00  0.00     0.146 HD
BRANCH  31  33
HETATM   33  S   UNL     1       2.816 -10.306   6.799  1.00  0.00     0.210 S 
HETATM   34  C   UNL     1       1.063 -10.586   6.655  1.00  0.00     0.180 C 
HETATM   35  O   UNL     1       3.511 -11.117   5.825  1.00  0.00    -0.211 OA
HETATM   36  O   UNL     1       3.143 -10.370   8.208  1.00  0.00    -0.211 OA
ENDBRANCH  31  33
ENDBRANCH  27  31
ENDBRANCH  21  23
ENDBRANCH   3  21
TORSDOF 9
