MODEL 1
REMARK VINA RESULT:      -8.6      0.000      0.000
REMARK  9 active torsions:
REMARK  status: ('A' for Active; 'I' for Inactive)
REMARK    1  A    between atoms: C_2  and  C_3 
REMARK    2  A    between atoms: C_3  and  C_4 
REMARK    3  A    between atoms: C_7  and  C_8 
REMARK    4  A    between atoms: C_14  and  C_15 
REMARK    5  A    between atoms: C_16  and  C_17 
REMARK       I    between atoms: C_17  and  N_19 
REMARK    6  A    between atoms: N_19  and  C_20 
REMARK    7  A    between atoms: C_20  and  C_22 
REMARK    8  A    between atoms: C_26  and  N_27 
REMARK    9  A    between atoms: N_27  and  S_28 
ROOT
HETATM    1  C   UNL     1     -34.006  -4.495 -14.893  1.00  0.00     0.241 C 
HETATM    2  O   UNL     1     -34.854  -5.145 -15.484  1.00  0.00    -0.269 OA
HETATM    3  N   UNL     1     -32.760  -4.210 -15.401  1.00  0.00    -0.349 N 
HETATM    4  H   UNL     1     -32.100  -3.682 -14.849  1.00  0.00     0.163 HD
ENDROOT
BRANCH   1   5
HETATM    5  C   UNL     1     -34.242  -3.894 -13.551  1.00  0.00     0.075 C 
HETATM    6  C   UNL     1     -35.052  -2.830 -13.441  1.00  0.00     0.019 C 
BRANCH   6   7
HETATM    7  C   UNL     1     -35.341  -2.077 -12.201  1.00  0.00    -0.013 A 
HETATM    8  C   UNL     1     -35.987  -0.827 -12.220  1.00  0.00     0.019 A 
HETATM    9  N   UNL     1     -36.314  -0.146 -11.083  1.00  0.00    -0.355 N 
HETATM   10  C   UNL     1     -35.997  -0.679  -9.874  1.00  0.00     0.117 A 
ATOM     11  HN  UNL     1     -36.790   0.754 -11.140  1.00  0.00     0.166 HD
HETATM   12  C   UNL     1     -35.339  -1.904  -9.774  1.00  0.00     0.035 A 
HETATM   13  C   UNL     1     -35.023  -2.602 -10.942  1.00  0.00     0.015 A 
BRANCH   8  14
HETATM   14  C   UNL     1     -36.358  -0.116 -13.502  1.00  0.00     0.057 C 
BRANCH  14  15
HETATM   15  C   UNL     1     -35.240   0.796 -14.009  1.00  0.00     0.002 C 
HETATM   16  C   UNL     1     -35.483   1.210 -15.453  1.00  0.00     0.005 C 
ENDBRANCH  14  15
ENDBRANCH   8  14
BRANCH  10  17
HETATM   17  C   UNL     1     -36.364   0.068  -8.598  1.00  0.00     0.432 C 
HETATM   18  F   UNL     1     -35.375   0.113  -7.661  1.00  0.00    -0.165 F 
HETATM   19  F   UNL     1     -36.705   1.370  -8.838  1.00  0.00    -0.165 F 
HETATM   20  F   UNL     1     -37.447  -0.477  -7.967  1.00  0.00    -0.165 F 
ENDBRANCH  10  17
ENDBRANCH   6   7
ENDBRANCH   1   5
BRANCH   3  21
HETATM   21  C   UNL     1     -32.382  -4.587 -16.756  1.00  0.00     0.114 C 
HETATM   22  C   UNL     1     -32.595  -3.418 -17.718  1.00  0.00     0.037 C 
BRANCH  21  23
HETATM   23  C   UNL     1     -30.956  -5.112 -16.827  1.00  0.00    -0.030 A 
HETATM   24  C   UNL     1     -29.888  -4.197 -16.861  1.00  0.00     0.053 A 
HETATM   25  C   UNL     1     -28.566  -4.641 -16.953  1.00  0.00     0.142 A 
HETATM   26  F   UNL     1     -27.585  -3.728 -17.009  1.00  0.00    -0.204 F 
HETATM   27  C   UNL     1     -28.270  -5.997 -17.063  1.00  0.00     0.099 A 
HETATM   28  C   UNL     1     -29.321  -6.910 -16.967  1.00  0.00     0.142 A 
HETATM   29  F   UNL     1     -29.072  -8.226 -17.046  1.00  0.00    -0.204 F 
HETATM   30  C   UNL     1     -30.651  -6.483 -16.853  1.00  0.00     0.053 A 
BRANCH  27  31
HETATM   31  N   UNL     1     -26.929  -6.432 -17.345  1.00  0.00    -0.180 NA
HETATM   32  H   UNL     1     -26.876  -7.246 -17.963  1.00  0.00     0.146 HD
BRANCH  31  33
HETATM   33  S   UNL     1     -25.850  -6.643 -16.073  1.00  0.00     0.210 S 
HETATM   34  C   UNL     1     -24.514  -7.519 -16.861  1.00  0.00     0.180 C 
HETATM   35  O   UNL     1     -25.373  -5.359 -15.611  1.00  0.00    -0.211 OA
HETATM   36  O   UNL     1     -26.501  -7.575 -15.177  1.00  0.00    -0.211 OA
ENDBRANCH  31  33
ENDBRANCH  27  31
ENDBRANCH  21  23
ENDBRANCH   3  21
TORSDOF 9
ENDMDL
MODEL 2
REMARK VINA RESULT:      -8.2     13.281     18.790
REMARK  9 active torsions:
REMARK  status: ('A' for Active; 'I' for Inactive)
REMARK    1  A    between atoms: C_2  and  C_3 
REMARK    2  A    between atoms: C_3  and  C_4 
REMARK    3  A    between atoms: C_7  and  C_8 
REMARK    4  A    between atoms: C_14  and  C_15 
REMARK    5  A    between atoms: C_16  and  C_17 
REMARK       I    between atoms: C_17  and  N_19 
REMARK    6  A    between atoms: N_19  and  C_20 
REMARK    7  A    between atoms: C_20  and  C_22 
REMARK    8  A    between atoms: C_26  and  N_27 
REMARK    9  A    between atoms: N_27  and  S_28 
ROOT
HETATM    1  C   UNL     1     -20.479  -9.156  -4.715  1.00  0.00     0.241 C 
HETATM    2  O   UNL     1     -21.569  -9.614  -5.020  1.00  0.00    -0.269 OA
HETATM    3  N   UNL     1     -20.253  -7.833  -4.416  1.00  0.00    -0.349 N 
HETATM    4  H   UNL     1     -19.321  -7.521  -4.190  1.00  0.00     0.163 HD
ENDROOT
BRANCH   1   5
HETATM    5  C   UNL     1     -19.258 -10.001  -4.593  1.00  0.00     0.075 C 
HETATM    6  C   UNL     1     -18.421 -10.098  -5.636  1.00  0.00     0.019 C 
BRANCH   6   7
HETATM    7  C   UNL     1     -17.206 -10.939  -5.704  1.00  0.00    -0.013 A 
HETATM    8  C   UNL     1     -17.198 -12.189  -6.351  1.00  0.00     0.019 A 
HETATM    9  N   UNL     1     -16.072 -12.952  -6.474  1.00  0.00    -0.355 N 
HETATM   10  C   UNL     1     -14.904 -12.504  -5.944  1.00  0.00     0.117 A 
ATOM     11  HN  UNL     1     -16.108 -13.849  -6.958  1.00  0.00     0.166 HD
HETATM   12  C   UNL     1     -14.836 -11.285  -5.272  1.00  0.00     0.035 A 
HETATM   13  C   UNL     1     -15.989 -10.503  -5.165  1.00  0.00     0.015 A 
BRANCH   8  14
HETATM   14  C   UNL     1     -18.442 -12.810  -6.947  1.00  0.00     0.057 C 
BRANCH  14  15
HETATM   15  C   UNL     1     -18.512 -12.636  -8.465  1.00  0.00     0.002 C 
HETATM   16  C   UNL     1     -18.504 -13.984  -9.171  1.00  0.00     0.005 C 
ENDBRANCH  14  15
ENDBRANCH   8  14
BRANCH  10  17
HETATM   17  C   UNL     1     -13.640 -13.343  -6.083  1.00  0.00     0.432 C 
HETATM   18  F   UNL     1     -12.705 -12.826  -6.929  1.00  0.00    -0.165 F 
HETATM   19  F   UNL     1     -13.000 -13.520  -4.888  1.00  0.00    -0.165 F 
HETATM   20  F   UNL     1     -13.898 -14.604  -6.542  1.00  0.00    -0.165 F 
ENDBRANCH  10  17
ENDBRANCH   6   7
ENDBRANCH   1   5
BRANCH   3  21
HETATM   21  C   UNL     1     -21.343  -6.870  -4.342  1.00  0.00     0.114 C 
HETATM   22  C   UNL     1     -21.330  -6.147  -2.994  1.00  0.00     0.037 C 
BRANCH  21  23
HETATM   23  C   UNL     1     -21.315  -5.885  -5.500  1.00  0.00    -0.030 A 
HETATM   24  C   UNL     1     -22.527  -5.470  -6.079  1.00  0.00     0.053 A 
HETATM   25  C   UNL     1     -22.540  -4.588  -7.163  1.00  0.00     0.142 A 
HETATM   26  F   UNL     1     -23.722  -4.242  -7.696  1.00  0.00    -0.204 F 
HETATM   27  C   UNL     1     -21.354  -4.132  -7.731  1.00  0.00     0.099 A 
HETATM   28  C   UNL     1     -20.151  -4.491  -7.122  1.00  0.00     0.142 A 
HETATM   29  F   UNL     1     -18.988  -4.053  -7.628  1.00  0.00    -0.204 F 
HETATM   30  C   UNL     1     -20.121  -5.358  -6.022  1.00  0.00     0.053 A 
BRANCH  27  31
HETATM   31  N   UNL     1     -21.372  -3.378  -8.956  1.00  0.00    -0.180 NA
HETATM   32  H   UNL     1     -22.129  -2.692  -9.013  1.00  0.00     0.146 HD
BRANCH  31  33
HETATM   33  S   UNL     1     -21.264  -4.193 -10.422  1.00  0.00     0.210 S 
HETATM   34  C   UNL     1     -21.202  -2.849 -11.590  1.00  0.00     0.180 C 
HETATM   35  O   UNL     1     -20.027  -4.938 -10.485  1.00  0.00    -0.211 OA
HETATM   36  O   UNL     1     -22.547  -4.842 -10.588  1.00  0.00    -0.211 OA
ENDBRANCH  31  33
ENDBRANCH  27  31
ENDBRANCH  21  23
ENDBRANCH   3  21
TORSDOF 9
ENDMDL
MODEL 3
REMARK VINA RESULT:      -8.2     13.875     19.085
REMARK  9 active torsions:
REMARK  status: ('A' for Active; 'I' for Inactive)
REMARK    1  A    between atoms: C_2  and  C_3 
REMARK    2  A    between atoms: C_3  and  C_4 
REMARK    3  A    between atoms: C_7  and  C_8 
REMARK    4  A    between atoms: C_14  and  C_15 
REMARK    5  A    between atoms: C_16  and  C_17 
REMARK       I    between atoms: C_17  and  N_19 
REMARK    6  A    between atoms: N_19  and  C_20 
REMARK    7  A    between atoms: C_20  and  C_22 
REMARK    8  A    between atoms: C_26  and  N_27 
REMARK    9  A    between atoms: N_27  and  S_28 
ROOT
HETATM    1  C   UNL     1     -20.758  -9.330  -4.362  1.00  0.00     0.241 C 
HETATM    2  O   UNL     1     -21.885  -9.725  -4.106  1.00  0.00    -0.269 OA
HETATM    3  N   UNL     1     -20.429  -8.010  -4.559  1.00  0.00    -0.349 N 
HETATM    4  H   UNL     1     -19.478  -7.757  -4.786  1.00  0.00     0.163 HD
ENDROOT
BRANCH   1   5
HETATM    5  C   UNL     1     -19.587 -10.246  -4.454  1.00  0.00     0.075 C 
HETATM    6  C   UNL     1     -18.458  -9.812  -5.034  1.00  0.00     0.019 C 
BRANCH   6   7
HETATM    7  C   UNL     1     -17.233 -10.608  -5.265  1.00  0.00    -0.013 A 
HETATM    8  C   UNL     1     -16.237 -10.748  -4.280  1.00  0.00     0.019 A 
HETATM    9  N   UNL     1     -15.129 -11.526  -4.454  1.00  0.00    -0.355 N 
HETATM   10  C   UNL     1     -14.959 -12.189  -5.628  1.00  0.00     0.117 A 
ATOM     11  HN  UNL     1     -14.434 -11.607  -3.711  1.00  0.00     0.166 HD
HETATM   12  C   UNL     1     -15.892 -12.084  -6.659  1.00  0.00     0.035 A 
HETATM   13  C   UNL     1     -17.032 -11.300  -6.466  1.00  0.00     0.015 A 
BRANCH   8  14
HETATM   14  C   UNL     1     -16.296 -10.032  -2.949  1.00  0.00     0.057 C 
BRANCH  14  15
HETATM   15  C   UNL     1     -15.652 -10.840  -1.821  1.00  0.00     0.002 C 
HETATM   16  C   UNL     1     -16.706 -11.558  -0.991  1.00  0.00     0.005 C 
ENDBRANCH  14  15
ENDBRANCH   8  14
BRANCH  10  17
HETATM   17  C   UNL     1     -13.730 -13.066  -5.831  1.00  0.00     0.432 C 
HETATM   18  F   UNL     1     -12.950 -13.217  -4.723  1.00  0.00    -0.165 F 
HETATM   19  F   UNL     1     -14.055 -14.332  -6.229  1.00  0.00    -0.165 F 
HETATM   20  F   UNL     1     -12.901 -12.584  -6.805  1.00  0.00    -0.165 F 
ENDBRANCH  10  17
ENDBRANCH   6   7
ENDBRANCH   1   5
BRANCH   3  21
HETATM   21  C   UNL     1     -21.403  -6.943  -4.374  1.00  0.00     0.114 C 
HETATM   22  C   UNL     1     -21.199  -6.257  -3.023  1.00  0.00     0.037 C 
BRANCH  21  23
HETATM   23  C   UNL     1     -21.374  -5.939  -5.516  1.00  0.00    -0.030 A 
HETATM   24  C   UNL     1     -22.585  -5.521  -6.095  1.00  0.00     0.053 A 
HETATM   25  C   UNL     1     -22.597  -4.621  -7.164  1.00  0.00     0.142 A 
HETATM   26  F   UNL     1     -23.779  -4.273  -7.697  1.00  0.00    -0.204 F 
HETATM   27  C   UNL     1     -21.411  -4.150  -7.718  1.00  0.00     0.099 A 
HETATM   28  C   UNL     1     -20.209  -4.513  -7.109  1.00  0.00     0.142 A 
HETATM   29  F   UNL     1     -19.046  -4.061  -7.602  1.00  0.00    -0.204 F 
HETATM   30  C   UNL     1     -20.180  -5.399  -6.023  1.00  0.00     0.053 A 
BRANCH  27  31
HETATM   31  N   UNL     1     -21.427  -3.376  -8.931  1.00  0.00    -0.180 NA
HETATM   32  H   UNL     1     -22.186  -2.692  -8.980  1.00  0.00     0.146 HD
BRANCH  31  33
HETATM   33  S   UNL     1     -21.308  -4.167 -10.410  1.00  0.00     0.210 S 
HETATM   34  C   UNL     1     -21.234  -2.804 -11.554  1.00  0.00     0.180 C 
HETATM   35  O   UNL     1     -20.072  -4.913 -10.475  1.00  0.00    -0.211 OA
HETATM   36  O   UNL     1     -22.592  -4.810 -10.597  1.00  0.00    -0.211 OA
ENDBRANCH  31  33
ENDBRANCH  27  31
ENDBRANCH  21  23
ENDBRANCH   3  21
TORSDOF 9
ENDMDL
MODEL 4
REMARK VINA RESULT:      -8.1     13.998     18.858
REMARK  9 active torsions:
REMARK  status: ('A' for Active; 'I' for Inactive)
REMARK    1  A    between atoms: C_2  and  C_3 
REMARK    2  A    between atoms: C_3  and  C_4 
REMARK    3  A    between atoms: C_7  and  C_8 
REMARK    4  A    between atoms: C_14  and  C_15 
REMARK    5  A    between atoms: C_16  and  C_17 
REMARK       I    between atoms: C_17  and  N_19 
REMARK    6  A    between atoms: N_19  and  C_20 
REMARK    7  A    between atoms: C_20  and  C_22 
REMARK    8  A    between atoms: C_26  and  N_27 
REMARK    9  A    between atoms: N_27  and  S_28 
ROOT
HETATM    1  C   UNL     1     -20.724  -8.857  -2.943  1.00  0.00     0.241 C 
HETATM    2  O   UNL     1     -21.545  -8.878  -2.040  1.00  0.00    -0.269 OA
HETATM    3  N   UNL     1     -20.717  -7.931  -3.960  1.00  0.00    -0.349 N 
HETATM    4  H   UNL     1     -20.017  -7.986  -4.685  1.00  0.00     0.163 HD
ENDROOT
BRANCH   1   5
HETATM    5  C   UNL     1     -19.594  -9.826  -3.025  1.00  0.00     0.075 C 
HETATM    6  C   UNL     1     -18.411  -9.414  -3.504  1.00  0.00     0.019 C 
BRANCH   6   7
HETATM    7  C   UNL     1     -17.213 -10.257  -3.712  1.00  0.00    -0.013 A 
HETATM    8  C   UNL     1     -16.801 -10.665  -4.994  1.00  0.00     0.019 A 
HETATM    9  N   UNL     1     -15.667 -11.394  -5.210  1.00  0.00    -0.355 N 
HETATM   10  C   UNL     1     -14.898 -11.758  -4.151  1.00  0.00     0.117 A 
ATOM     11  HN  UNL     1     -15.399 -11.662  -6.157  1.00  0.00     0.166 HD
HETATM   12  C   UNL     1     -15.251 -11.408  -2.848  1.00  0.00     0.035 A 
HETATM   13  C   UNL     1     -16.404 -10.648  -2.638  1.00  0.00     0.015 A 
BRANCH   8  14
HETATM   14  C   UNL     1     -17.591 -10.353  -6.246  1.00  0.00     0.057 C 
BRANCH  14  15
HETATM   15  C   UNL     1     -18.249 -11.595  -6.848  1.00  0.00     0.002 C 
HETATM   16  C   UNL     1     -19.579 -11.893  -6.170  1.00  0.00     0.005 C 
ENDBRANCH  14  15
ENDBRANCH   8  14
BRANCH  10  17
HETATM   17  C   UNL     1     -13.626 -12.564  -4.380  1.00  0.00     0.432 C 
HETATM   18  F   UNL     1     -12.850 -12.729  -3.272  1.00  0.00    -0.165 F 
HETATM   19  F   UNL     1     -13.885 -13.824  -4.842  1.00  0.00    -0.165 F 
HETATM   20  F   UNL     1     -12.812 -11.997  -5.321  1.00  0.00    -0.165 F 
ENDBRANCH  10  17
ENDBRANCH   6   7
ENDBRANCH   1   5
BRANCH   3  21
HETATM   21  C   UNL     1     -21.653  -6.816  -3.984  1.00  0.00     0.114 C 
HETATM   22  C   UNL     1     -21.436  -5.905  -2.776  1.00  0.00     0.037 C 
BRANCH  21  23
HETATM   23  C   UNL     1     -21.578  -6.036  -5.288  1.00  0.00    -0.030 A 
HETATM   24  C   UNL     1     -20.322  -5.785  -5.868  1.00  0.00     0.053 A 
HETATM   25  C   UNL     1     -20.211  -5.049  -7.051  1.00  0.00     0.142 A 
HETATM   26  F   UNL     1     -18.988  -4.816  -7.550  1.00  0.00    -0.204 F 
HETATM   27  C   UNL     1     -21.335  -4.502  -7.663  1.00  0.00     0.099 A 
HETATM   28  C   UNL     1     -22.588  -4.799  -7.126  1.00  0.00     0.142 A 
HETATM   29  F   UNL     1     -23.696  -4.307  -7.701  1.00  0.00    -0.204 F 
HETATM   30  C   UNL     1     -22.718  -5.553  -5.952  1.00  0.00     0.053 A 
BRANCH  27  31
HETATM   31  N   UNL     1     -21.196  -3.593  -8.768  1.00  0.00    -0.180 NA
HETATM   32  H   UNL     1     -21.838  -2.796  -8.738  1.00  0.00     0.146 HD
BRANCH  31  33
HETATM   33  S   UNL     1     -21.162  -4.204 -10.334  1.00  0.00     0.210 S 
HETATM   34  C   UNL     1     -21.132  -2.717 -11.313  1.00  0.00     0.180 C 
HETATM   35  O   UNL     1     -19.940  -4.944 -10.551  1.00  0.00    -0.211 OA
HETATM   36  O   UNL     1     -22.461  -4.815 -10.528  1.00  0.00    -0.211 OA
ENDBRANCH  31  33
ENDBRANCH  27  31
ENDBRANCH  21  23
ENDBRANCH   3  21
TORSDOF 9
ENDMDL
MODEL 5
REMARK VINA RESULT:      -8.1     22.020     24.968
REMARK  9 active torsions:
REMARK  status: ('A' for Active; 'I' for Inactive)
REMARK    1  A    between atoms: C_2  and  C_3 
REMARK    2  A    between atoms: C_3  and  C_4 
REMARK    3  A    between atoms: C_7  and  C_8 
REMARK    4  A    between atoms: C_14  and  C_15 
REMARK    5  A    between atoms: C_16  and  C_17 
REMARK       I    between atoms: C_17  and  N_19 
REMARK    6  A    between atoms: N_19  and  C_20 
REMARK    7  A    between atoms: C_20  and  C_22 
REMARK    8  A    between atoms: C_26  and  N_27 
REMARK    9  A    between atoms: N_27  and  S_28 
ROOT
HETATM    1  C   UNL     1     -21.671   9.193   4.242  1.00  0.00     0.241 C 
HETATM    2  O   UNL     1     -22.472   9.437   5.131  1.00  0.00    -0.269 OA
HETATM    3  N   UNL     1     -21.957   9.283   2.900  1.00  0.00    -0.349 N 
HETATM    4  H   UNL     1     -21.250   9.048   2.218  1.00  0.00     0.163 HD
ENDROOT
BRANCH   1   5
HETATM    5  C   UNL     1     -20.260   8.801   4.515  1.00  0.00     0.075 C 
HETATM    6  C   UNL     1     -19.368   9.747   4.842  1.00  0.00     0.019 C 
BRANCH   6   7
HETATM    7  C   UNL     1     -17.923   9.540   5.080  1.00  0.00    -0.013 A 
HETATM    8  C   UNL     1     -17.012   9.349   4.024  1.00  0.00     0.019 A 
HETATM    9  N   UNL     1     -15.668   9.214   4.222  1.00  0.00    -0.355 N 
HETATM   10  C   UNL     1     -15.174   9.251   5.487  1.00  0.00     0.117 A 
ATOM     11  HN  UNL     1     -15.041   9.087   3.427  1.00  0.00     0.166 HD
HETATM   12  C   UNL     1     -16.016   9.416   6.586  1.00  0.00     0.035 A 
HETATM   13  C   UNL     1     -17.388   9.571   6.374  1.00  0.00     0.015 A 
BRANCH   8  14
HETATM   14  C   UNL     1     -17.444   9.254   2.578  1.00  0.00     0.057 C 
BRANCH  14  15
HETATM   15  C   UNL     1     -17.386  10.604   1.860  1.00  0.00     0.002 C 
HETATM   16  C   UNL     1     -18.774  11.057   1.433  1.00  0.00     0.005 C 
ENDBRANCH  14  15
ENDBRANCH   8  14
BRANCH  10  17
HETATM   17  C   UNL     1     -13.675   9.110   5.719  1.00  0.00     0.432 C 
HETATM   18  F   UNL     1     -13.305   7.967   6.363  1.00  0.00    -0.165 F 
HETATM   19  F   UNL     1     -12.965   9.122   4.551  1.00  0.00    -0.165 F 
HETATM   20  F   UNL     1     -13.164  10.137   6.461  1.00  0.00    -0.165 F 
ENDBRANCH  10  17
ENDBRANCH   6   7
ENDBRANCH   1   5
BRANCH   3  21
HETATM   21  C   UNL     1     -23.238   9.785   2.422  1.00  0.00     0.114 C 
HETATM   22  C   UNL     1     -23.134  11.266   2.059  1.00  0.00     0.037 C 
BRANCH  21  23
HETATM   23  C   UNL     1     -23.776   8.965   1.260  1.00  0.00    -0.030 A 
HETATM   24  C   UNL     1     -22.873   8.299   0.412  1.00  0.00     0.053 A 
HETATM   25  C   UNL     1     -23.328   7.559  -0.682  1.00  0.00     0.142 A 
HETATM   26  F   UNL     1     -22.423   6.963  -1.475  1.00  0.00    -0.204 F 
HETATM   27  C   UNL     1     -24.683   7.497  -0.994  1.00  0.00     0.099 A 
HETATM   28  C   UNL     1     -25.587   8.104  -0.121  1.00  0.00     0.142 A 
HETATM   29  F   UNL     1     -26.903   8.048  -0.376  1.00  0.00    -0.204 F 
HETATM   30  C   UNL     1     -25.149   8.834   0.993  1.00  0.00     0.053 A 
BRANCH  27  31
HETATM   31  N   UNL     1     -25.125   6.893  -2.221  1.00  0.00    -0.180 NA
HETATM   32  H   UNL     1     -24.664   6.005  -2.440  1.00  0.00     0.146 HD
BRANCH  31  33
HETATM   33  S   UNL     1     -25.195   7.827  -3.617  1.00  0.00     0.210 S 
HETATM   34  C   UNL     1     -26.106   6.771  -4.725  1.00  0.00     0.180 C 
HETATM   35  O   UNL     1     -25.957   9.030  -3.369  1.00  0.00    -0.211 OA
HETATM   36  O   UNL     1     -23.833   7.882  -4.103  1.00  0.00    -0.211 OA
ENDBRANCH  31  33
ENDBRANCH  27  31
ENDBRANCH  21  23
ENDBRANCH   3  21
TORSDOF 9
ENDMDL
MODEL 6
REMARK VINA RESULT:      -8.0     17.863     21.810
REMARK  9 active torsions:
REMARK  status: ('A' for Active; 'I' for Inactive)
REMARK    1  A    between atoms: C_2  and  C_3 
REMARK    2  A    between atoms: C_3  and  C_4 
REMARK    3  A    between atoms: C_7  and  C_8 
REMARK    4  A    between atoms: C_14  and  C_15 
REMARK    5  A    between atoms: C_16  and  C_17 
REMARK       I    between atoms: C_17  and  N_19 
REMARK    6  A    between atoms: N_19  and  C_20 
REMARK    7  A    between atoms: C_20  and  C_22 
REMARK    8  A    between atoms: C_26  and  N_27 
REMARK    9  A    between atoms: N_27  and  S_28 
ROOT
HETATM    1  C   UNL     1     -20.476 -11.850  -0.201  1.00  0.00     0.241 C 
HETATM    2  O   UNL     1     -21.558 -12.376  -0.409  1.00  0.00    -0.269 OA
HETATM    3  N   UNL     1     -20.282 -10.491  -0.115  1.00  0.00    -0.349 N 
HETATM    4  H   UNL     1     -19.355 -10.124   0.041  1.00  0.00     0.163 HD
ENDROOT
BRANCH   1   5
HETATM    5  C   UNL     1     -19.230 -12.634   0.025  1.00  0.00     0.075 C 
HETATM    6  C   UNL     1     -18.067 -11.986   0.188  1.00  0.00     0.019 C 
BRANCH   6   7
HETATM    7  C   UNL     1     -16.736 -12.610   0.356  1.00  0.00    -0.013 A 
HETATM    8  C   UNL     1     -15.825 -12.726  -0.711  1.00  0.00     0.019 A 
HETATM    9  N   UNL     1     -14.572 -13.245  -0.561  1.00  0.00    -0.355 N 
HETATM   10  C   UNL     1     -14.176 -13.684   0.662  1.00  0.00     0.117 A 
ATOM     11  HN  UNL     1     -13.939 -13.303  -1.359  1.00  0.00     0.166 HD
HETATM   12  C   UNL     1     -15.028 -13.621   1.764  1.00  0.00     0.035 A 
HETATM   13  C   UNL     1     -16.303 -13.073   1.605  1.00  0.00     0.015 A 
BRANCH   8  14
HETATM   14  C   UNL     1     -16.163 -12.306  -2.124  1.00  0.00     0.057 C 
BRANCH  14  15
HETATM   15  C   UNL     1     -15.604 -10.926  -2.474  1.00  0.00     0.002 C 
HETATM   16  C   UNL     1     -16.724  -9.921  -2.700  1.00  0.00     0.005 C 
ENDBRANCH  14  15
ENDBRANCH   8  14
BRANCH  10  17
HETATM   17  C   UNL     1     -12.776 -14.258   0.843  1.00  0.00     0.432 C 
HETATM   18  F   UNL     1     -11.827 -13.343   1.189  1.00  0.00    -0.165 F 
HETATM   19  F   UNL     1     -12.731 -15.222   1.812  1.00  0.00    -0.165 F 
HETATM   20  F   UNL     1     -12.311 -14.866  -0.289  1.00  0.00    -0.165 F 
ENDBRANCH  10  17
ENDBRANCH   6   7
ENDBRANCH   1   5
BRANCH   3  21
HETATM   21  C   UNL     1     -21.397  -9.555  -0.167  1.00  0.00     0.114 C 
HETATM   22  C   UNL     1     -21.352  -8.599   1.025  1.00  0.00     0.037 C 
BRANCH  21  23
HETATM   23  C   UNL     1     -21.445  -8.797  -1.485  1.00  0.00    -0.030 A 
HETATM   24  C   UNL     1     -21.499  -7.393  -1.469  1.00  0.00     0.053 A 
HETATM   25  C   UNL     1     -21.572  -6.664  -2.659  1.00  0.00     0.142 A 
HETATM   26  F   UNL     1     -21.647  -5.325  -2.588  1.00  0.00    -0.204 F 
HETATM   27  C   UNL     1     -21.642  -7.306  -3.891  1.00  0.00     0.099 A 
HETATM   28  C   UNL     1     -21.527  -8.697  -3.916  1.00  0.00     0.142 A 
HETATM   29  F   UNL     1     -21.568  -9.350  -5.088  1.00  0.00    -0.204 F 
HETATM   30  C   UNL     1     -21.432  -9.442  -2.733  1.00  0.00     0.053 A 
BRANCH  27  31
HETATM   31  N   UNL     1     -21.905  -6.560  -5.092  1.00  0.00    -0.180 NA
HETATM   32  H   UNL     1     -22.526  -7.035  -5.752  1.00  0.00     0.146 HD
BRANCH  31  33
HETATM   33  S   UNL     1     -20.618  -5.891  -5.941  1.00  0.00     0.210 S 
HETATM   34  C   UNL     1     -21.416  -5.291  -7.415  1.00  0.00     0.180 C 
HETATM   35  O   UNL     1     -20.067  -4.774  -5.207  1.00  0.00    -0.211 OA
HETATM   36  O   UNL     1     -19.797  -7.019  -6.331  1.00  0.00    -0.211 OA
ENDBRANCH  31  33
ENDBRANCH  27  31
ENDBRANCH  21  23
ENDBRANCH   3  21
TORSDOF 9
ENDMDL
MODEL 7
REMARK VINA RESULT:      -7.9     16.548     19.655
REMARK  9 active torsions:
REMARK  status: ('A' for Active; 'I' for Inactive)
REMARK    1  A    between atoms: C_2  and  C_3 
REMARK    2  A    between atoms: C_3  and  C_4 
REMARK    3  A    between atoms: C_7  and  C_8 
REMARK    4  A    between atoms: C_14  and  C_15 
REMARK    5  A    between atoms: C_16  and  C_17 
REMARK       I    between atoms: C_17  and  N_19 
REMARK    6  A    between atoms: N_19  and  C_20 
REMARK    7  A    between atoms: C_20  and  C_22 
REMARK    8  A    between atoms: C_26  and  N_27 
REMARK    9  A    between atoms: N_27  and  S_28 
ROOT
HETATM    1  C   UNL     1     -22.271  -8.095  -0.633  1.00  0.00     0.241 C 
HETATM    2  O   UNL     1     -22.900  -7.693   0.333  1.00  0.00    -0.269 OA
HETATM    3  N   UNL     1     -21.925  -9.410  -0.836  1.00  0.00    -0.349 N 
HETATM    4  H   UNL     1     -21.386  -9.669  -1.649  1.00  0.00     0.163 HD
ENDROOT
BRANCH   1   5
HETATM    5  C   UNL     1     -21.833  -7.197  -1.738  1.00  0.00     0.075 C 
HETATM    6  C   UNL     1     -21.469  -7.732  -2.912  1.00  0.00     0.019 C 
BRANCH   6   7
HETATM    7  C   UNL     1     -20.950  -6.993  -4.085  1.00  0.00    -0.013 A 
HETATM    8  C   UNL     1     -20.284  -7.642  -5.142  1.00  0.00     0.019 A 
HETATM    9  N   UNL     1     -19.851  -6.985  -6.257  1.00  0.00    -0.355 N 
HETATM   10  C   UNL     1     -20.053  -5.646  -6.361  1.00  0.00     0.117 A 
ATOM     11  HN  UNL     1     -19.380  -7.494  -7.005  1.00  0.00     0.166 HD
HETATM   12  C   UNL     1     -20.687  -4.930  -5.347  1.00  0.00     0.035 A 
HETATM   13  C   UNL     1     -21.143  -5.612  -4.216  1.00  0.00     0.015 A 
BRANCH   8  14
HETATM   14  C   UNL     1     -19.969  -9.121  -5.125  1.00  0.00     0.057 C 
BRANCH  14  15
HETATM   15  C   UNL     1     -18.533  -9.408  -4.686  1.00  0.00     0.002 C 
HETATM   16  C   UNL     1     -18.471  -9.754  -3.205  1.00  0.00     0.005 C 
ENDBRANCH  14  15
ENDBRANCH   8  14
BRANCH  10  17
HETATM   17  C   UNL     1     -19.581  -4.903  -7.605  1.00  0.00     0.432 C 
HETATM   18  F   UNL     1     -19.728  -5.595  -8.770  1.00  0.00    -0.165 F 
HETATM   19  F   UNL     1     -20.245  -3.723  -7.789  1.00  0.00    -0.165 F 
HETATM   20  F   UNL     1     -18.258  -4.564  -7.539  1.00  0.00    -0.165 F 
ENDBRANCH  10  17
ENDBRANCH   6   7
ENDBRANCH   1   5
BRANCH   3  21
HETATM   21  C   UNL     1     -22.378 -10.467   0.058  1.00  0.00     0.114 C 
HETATM   22  C   UNL     1     -23.760 -10.969  -0.362  1.00  0.00     0.037 C 
BRANCH  21  23
HETATM   23  C   UNL     1     -21.377 -11.609   0.148  1.00  0.00    -0.030 A 
HETATM   24  C   UNL     1     -20.014 -11.346  -0.078  1.00  0.00     0.053 A 
HETATM   25  C   UNL     1     -19.069 -12.375  -0.032  1.00  0.00     0.142 A 
HETATM   26  F   UNL     1     -17.784 -12.076  -0.280  1.00  0.00    -0.204 F 
HETATM   27  C   UNL     1     -19.452 -13.693   0.192  1.00  0.00     0.099 A 
HETATM   28  C   UNL     1     -20.795 -13.949   0.478  1.00  0.00     0.142 A 
HETATM   29  F   UNL     1     -21.199 -15.205   0.720  1.00  0.00    -0.204 F 
HETATM   30  C   UNL     1     -21.753 -12.927   0.455  1.00  0.00     0.053 A 
BRANCH  27  31
HETATM   31  N   UNL     1     -18.504 -14.765   0.053  1.00  0.00    -0.180 NA
HETATM   32  H   UNL     1     -18.878 -15.596  -0.412  1.00  0.00     0.146 HD
BRANCH  31  33
HETATM   33  S   UNL     1     -17.609 -15.247   1.392  1.00  0.00     0.210 S 
HETATM   34  C   UNL     1     -16.664 -16.608   0.737  1.00  0.00     0.180 C 
HETATM   35  O   UNL     1     -16.708 -14.190   1.793  1.00  0.00    -0.211 OA
HETATM   36  O   UNL     1     -18.577 -15.805   2.312  1.00  0.00    -0.211 OA
ENDBRANCH  31  33
ENDBRANCH  27  31
ENDBRANCH  21  23
ENDBRANCH   3  21
TORSDOF 9
ENDMDL
MODEL 8
REMARK VINA RESULT:      -7.6     16.262     19.462
REMARK  9 active torsions:
REMARK  status: ('A' for Active; 'I' for Inactive)
REMARK    1  A    between atoms: C_2  and  C_3 
REMARK    2  A    between atoms: C_3  and  C_4 
REMARK    3  A    between atoms: C_7  and  C_8 
REMARK    4  A    between atoms: C_14  and  C_15 
REMARK    5  A    between atoms: C_16  and  C_17 
REMARK       I    between atoms: C_17  and  N_19 
REMARK    6  A    between atoms: N_19  and  C_20 
REMARK    7  A    between atoms: C_20  and  C_22 
REMARK    8  A    between atoms: C_26  and  N_27 
REMARK    9  A    between atoms: N_27  and  S_28 
ROOT
HETATM    1  C   UNL     1     -22.170  -8.013  -0.624  1.00  0.00     0.241 C 
HETATM    2  O   UNL     1     -22.539  -7.580   0.456  1.00  0.00    -0.269 OA
HETATM    3  N   UNL     1     -22.064  -9.351  -0.924  1.00  0.00    -0.349 N 
HETATM    4  H   UNL     1     -21.734  -9.638  -1.834  1.00  0.00     0.163 HD
ENDROOT
BRANCH   1   5
HETATM    5  C   UNL     1     -21.825  -7.127  -1.771  1.00  0.00     0.075 C 
HETATM    6  C   UNL     1     -21.296  -7.665  -2.880  1.00  0.00     0.019 C 
BRANCH   6   7
HETATM    7  C   UNL     1     -20.840  -6.925  -4.077  1.00  0.00    -0.013 A 
HETATM    8  C   UNL     1     -20.271  -7.577  -5.187  1.00  0.00     0.019 A 
HETATM    9  N   UNL     1     -19.898  -6.917  -6.322  1.00  0.00    -0.355 N 
HETATM   10  C   UNL     1     -20.065  -5.571  -6.394  1.00  0.00     0.117 A 
ATOM     11  HN  UNL     1     -19.498  -7.429  -7.108  1.00  0.00     0.166 HD
HETATM   12  C   UNL     1     -20.602  -4.851  -5.327  1.00  0.00     0.035 A 
HETATM   13  C   UNL     1     -20.997  -5.536  -4.176  1.00  0.00     0.015 A 
BRANCH   8  14
HETATM   14  C   UNL     1     -20.003  -9.065  -5.212  1.00  0.00     0.057 C 
BRANCH  14  15
HETATM   15  C   UNL     1     -18.578  -9.410  -4.776  1.00  0.00     0.002 C 
HETATM   16  C   UNL     1     -18.566 -10.049  -3.395  1.00  0.00     0.005 C 
ENDBRANCH  14  15
ENDBRANCH   8  14
BRANCH  10  17
HETATM   17  C   UNL     1     -19.659  -4.824  -7.658  1.00  0.00     0.432 C 
HETATM   18  F   UNL     1     -18.354  -4.435  -7.695  1.00  0.00    -0.165 F 
HETATM   19  F   UNL     1     -19.855  -5.570  -8.787  1.00  0.00    -0.165 F 
HETATM   20  F   UNL     1     -20.391  -3.686  -7.849  1.00  0.00    -0.165 F 
ENDBRANCH  10  17
ENDBRANCH   6   7
ENDBRANCH   1   5
BRANCH   3  21
HETATM   21  C   UNL     1     -22.488 -10.381   0.014  1.00  0.00     0.114 C 
HETATM   22  C   UNL     1     -23.889 -10.884  -0.337  1.00  0.00     0.037 C 
BRANCH  21  23
HETATM   23  C   UNL     1     -21.491 -11.527   0.094  1.00  0.00    -0.030 A 
HETATM   24  C   UNL     1     -21.957 -12.827   0.356  1.00  0.00     0.053 A 
HETATM   25  C   UNL     1     -21.068 -13.900   0.464  1.00  0.00     0.142 A 
HETATM   26  F   UNL     1     -21.561 -15.117   0.740  1.00  0.00    -0.204 F 
HETATM   27  C   UNL     1     -19.693 -13.706   0.363  1.00  0.00     0.099 A 
HETATM   28  C   UNL     1     -19.230 -12.429   0.042  1.00  0.00     0.142 A 
HETATM   29  F   UNL     1     -17.913 -12.208  -0.085  1.00  0.00    -0.204 F 
HETATM   30  C   UNL     1     -20.110 -11.346  -0.090  1.00  0.00     0.053 A 
BRANCH  27  31
HETATM   31  N   UNL     1     -18.780 -14.776   0.661  1.00  0.00    -0.180 NA
HETATM   32  H   UNL     1     -17.902 -14.469   1.088  1.00  0.00     0.146 HD
BRANCH  31  33
HETATM   33  S   UNL     1     -18.439 -15.917  -0.525  1.00  0.00     0.210 S 
HETATM   34  C   UNL     1     -16.803 -16.452  -0.067  1.00  0.00     0.180 C 
HETATM   35  O   UNL     1     -19.353 -17.031  -0.418  1.00  0.00    -0.211 OA
HETATM   36  O   UNL     1     -18.310 -15.159  -1.752  1.00  0.00    -0.211 OA
ENDBRANCH  31  33
ENDBRANCH  27  31
ENDBRANCH  21  23
ENDBRANCH   3  21
TORSDOF 9
ENDMDL
MODEL 9
REMARK VINA RESULT:      -7.6     17.990     22.261
REMARK  9 active torsions:
REMARK  status: ('A' for Active; 'I' for Inactive)
REMARK    1  A    between atoms: C_2  and  C_3 
REMARK    2  A    between atoms: C_3  and  C_4 
REMARK    3  A    between atoms: C_7  and  C_8 
REMARK    4  A    between atoms: C_14  and  C_15 
REMARK    5  A    between atoms: C_16  and  C_17 
REMARK       I    between atoms: C_17  and  N_19 
REMARK    6  A    between atoms: N_19  and  C_20 
REMARK    7  A    between atoms: C_20  and  C_22 
REMARK    8  A    between atoms: C_26  and  N_27 
REMARK    9  A    between atoms: N_27  and  S_28 
ROOT
HETATM    1  C   UNL     1     -20.197 -12.011   0.001  1.00  0.00     0.241 C 
HETATM    2  O   UNL     1     -21.177 -12.475   0.561  1.00  0.00    -0.269 OA
HETATM    3  N   UNL     1     -20.133 -10.738  -0.516  1.00  0.00    -0.349 N 
HETATM    4  H   UNL     1     -19.295 -10.427  -0.984  1.00  0.00     0.163 HD
ENDROOT
BRANCH   1   5
HETATM    5  C   UNL     1     -18.924 -12.770  -0.155  1.00  0.00     0.075 C 
HETATM    6  C   UNL     1     -17.784 -12.101  -0.377  1.00  0.00     0.019 C 
BRANCH   6   7
HETATM    7  C   UNL     1     -16.453 -12.700  -0.618  1.00  0.00    -0.013 A 
HETATM    8  C   UNL     1     -15.672 -13.230   0.426  1.00  0.00     0.019 A 
HETATM    9  N   UNL     1     -14.468 -13.838   0.215  1.00  0.00    -0.355 N 
HETATM   10  C   UNL     1     -13.984 -13.933  -1.051  1.00  0.00     0.117 A 
ATOM     11  HN  UNL     1     -13.937 -14.217   0.999  1.00  0.00     0.166 HD
HETATM   12  C   UNL     1     -14.690 -13.414  -2.136  1.00  0.00     0.035 A 
HETATM   13  C   UNL     1     -15.928 -12.808  -1.912  1.00  0.00     0.015 A 
BRANCH   8  14
HETATM   14  C   UNL     1     -16.087 -13.152   1.879  1.00  0.00     0.057 C 
BRANCH  14  15
HETATM   15  C   UNL     1     -16.259 -14.534   2.512  1.00  0.00     0.002 C 
HETATM   16  C   UNL     1     -15.300 -14.726   3.677  1.00  0.00     0.005 C 
ENDBRANCH  14  15
ENDBRANCH   8  14
BRANCH  10  17
HETATM   17  C   UNL     1     -12.645 -14.616  -1.300  1.00  0.00     0.432 C 
HETATM   18  F   UNL     1     -11.623 -14.168  -0.517  1.00  0.00    -0.165 F 
HETATM   19  F   UNL     1     -12.705 -15.966  -1.093  1.00  0.00    -0.165 F 
HETATM   20  F   UNL     1     -12.217 -14.470  -2.589  1.00  0.00    -0.165 F 
ENDBRANCH  10  17
ENDBRANCH   6   7
ENDBRANCH   1   5
BRANCH   3  21
HETATM   21  C   UNL     1     -21.223  -9.788  -0.344  1.00  0.00     0.114 C 
HETATM   22  C   UNL     1     -21.031  -8.977   0.939  1.00  0.00     0.037 C 
BRANCH  21  23
HETATM   23  C   UNL     1     -21.387  -8.881  -1.554  1.00  0.00    -0.030 A 
HETATM   24  C   UNL     1     -21.522  -7.495  -1.360  1.00  0.00     0.053 A 
HETATM   25  C   UNL     1     -21.702  -6.633  -2.446  1.00  0.00     0.142 A 
HETATM   26  F   UNL     1     -21.852  -5.321  -2.206  1.00  0.00    -0.204 F 
HETATM   27  C   UNL     1     -21.801  -7.125  -3.744  1.00  0.00     0.099 A 
HETATM   28  C   UNL     1     -21.606  -8.492  -3.947  1.00  0.00     0.142 A 
HETATM   29  F   UNL     1     -21.673  -9.000  -5.187  1.00  0.00    -0.204 F 
HETATM   30  C   UNL     1     -21.404  -9.367  -2.871  1.00  0.00     0.053 A 
BRANCH  27  31
HETATM   31  N   UNL     1     -22.173  -6.258  -4.829  1.00  0.00    -0.180 NA
HETATM   32  H   UNL     1     -22.893  -6.644  -5.445  1.00  0.00     0.146 HD
BRANCH  31  33
HETATM   33  S   UNL     1     -20.967  -5.560  -5.771  1.00  0.00     0.210 S 
HETATM   34  C   UNL     1     -21.915  -4.655  -6.977  1.00  0.00     0.180 C 
HETATM   35  O   UNL     1     -20.193  -4.632  -4.977  1.00  0.00    -0.211 OA
HETATM   36  O   UNL     1     -20.342  -6.667  -6.464  1.00  0.00    -0.211 OA
ENDBRANCH  31  33
ENDBRANCH  27  31
ENDBRANCH  21  23
ENDBRANCH   3  21
TORSDOF 9
ENDMDL
