MODEL 1
REMARK VINA RESULT:      -8.5      0.000      0.000
REMARK  6 active torsions:
REMARK  status: ('A' for Active; 'I' for Inactive)
REMARK    1  A    between atoms: C_2  and  N_3 
REMARK    2  A    between atoms: N_3  and  C_4 
REMARK    3  A    between atoms: N_3  and  C_17 
REMARK    4  A    between atoms: C_4  and  C_5 
REMARK    5  A    between atoms: C_5  and  N_6 
REMARK       I    between atoms: N_6  and  C_7 
REMARK       I    between atoms: C_7  and  N_9 
REMARK    6  A    between atoms: N_9  and  C_10 
ROOT
HETATM    1  N   UNL     1     -22.298  -5.722  -5.345  1.00  0.00    -0.341 N 
HETATM    2  C   UNL     1     -21.838  -5.786  -6.641  1.00  0.00     0.320 C 
HETATM    3  O   UNL     1     -21.295  -6.792  -7.091  1.00  0.00    -0.247 OA
HETATM    4  N   UNL     1     -22.004  -4.598  -7.312  1.00  0.00    -0.308 N 
HETATM    5  H   UNL     1     -23.184  -5.244  -5.258  1.00  0.00     0.164 HD
HETATM    6  H   UNL     1     -21.914  -3.780  -6.720  1.00  0.00     0.170 HD
ENDROOT
BRANCH   1   7
HETATM    7  C   UNL     1     -22.098  -6.878  -4.471  1.00  0.00     0.144 C 
BRANCH   7   8
HETATM    8  C   UNL     1     -21.094  -6.613  -3.326  1.00  0.00     0.142 C 
BRANCH   8   9
HETATM    9  N   UNL     1     -20.828  -7.824  -2.529  1.00  0.00    -0.380 N 
BRANCH   9  10
HETATM   10  C   UNL     1     -19.557  -8.560  -2.669  1.00  0.00     0.118 C 
HETATM   11  C   UNL     1     -19.214  -9.130  -4.033  1.00  0.00     0.026 C 
ENDBRANCH   9  10
BRANCH   9  12
HETATM   12  C   UNL     1     -21.738  -8.270  -1.556  1.00  0.00     0.030 A 
HETATM   13  C   UNL     1     -22.236  -7.409  -0.558  1.00  0.00     0.029 A 
HETATM   14  C   UNL     1     -23.124  -7.833   0.436  1.00  0.00     0.003 A 
HETATM   15  C   UNL     1     -23.558  -9.149   0.464  1.00  0.00     0.007 A 
HETATM   16  C   UNL     1     -23.109 -10.040  -0.508  1.00  0.00    -0.060 A 
HETATM   17  C   UNL     1     -23.567 -11.468  -0.505  1.00  0.00     0.048 C 
HETATM   18  C   UNL     1     -22.209  -9.593  -1.499  1.00  0.00     0.036 A 
ENDBRANCH   9  12
ENDBRANCH   8   9
ENDBRANCH   7   8
ENDBRANCH   1   7
BRANCH   4  19
HETATM   19  C   UNL     1     -21.544  -4.446  -8.645  1.00  0.00     0.053 A 
HETATM   20  C   UNL     1     -20.200  -4.684  -8.958  1.00  0.00     0.031 A 
HETATM   21  C   UNL     1     -19.726  -4.490 -10.255  1.00  0.00     0.002 A 
HETATM   22  C   UNL     1     -20.592  -4.054 -11.254  1.00  0.00     0.002 A 
HETATM   23  C   UNL     1     -21.938  -3.827 -10.961  1.00  0.00     0.021 A 
HETATM   24  C   UNL     1     -22.418  -4.037  -9.664  1.00  0.00     0.037 A 
HETATM   25 BR   UNL     1     -24.243  -3.647  -9.307  1.00  0.00    -0.049 Br
ENDBRANCH   4  19
TORSDOF 6
ENDMDL
MODEL 2
REMARK VINA RESULT:      -7.8      1.653      2.014
REMARK  6 active torsions:
REMARK  status: ('A' for Active; 'I' for Inactive)
REMARK    1  A    between atoms: C_2  and  N_3 
REMARK    2  A    between atoms: N_3  and  C_4 
REMARK    3  A    between atoms: N_3  and  C_17 
REMARK    4  A    between atoms: C_4  and  C_5 
REMARK    5  A    between atoms: C_5  and  N_6 
REMARK       I    between atoms: N_6  and  C_7 
REMARK       I    between atoms: C_7  and  N_9 
REMARK    6  A    between atoms: N_9  and  C_10 
ROOT
HETATM    1  N   UNL     1     -21.681  -5.315  -5.394  1.00  0.00    -0.341 N 
HETATM    2  C   UNL     1     -21.548  -5.473  -6.755  1.00  0.00     0.320 C 
HETATM    3  O   UNL     1     -20.975  -6.442  -7.246  1.00  0.00    -0.247 OA
HETATM    4  N   UNL     1     -22.065  -4.409  -7.456  1.00  0.00    -0.308 N 
HETATM    5  H   UNL     1     -22.584  -4.955  -5.119  1.00  0.00     0.164 HD
HETATM    6  H   UNL     1     -21.967  -3.520  -6.977  1.00  0.00     0.170 HD
ENDROOT
BRANCH   1   7
HETATM    7  C   UNL     1     -21.087  -6.317  -4.510  1.00  0.00     0.144 C 
BRANCH   7   8
HETATM    8  C   UNL     1     -22.009  -7.532  -4.255  1.00  0.00     0.142 C 
BRANCH   8   9
HETATM    9  N   UNL     1     -21.363  -8.551  -3.408  1.00  0.00    -0.380 N 
BRANCH   9  10
HETATM   10  C   UNL     1     -20.477  -9.575  -3.995  1.00  0.00     0.118 C 
HETATM   11  C   UNL     1     -20.951 -10.290  -5.247  1.00  0.00     0.026 C 
ENDBRANCH   9  10
BRANCH   9  12
HETATM   12  C   UNL     1     -21.502  -8.531  -2.010  1.00  0.00     0.030 A 
HETATM   13  C   UNL     1     -22.142  -7.468  -1.345  1.00  0.00     0.029 A 
HETATM   14  C   UNL     1     -22.273  -7.412   0.048  1.00  0.00     0.003 A 
HETATM   15  C   UNL     1     -21.771  -8.438   0.833  1.00  0.00     0.007 A 
HETATM   16  C   UNL     1     -21.143  -9.523   0.225  1.00  0.00    -0.060 A 
HETATM   17  C   UNL     1     -20.596 -10.649   1.051  1.00  0.00     0.048 C 
HETATM   18  C   UNL     1     -21.016  -9.556  -1.179  1.00  0.00     0.036 A 
ENDBRANCH   9  12
ENDBRANCH   8   9
ENDBRANCH   7   8
ENDBRANCH   1   7
BRANCH   4  19
HETATM   19  C   UNL     1     -21.977  -4.358  -8.870  1.00  0.00     0.053 A 
HETATM   20  C   UNL     1     -23.108  -4.612  -9.656  1.00  0.00     0.031 A 
HETATM   21  C   UNL     1     -23.023  -4.615 -11.047  1.00  0.00     0.002 A 
HETATM   22  C   UNL     1     -21.804  -4.363 -11.670  1.00  0.00     0.002 A 
HETATM   23  C   UNL     1     -20.670  -4.092 -10.901  1.00  0.00     0.021 A 
HETATM   24  C   UNL     1     -20.758  -4.075  -9.505  1.00  0.00     0.037 A 
HETATM   25 BR   UNL     1     -19.170  -3.768  -8.509  1.00  0.00    -0.049 Br
ENDBRANCH   4  19
TORSDOF 6
ENDMDL
MODEL 3
REMARK VINA RESULT:      -7.5      1.222      2.248
REMARK  6 active torsions:
REMARK  status: ('A' for Active; 'I' for Inactive)
REMARK    1  A    between atoms: C_2  and  N_3 
REMARK    2  A    between atoms: N_3  and  C_4 
REMARK    3  A    between atoms: N_3  and  C_17 
REMARK    4  A    between atoms: C_4  and  C_5 
REMARK    5  A    between atoms: C_5  and  N_6 
REMARK       I    between atoms: N_6  and  C_7 
REMARK       I    between atoms: C_7  and  N_9 
REMARK    6  A    between atoms: N_9  and  C_10 
ROOT
HETATM    1  N   UNL     1     -21.696  -5.606  -5.470  1.00  0.00    -0.341 N 
HETATM    2  C   UNL     1     -21.322  -5.636  -6.794  1.00  0.00     0.320 C 
HETATM    3  O   UNL     1     -20.477  -6.423  -7.216  1.00  0.00    -0.247 OA
HETATM    4  N   UNL     1     -21.947  -4.661  -7.535  1.00  0.00    -0.308 N 
HETATM    5  H   UNL     1     -22.688  -5.469  -5.338  1.00  0.00     0.164 HD
HETATM    6  H   UNL     1     -22.127  -3.808  -7.017  1.00  0.00     0.170 HD
ENDROOT
BRANCH   1   7
HETATM    7  C   UNL     1     -21.038  -6.517  -4.534  1.00  0.00     0.144 C 
BRANCH   7   8
HETATM    8  C   UNL     1     -21.756  -7.878  -4.396  1.00  0.00     0.142 C 
BRANCH   8   9
HETATM    9  N   UNL     1     -21.658  -8.422  -3.030  1.00  0.00    -0.380 N 
BRANCH   9  10
HETATM   10  C   UNL     1     -21.215  -7.575  -1.906  1.00  0.00     0.118 C 
HETATM   11  C   UNL     1     -22.241  -6.667  -1.254  1.00  0.00     0.026 C 
ENDBRANCH   9  10
BRANCH   9  12
HETATM   12  C   UNL     1     -22.060  -9.736  -2.739  1.00  0.00     0.030 A 
HETATM   13  C   UNL     1     -21.910 -10.781  -3.671  1.00  0.00     0.029 A 
HETATM   14  C   UNL     1     -22.323 -12.093  -3.415  1.00  0.00     0.003 A 
HETATM   15  C   UNL     1     -22.901 -12.413  -2.196  1.00  0.00     0.007 A 
HETATM   16  C   UNL     1     -23.059 -11.422  -1.231  1.00  0.00    -0.060 A 
HETATM   17  C   UNL     1     -23.676 -11.742   0.098  1.00  0.00     0.048 C 
HETATM   18  C   UNL     1     -22.641 -10.104  -1.512  1.00  0.00     0.036 A 
ENDBRANCH   9  12
ENDBRANCH   8   9
ENDBRANCH   7   8
ENDBRANCH   1   7
BRANCH   4  19
HETATM   19  C   UNL     1     -21.654  -4.494  -8.913  1.00  0.00     0.053 A 
HETATM   20  C   UNL     1     -20.327  -4.524  -9.359  1.00  0.00     0.031 A 
HETATM   21  C   UNL     1     -20.023  -4.311 -10.703  1.00  0.00     0.002 A 
HETATM   22  C   UNL     1     -21.044  -4.067 -11.617  1.00  0.00     0.002 A 
HETATM   23  C   UNL     1     -22.374  -4.050 -11.190  1.00  0.00     0.021 A 
HETATM   24  C   UNL     1     -22.680  -4.278  -9.844  1.00  0.00     0.037 A 
HETATM   25 BR   UNL     1     -24.501  -4.177  -9.308  1.00  0.00    -0.049 Br
ENDBRANCH   4  19
TORSDOF 6
ENDMDL
MODEL 4
REMARK VINA RESULT:      -7.4      2.799      8.917
REMARK  6 active torsions:
REMARK  status: ('A' for Active; 'I' for Inactive)
REMARK    1  A    between atoms: C_2  and  N_3 
REMARK    2  A    between atoms: N_3  and  C_4 
REMARK    3  A    between atoms: N_3  and  C_17 
REMARK    4  A    between atoms: C_4  and  C_5 
REMARK    5  A    between atoms: C_5  and  N_6 
REMARK       I    between atoms: N_6  and  C_7 
REMARK       I    between atoms: C_7  and  N_9 
REMARK    6  A    between atoms: N_9  and  C_10 
ROOT
HETATM    1  N   UNL     1     -20.566  -7.400  -4.552  1.00  0.00    -0.341 N 
HETATM    2  C   UNL     1     -20.884  -8.431  -3.698  1.00  0.00     0.320 C 
HETATM    3  O   UNL     1     -21.756  -9.255  -3.965  1.00  0.00    -0.247 OA
HETATM    4  N   UNL     1     -20.168  -8.376  -2.525  1.00  0.00    -0.308 N 
HETATM    5  H   UNL     1     -19.574  -7.216  -4.606  1.00  0.00     0.164 HD
HETATM    6  H   UNL     1     -19.960  -7.432  -2.219  1.00  0.00     0.170 HD
ENDROOT
BRANCH   1   7
HETATM    7  C   UNL     1     -21.318  -7.264  -5.799  1.00  0.00     0.144 C 
BRANCH   7   8
HETATM    8  C   UNL     1     -22.088  -5.927  -5.907  1.00  0.00     0.142 C 
BRANCH   8   9
HETATM    9  N   UNL     1     -21.357  -4.930  -6.710  1.00  0.00    -0.380 N 
BRANCH   9  10
HETATM   10  C   UNL     1     -20.101  -4.332  -6.216  1.00  0.00     0.118 C 
HETATM   11  C   UNL     1     -18.800  -4.793  -6.848  1.00  0.00     0.026 C 
ENDBRANCH   9  10
BRANCH   9  12
HETATM   12  C   UNL     1     -21.786  -4.577  -8.000  1.00  0.00     0.030 A 
HETATM   13  C   UNL     1     -20.922  -4.636  -9.110  1.00  0.00     0.029 A 
HETATM   14  C   UNL     1     -21.317  -4.269 -10.401  1.00  0.00     0.003 A 
HETATM   15  C   UNL     1     -22.612  -3.830 -10.631  1.00  0.00     0.007 A 
HETATM   16  C   UNL     1     -23.514  -3.768  -9.572  1.00  0.00    -0.060 A 
HETATM   17  C   UNL     1     -24.922  -3.303  -9.794  1.00  0.00     0.048 C 
HETATM   18  C   UNL     1     -23.093  -4.138  -8.277  1.00  0.00     0.036 A 
ENDBRANCH   9  12
ENDBRANCH   8   9
ENDBRANCH   7   8
ENDBRANCH   1   7
BRANCH   4  19
HETATM   19  C   UNL     1     -20.391  -9.323  -1.492  1.00  0.00     0.053 A 
HETATM   20  C   UNL     1     -19.699 -10.540  -1.492  1.00  0.00     0.031 A 
HETATM   21  C   UNL     1     -19.946 -11.499  -0.511  1.00  0.00     0.002 A 
HETATM   22  C   UNL     1     -20.888 -11.251   0.483  1.00  0.00     0.002 A 
HETATM   23  C   UNL     1     -21.574 -10.035   0.506  1.00  0.00     0.021 A 
HETATM   24  C   UNL     1     -21.316  -9.066  -0.470  1.00  0.00     0.037 A 
HETATM   25 BR   UNL     1     -22.328  -7.459  -0.429  1.00  0.00    -0.049 Br
ENDBRANCH   4  19
TORSDOF 6
ENDMDL
MODEL 5
REMARK VINA RESULT:      -7.3      1.970      4.098
REMARK  6 active torsions:
REMARK  status: ('A' for Active; 'I' for Inactive)
REMARK    1  A    between atoms: C_2  and  N_3 
REMARK    2  A    between atoms: N_3  and  C_4 
REMARK    3  A    between atoms: N_3  and  C_17 
REMARK    4  A    between atoms: C_4  and  C_5 
REMARK    5  A    between atoms: C_5  and  N_6 
REMARK       I    between atoms: N_6  and  C_7 
REMARK       I    between atoms: C_7  and  N_9 
REMARK    6  A    between atoms: N_9  and  C_10 
ROOT
HETATM    1  N   UNL     1     -22.160  -5.981  -5.008  1.00  0.00    -0.341 N 
HETATM    2  C   UNL     1     -21.913  -5.917  -6.361  1.00  0.00     0.320 C 
HETATM    3  O   UNL     1     -21.580  -6.906  -7.011  1.00  0.00    -0.247 OA
HETATM    4  N   UNL     1     -22.019  -4.637  -6.850  1.00  0.00    -0.308 N 
HETATM    5  H   UNL     1     -22.952  -5.424  -4.719  1.00  0.00     0.164 HD
HETATM    6  H   UNL     1     -21.735  -3.923  -6.188  1.00  0.00     0.170 HD
ENDROOT
BRANCH   1   7
HETATM    7  C   UNL     1     -21.984  -7.261  -4.322  1.00  0.00     0.144 C 
BRANCH   7   8
HETATM    8  C   UNL     1     -20.927  -7.212  -3.196  1.00  0.00     0.142 C 
BRANCH   8   9
HETATM    9  N   UNL     1     -20.382  -8.547  -2.887  1.00  0.00    -0.380 N 
BRANCH   9  10
HETATM   10  C   UNL     1     -21.104  -9.472  -1.993  1.00  0.00     0.118 C 
HETATM   11  C   UNL     1     -21.450 -10.850  -2.526  1.00  0.00     0.026 C 
ENDBRANCH   9  10
BRANCH   9  12
HETATM   12  C   UNL     1     -19.205  -9.011  -3.495  1.00  0.00     0.030 A 
HETATM   13  C   UNL     1     -19.082  -9.106  -4.895  1.00  0.00     0.029 A 
HETATM   14  C   UNL     1     -17.929  -9.587  -5.526  1.00  0.00     0.003 A 
HETATM   15  C   UNL     1     -16.840  -9.989  -4.767  1.00  0.00     0.007 A 
HETATM   16  C   UNL     1     -16.902  -9.901  -3.379  1.00  0.00    -0.060 A 
HETATM   17  C   UNL     1     -15.735 -10.323  -2.535  1.00  0.00     0.048 C 
HETATM   18  C   UNL     1     -18.075  -9.418  -2.763  1.00  0.00     0.036 A 
ENDBRANCH   9  12
ENDBRANCH   8   9
ENDBRANCH   7   8
ENDBRANCH   1   7
BRANCH   4  19
HETATM   19  C   UNL     1     -21.750  -4.355  -8.214  1.00  0.00     0.053 A 
HETATM   20  C   UNL     1     -22.802  -4.247  -9.132  1.00  0.00     0.031 A 
HETATM   21  C   UNL     1     -22.547  -4.020 -10.484  1.00  0.00     0.002 A 
HETATM   22  C   UNL     1     -21.235  -3.897 -10.933  1.00  0.00     0.002 A 
HETATM   23  C   UNL     1     -20.176  -3.986 -10.027  1.00  0.00     0.021 A 
HETATM   24  C   UNL     1     -20.432  -4.199  -8.668  1.00  0.00     0.037 A 
HETATM   25 BR   UNL     1     -18.950  -4.379  -7.493  1.00  0.00    -0.049 Br
ENDBRANCH   4  19
TORSDOF 6
ENDMDL
MODEL 6
REMARK VINA RESULT:      -7.3     14.456     16.863
REMARK  6 active torsions:
REMARK  status: ('A' for Active; 'I' for Inactive)
REMARK    1  A    between atoms: C_2  and  N_3 
REMARK    2  A    between atoms: N_3  and  C_4 
REMARK    3  A    between atoms: N_3  and  C_17 
REMARK    4  A    between atoms: C_4  and  C_5 
REMARK    5  A    between atoms: C_5  and  N_6 
REMARK       I    between atoms: N_6  and  C_7 
REMARK       I    between atoms: C_7  and  N_9 
REMARK    6  A    between atoms: N_9  and  C_10 
ROOT
HETATM    1  N   UNL     1     -34.070  -2.218 -17.142  1.00  0.00    -0.341 N 
HETATM    2  C   UNL     1     -33.301  -3.316 -16.834  1.00  0.00     0.320 C 
HETATM    3  O   UNL     1     -33.612  -4.101 -15.941  1.00  0.00    -0.247 OA
HETATM    4  N   UNL     1     -32.152  -3.375 -17.586  1.00  0.00    -0.308 N 
HETATM    5  H   UNL     1     -34.140  -2.043 -18.134  1.00  0.00     0.164 HD
HETATM    6  H   UNL     1     -31.771  -2.465 -17.819  1.00  0.00     0.170 HD
ENDROOT
BRANCH   1   7
HETATM    7  C   UNL     1     -35.276  -1.961 -16.354  1.00  0.00     0.144 C 
BRANCH   7   8
HETATM    8  C   UNL     1     -35.193  -0.669 -15.509  1.00  0.00     0.142 C 
BRANCH   8   9
HETATM    9  N   UNL     1     -36.181  -0.656 -14.416  1.00  0.00    -0.380 N 
BRANCH   9  10
HETATM   10  C   UNL     1     -37.597  -0.335 -14.677  1.00  0.00     0.118 C 
HETATM   11  C   UNL     1     -37.903   0.752 -15.691  1.00  0.00     0.026 C 
ENDBRANCH   9  10
BRANCH   9  12
HETATM   12  C   UNL     1     -35.825  -1.026 -13.109  1.00  0.00     0.030 A 
HETATM   13  C   UNL     1     -36.524  -0.542 -11.985  1.00  0.00     0.029 A 
HETATM   14  C   UNL     1     -36.175  -0.877 -10.672  1.00  0.00     0.003 A 
HETATM   15  C   UNL     1     -35.106  -1.726 -10.433  1.00  0.00     0.007 A 
HETATM   16  C   UNL     1     -34.391  -2.248 -11.509  1.00  0.00    -0.060 A 
HETATM   17  C   UNL     1     -33.234  -3.175 -11.278  1.00  0.00     0.048 C 
HETATM   18  C   UNL     1     -34.755  -1.893 -12.824  1.00  0.00     0.036 A 
ENDBRANCH   9  12
ENDBRANCH   8   9
ENDBRANCH   7   8
ENDBRANCH   1   7
BRANCH   4  19
HETATM   19  C   UNL     1     -31.200  -4.406 -17.380  1.00  0.00     0.053 A 
HETATM   20  C   UNL     1     -31.610  -5.745 -17.339  1.00  0.00     0.031 A 
HETATM   21  C   UNL     1     -30.691  -6.764 -17.088  1.00  0.00     0.002 A 
HETATM   22  C   UNL     1     -29.351  -6.454 -16.875  1.00  0.00     0.002 A 
HETATM   23  C   UNL     1     -28.924  -5.126 -16.928  1.00  0.00     0.021 A 
HETATM   24  C   UNL     1     -29.843  -4.105 -17.195  1.00  0.00     0.037 A 
HETATM   25 BR   UNL     1     -29.218  -2.311 -17.189  1.00  0.00    -0.049 Br
ENDBRANCH   4  19
TORSDOF 6
ENDMDL
MODEL 7
REMARK VINA RESULT:      -7.2      5.409      9.373
REMARK  6 active torsions:
REMARK  status: ('A' for Active; 'I' for Inactive)
REMARK    1  A    between atoms: C_2  and  N_3 
REMARK    2  A    between atoms: N_3  and  C_4 
REMARK    3  A    between atoms: N_3  and  C_17 
REMARK    4  A    between atoms: C_4  and  C_5 
REMARK    5  A    between atoms: C_5  and  N_6 
REMARK       I    between atoms: N_6  and  C_7 
REMARK       I    between atoms: C_7  and  N_9 
REMARK    6  A    between atoms: N_9  and  C_10 
ROOT
HETATM    1  N   UNL     1     -19.484 -11.802  -1.951  1.00  0.00    -0.341 N 
HETATM    2  C   UNL     1     -20.033 -12.076  -0.720  1.00  0.00     0.320 C 
HETATM    3  O   UNL     1     -19.707 -11.459   0.292  1.00  0.00    -0.247 OA
HETATM    4  N   UNL     1     -20.910 -13.134  -0.763  1.00  0.00    -0.308 N 
HETATM    5  H   UNL     1     -20.156 -11.834  -2.705  1.00  0.00     0.164 HD
HETATM    6  H   UNL     1     -20.656 -13.845  -1.441  1.00  0.00     0.170 HD
ENDROOT
BRANCH   1   7
HETATM    7  C   UNL     1     -18.454 -10.767  -2.047  1.00  0.00     0.144 C 
BRANCH   7   8
HETATM    8  C   UNL     1     -18.732  -9.727  -3.156  1.00  0.00     0.142 C 
BRANCH   8   9
HETATM    9  N   UNL     1     -20.175  -9.520  -3.374  1.00  0.00    -0.380 N 
BRANCH   9  10
HETATM   10  C   UNL     1     -20.937 -10.393  -4.287  1.00  0.00     0.118 C 
HETATM   11  C   UNL     1     -22.323 -10.836  -3.855  1.00  0.00     0.026 C 
ENDBRANCH   9  10
BRANCH   9  12
HETATM   12  C   UNL     1     -20.886  -8.541  -2.660  1.00  0.00     0.030 A 
HETATM   13  C   UNL     1     -21.179  -7.282  -3.220  1.00  0.00     0.029 A 
HETATM   14  C   UNL     1     -21.865  -6.282  -2.523  1.00  0.00     0.003 A 
HETATM   15  C   UNL     1     -22.296  -6.512  -1.225  1.00  0.00     0.007 A 
HETATM   16  C   UNL     1     -22.049  -7.746  -0.629  1.00  0.00    -0.060 A 
HETATM   17  C   UNL     1     -22.510  -8.023   0.771  1.00  0.00     0.048 C 
HETATM   18  C   UNL     1     -21.350  -8.739  -1.347  1.00  0.00     0.036 A 
ENDBRANCH   9  12
ENDBRANCH   8   9
ENDBRANCH   7   8
ENDBRANCH   1   7
BRANCH   4  19
HETATM   19  C   UNL     1     -21.540 -13.605   0.416  1.00  0.00     0.053 A 
HETATM   20  C   UNL     1     -20.945 -14.620   1.176  1.00  0.00     0.031 A 
HETATM   21  C   UNL     1     -21.580 -15.126   2.310  1.00  0.00     0.002 A 
HETATM   22  C   UNL     1     -22.818 -14.622   2.697  1.00  0.00     0.002 A 
HETATM   23  C   UNL     1     -23.417 -13.598   1.959  1.00  0.00     0.021 A 
HETATM   24  C   UNL     1     -22.774 -13.080   0.830  1.00  0.00     0.037 A 
HETATM   25 BR   UNL     1     -23.666 -11.736  -0.173  1.00  0.00    -0.049 Br
ENDBRANCH   4  19
TORSDOF 6
ENDMDL
MODEL 8
REMARK VINA RESULT:      -7.2      5.501      7.951
REMARK  6 active torsions:
REMARK  status: ('A' for Active; 'I' for Inactive)
REMARK    1  A    between atoms: C_2  and  N_3 
REMARK    2  A    between atoms: N_3  and  C_4 
REMARK    3  A    between atoms: N_3  and  C_17 
REMARK    4  A    between atoms: C_4  and  C_5 
REMARK    5  A    between atoms: C_5  and  N_6 
REMARK       I    between atoms: N_6  and  C_7 
REMARK       I    between atoms: C_7  and  N_9 
REMARK    6  A    between atoms: N_9  and  C_10 
ROOT
HETATM    1  N   UNL     1     -18.656 -11.626  -0.078  1.00  0.00    -0.341 N 
HETATM    2  C   UNL     1     -18.228 -11.508  -1.381  1.00  0.00     0.320 C 
HETATM    3  O   UNL     1     -18.982 -11.692  -2.334  1.00  0.00    -0.247 OA
HETATM    4  N   UNL     1     -16.884 -11.233  -1.466  1.00  0.00    -0.308 N 
HETATM    5  H   UNL     1     -18.274 -10.919   0.534  1.00  0.00     0.164 HD
HETATM    6  H   UNL     1     -16.335 -11.657  -0.726  1.00  0.00     0.170 HD
ENDROOT
BRANCH   1   7
HETATM    7  C   UNL     1     -20.043 -12.019   0.173  1.00  0.00     0.144 C 
BRANCH   7   8
HETATM    8  C   UNL     1     -20.979 -10.820   0.446  1.00  0.00     0.142 C 
BRANCH   8   9
HETATM    9  N   UNL     1     -21.776 -10.456  -0.739  1.00  0.00    -0.380 N 
BRANCH   9  10
HETATM   10  C   UNL     1     -22.630 -11.453  -1.414  1.00  0.00     0.118 C 
HETATM   11  C   UNL     1     -24.088 -11.533  -1.001  1.00  0.00     0.026 C 
ENDBRANCH   9  10
BRANCH   9  12
HETATM   12  C   UNL     1     -21.812  -9.135  -1.215  1.00  0.00     0.030 A 
HETATM   13  C   UNL     1     -22.305  -8.077  -0.427  1.00  0.00     0.029 A 
HETATM   14  C   UNL     1     -22.374  -6.757  -0.885  1.00  0.00     0.003 A 
HETATM   15  C   UNL     1     -21.938  -6.443  -2.163  1.00  0.00     0.007 A 
HETATM   16  C   UNL     1     -21.426  -7.448  -2.980  1.00  0.00    -0.060 A 
HETATM   17  C   UNL     1     -20.942  -7.134  -4.364  1.00  0.00     0.048 C 
HETATM   18  C   UNL     1     -21.371  -8.773  -2.500  1.00  0.00     0.036 A 
ENDBRANCH   9  12
ENDBRANCH   8   9
ENDBRANCH   7   8
ENDBRANCH   1   7
BRANCH   4  19
HETATM   19  C   UNL     1     -16.241 -11.126  -2.725  1.00  0.00     0.053 A 
HETATM   20  C   UNL     1     -16.337  -9.942  -3.466  1.00  0.00     0.031 A 
HETATM   21  C   UNL     1     -15.752  -9.842  -4.728  1.00  0.00     0.002 A 
HETATM   22  C   UNL     1     -15.063 -10.927  -5.263  1.00  0.00     0.002 A 
HETATM   23  C   UNL     1     -14.945 -12.109  -4.529  1.00  0.00     0.021 A 
HETATM   24  C   UNL     1     -15.520 -12.205  -3.257  1.00  0.00     0.037 A 
HETATM   25 BR   UNL     1     -15.385 -13.860  -2.334  1.00  0.00    -0.049 Br
ENDBRANCH   4  19
TORSDOF 6
ENDMDL
MODEL 9
REMARK VINA RESULT:      -7.1      2.567      8.841
REMARK  6 active torsions:
REMARK  status: ('A' for Active; 'I' for Inactive)
REMARK    1  A    between atoms: C_2  and  N_3 
REMARK    2  A    between atoms: N_3  and  C_4 
REMARK    3  A    between atoms: N_3  and  C_17 
REMARK    4  A    between atoms: C_4  and  C_5 
REMARK    5  A    between atoms: C_5  and  N_6 
REMARK       I    between atoms: N_6  and  C_7 
REMARK       I    between atoms: C_7  and  N_9 
REMARK    6  A    between atoms: N_9  and  C_10 
ROOT
HETATM    1  N   UNL     1     -20.309  -7.486  -4.860  1.00  0.00    -0.341 N 
HETATM    2  C   UNL     1     -21.313  -7.777  -3.966  1.00  0.00     0.320 C 
HETATM    3  O   UNL     1     -22.501  -7.643  -4.252  1.00  0.00    -0.247 OA
HETATM    4  N   UNL     1     -20.825  -8.158  -2.738  1.00  0.00    -0.308 N 
HETATM    5  H   UNL     1     -19.546  -8.148  -4.835  1.00  0.00     0.164 HD
HETATM    6  H   UNL     1     -19.957  -7.698  -2.485  1.00  0.00     0.170 HD
ENDROOT
BRANCH   1   7
HETATM    7  C   UNL     1     -20.671  -6.967  -6.179  1.00  0.00     0.144 C 
BRANCH   7   8
HETATM    8  C   UNL     1     -21.607  -5.738  -6.117  1.00  0.00     0.142 C 
BRANCH   8   9
HETATM    9  N   UNL     1     -21.207  -4.687  -7.070  1.00  0.00    -0.380 N 
BRANCH   9  10
HETATM   10  C   UNL     1     -19.939  -3.951  -6.900  1.00  0.00     0.118 C 
HETATM   11  C   UNL     1     -18.690  -4.532  -7.536  1.00  0.00     0.026 C 
ENDBRANCH   9  10
BRANCH   9  12
HETATM   12  C   UNL     1     -21.975  -4.409  -8.213  1.00  0.00     0.030 A 
HETATM   13  C   UNL     1     -23.359  -4.161  -8.132  1.00  0.00     0.029 A 
HETATM   14  C   UNL     1     -24.152  -3.905  -9.257  1.00  0.00     0.003 A 
HETATM   15  C   UNL     1     -23.577  -3.879 -10.519  1.00  0.00     0.007 A 
HETATM   16  C   UNL     1     -22.209  -4.102 -10.654  1.00  0.00    -0.060 A 
HETATM   17  C   UNL     1     -21.561  -4.073 -12.007  1.00  0.00     0.048 C 
HETATM   18  C   UNL     1     -21.430  -4.364  -9.508  1.00  0.00     0.036 A 
ENDBRANCH   9  12
ENDBRANCH   8   9
ENDBRANCH   7   8
ENDBRANCH   1   7
BRANCH   4  19
HETATM   19  C   UNL     1     -21.703  -8.449  -1.664  1.00  0.00     0.053 A 
HETATM   20  C   UNL     1     -22.090  -7.437  -0.777  1.00  0.00     0.031 A 
HETATM   21  C   UNL     1     -22.914  -7.721   0.312  1.00  0.00     0.002 A 
HETATM   22  C   UNL     1     -23.360  -9.022   0.526  1.00  0.00     0.002 A 
HETATM   23  C   UNL     1     -22.996 -10.039  -0.359  1.00  0.00     0.021 A 
HETATM   24  C   UNL     1     -22.181  -9.752  -1.460  1.00  0.00     0.037 A 
HETATM   25 BR   UNL     1     -21.663 -11.187  -2.592  1.00  0.00    -0.049 Br
ENDBRANCH   4  19
TORSDOF 6
ENDMDL
