REMARK  6 active torsions:
REMARK  status: ('A' for Active; 'I' for Inactive)
REMARK    1  A    between atoms: C_2  and  N_3 
REMARK    2  A    between atoms: N_3  and  C_4 
REMARK    3  A    between atoms: N_3  and  C_17 
REMARK    4  A    between atoms: C_4  and  C_5 
REMARK    5  A    between atoms: C_5  and  N_6 
REMARK       I    between atoms: N_6  and  C_7 
REMARK       I    between atoms: C_7  and  N_9 
REMARK    6  A    between atoms: N_9  and  C_10 
ROOT
HETATM    1  N   UNL     1      -0.300  -2.933  -1.565  1.00  0.00    -0.341 N 
HETATM    2  C   UNL     1      -0.317  -4.195  -1.017  1.00  0.00     0.320 C 
HETATM    3  O   UNL     1       0.328  -4.478  -0.010  1.00  0.00    -0.247 OA
HETATM    4  N   UNL     1      -1.070  -5.075  -1.758  1.00  0.00    -0.308 N 
HETATM    5  H   UNL     1      -1.205  -2.627  -1.894  1.00  0.00     0.164 HD
HETATM    6  H   UNL     1      -1.047  -4.891  -2.755  1.00  0.00     0.170 HD
ENDROOT
BRANCH   1   7
HETATM    7  C   UNL     1       0.543  -1.910  -0.946  1.00  0.00     0.144 C 
BRANCH   7   8
HETATM    8  C   UNL     1       2.056  -2.175  -1.121  1.00  0.00     0.142 C 
BRANCH   8   9
HETATM    9  N   UNL     1       2.878  -1.079  -0.577  1.00  0.00    -0.380 N 
BRANCH   9  10
HETATM   10  C   UNL     1       3.507  -1.191   0.753  1.00  0.00     0.118 C 
HETATM   11  C   UNL     1       3.167  -2.404   1.599  1.00  0.00     0.026 C 
ENDBRANCH   9  10
BRANCH   9  12
HETATM   12  C   UNL     1       3.156   0.069  -1.337  1.00  0.00     0.030 A 
HETATM   13  C   UNL     1       3.981   1.100  -0.847  1.00  0.00     0.029 A 
HETATM   14  C   UNL     1       4.255   2.264  -1.574  1.00  0.00     0.003 A 
HETATM   15  C   UNL     1       3.712   2.436  -2.838  1.00  0.00     0.007 A 
HETATM   16  C   UNL     1       2.902   1.440  -3.378  1.00  0.00    -0.060 A 
HETATM   17  C   UNL     1       2.307   1.598  -4.746  1.00  0.00     0.048 C 
HETATM   18  C   UNL     1       2.634   0.277  -2.626  1.00  0.00     0.036 A 
ENDBRANCH   9  12
ENDBRANCH   8   9
ENDBRANCH   7   8
ENDBRANCH   1   7
BRANCH   4  19
HETATM   19  C   UNL     1      -1.169  -6.440  -1.386  1.00  0.00     0.053 A 
HETATM   20  C   UNL     1      -1.394  -6.791  -0.049  1.00  0.00     0.031 A 
HETATM   21  C   UNL     1      -1.443  -8.130   0.337  1.00  0.00     0.002 A 
HETATM   22  C   UNL     1      -1.268  -9.134  -0.611  1.00  0.00     0.002 A 
HETATM   23  C   UNL     1      -1.059  -8.800  -1.951  1.00  0.00     0.021 A 
HETATM   24  C   UNL     1      -1.024  -7.457  -2.341  1.00  0.00     0.037 A 
HETATM   25 BR   UNL     1      -0.669  -7.061  -4.165  1.00  0.00    -0.049 Br
ENDBRANCH   4  19
TORSDOF 6
