REMARK  3 active torsions:
REMARK  status: ('A' for Active; 'I' for Inactive)
REMARK    1  A    between atoms: C_2  and  C_5 
REMARK    2  A    between atoms: C_13  and  N_14 
REMARK       I    between atoms: N_14  and  C_15 
REMARK       I    between atoms: C_15  and  N_17 
REMARK    3  A    between atoms: N_17  and  C_18 
ROOT
HETATM    1  N   UNL     1       3.606   5.826   3.070  1.00  0.00    -0.334 N 
HETATM    2  C   UNL     1       4.122   6.992   3.586  1.00  0.00     0.321 C 
HETATM    3  O   UNL     1       4.939   7.637   2.934  1.00  0.00    -0.247 OA
HETATM    4  N   UNL     1       3.667   7.310   4.852  1.00  0.00    -0.308 N 
HETATM    5  H   UNL     1       2.783   5.402   3.470  1.00  0.00     0.165 HD
HETATM    6  H   UNL     1       3.231   6.563   5.365  1.00  0.00     0.170 HD
ENDROOT
BRANCH   1   7
HETATM    7  C   UNL     1       3.987   5.474   1.709  1.00  0.00     0.120 C 
HETATM    8  C   UNL     1       3.753   4.033   1.377  1.00  0.00    -0.029 A 
HETATM    9  C   UNL     1       4.534   2.949   1.725  1.00  0.00     0.010 A 
HETATM   10  C   UNL     1       2.638   3.872   0.553  1.00  0.00    -0.049 A 
HETATM   11  C   UNL     1       4.170   1.684   1.253  1.00  0.00     0.008 A 
HETATM   12  C   UNL     1       3.025   1.486   0.443  1.00  0.00    -0.050 A 
HETATM   13  C   UNL     1       2.263   2.619   0.090  1.00  0.00     0.015 A 
HETATM   14  C   UNL     1       1.979   5.191   0.293  1.00  0.00     0.041 C 
HETATM   15  C   UNL     1       3.120   6.163   0.631  1.00  0.00     0.035 C 
BRANCH  12  16
HETATM   16  C   UNL     1       2.588   0.084  -0.025  1.00  0.00    -0.024 C 
HETATM   17  C   UNL     1       3.519  -1.046   0.469  1.00  0.00     0.019 C 
HETATM   18  C   UNL     1       2.554   0.006  -1.566  1.00  0.00     0.019 C 
HETATM   19  C   UNL     1       1.173  -0.213   0.519  1.00  0.00     0.019 C 
ENDBRANCH  12  16
ENDBRANCH   1   7
BRANCH   4  20
HETATM   20  C   UNL     1       4.070   8.477   5.581  1.00  0.00     0.047 A 
HETATM   21  C   UNL     1       4.651   9.564   4.902  1.00  0.00     0.030 A 
HETATM   22  C   UNL     1       5.169  10.665   5.574  1.00  0.00     0.003 A 
HETATM   23  C   UNL     1       5.082  10.728   6.954  1.00  0.00     0.014 A 
HETATM   24  C   UNL     1       4.448   9.698   7.666  1.00  0.00    -0.008 A 
HETATM   25  C   UNL     1       4.341   9.787   9.054  1.00  0.00     0.100 A 
HETATM   26  C   UNL     1       3.917   8.561   7.002  1.00  0.00     0.004 A 
HETATM   27  N   UNL     1       3.746   8.862   9.837  1.00  0.00    -0.374 N 
HETATM   28  C   UNL     1       3.233   7.793   9.204  1.00  0.00     0.088 A 
ATOM     29  HN  UNL     1       3.689   8.968  10.850  1.00  0.00     0.164 HD
HETATM   30  C   UNL     1       3.293   7.597   7.827  1.00  0.00     0.031 A 
ENDBRANCH   4  20
TORSDOF 3
