MODEL 1
REMARK VINA RESULT:     -11.4      0.000      0.000
REMARK  3 active torsions:
REMARK  status: ('A' for Active; 'I' for Inactive)
REMARK    1  A    between atoms: C_2  and  C_5 
REMARK    2  A    between atoms: C_13  and  N_14 
REMARK       I    between atoms: N_14  and  C_15 
REMARK       I    between atoms: C_15  and  N_17 
REMARK    3  A    between atoms: N_17  and  C_18 
ROOT
HETATM    1  N   UNL     1     -21.439  -6.097  -5.859  1.00  0.00    -0.334 N 
HETATM    2  C   UNL     1     -20.979  -5.581  -7.048  1.00  0.00     0.321 C 
HETATM    3  O   UNL     1     -19.770  -5.475  -7.239  1.00  0.00    -0.247 OA
HETATM    4  N   UNL     1     -21.972  -5.193  -7.928  1.00  0.00    -0.308 N 
HETATM    5  H   UNL     1     -22.395  -6.403  -5.763  1.00  0.00     0.165 HD
HETATM    6  H   UNL     1     -22.890  -5.078  -7.534  1.00  0.00     0.170 HD
ENDROOT
BRANCH   1   7
HETATM    7  C   UNL     1     -20.444  -6.595  -4.920  1.00  0.00     0.120 C 
HETATM    8  C   UNL     1     -21.024  -7.037  -3.613  1.00  0.00    -0.029 A 
HETATM    9  C   UNL     1     -21.420  -6.244  -2.554  1.00  0.00     0.010 A 
HETATM   10  C   UNL     1     -21.059  -8.428  -3.512  1.00  0.00    -0.049 A 
HETATM   11  C   UNL     1     -21.878  -6.865  -1.388  1.00  0.00     0.008 A 
HETATM   12  C   UNL     1     -21.956  -8.274  -1.269  1.00  0.00    -0.050 A 
HETATM   13  C   UNL     1     -21.523  -9.053  -2.363  1.00  0.00     0.015 A 
HETATM   14  C   UNL     1     -20.552  -9.062  -4.770  1.00  0.00     0.041 C 
HETATM   15  C   UNL     1     -19.758  -7.900  -5.386  1.00  0.00     0.035 C 
BRANCH  12  16
HETATM   16  C   UNL     1     -22.519  -8.958  -0.008  1.00  0.00    -0.024 C 
HETATM   17  C   UNL     1     -23.430 -10.167  -0.321  1.00  0.00     0.019 C 
HETATM   18  C   UNL     1     -23.352  -7.965   0.829  1.00  0.00     0.019 C 
HETATM   19  C   UNL     1     -21.347  -9.475   0.855  1.00  0.00     0.019 C 
ENDBRANCH  12  16
ENDBRANCH   1   7
BRANCH   4  20
HETATM   20  C   UNL     1     -21.724  -4.630  -9.223  1.00  0.00     0.047 A 
HETATM   21  C   UNL     1     -20.408  -4.554  -9.715  1.00  0.00     0.030 A 
HETATM   22  C   UNL     1     -20.100  -3.909 -10.908  1.00  0.00     0.003 A 
HETATM   23  C   UNL     1     -21.115  -3.354 -11.668  1.00  0.00     0.014 A 
HETATM   24  C   UNL     1     -22.449  -3.469 -11.249  1.00  0.00    -0.008 A 
HETATM   25  C   UNL     1     -23.466  -2.931 -12.039  1.00  0.00     0.100 A 
HETATM   26  C   UNL     1     -22.788  -4.117 -10.032  1.00  0.00     0.004 A 
HETATM   27  N   UNL     1     -24.781  -2.989 -11.739  1.00  0.00    -0.374 N 
HETATM   28  C   UNL     1     -25.099  -3.615 -10.592  1.00  0.00     0.088 A 
ATOM     29  HN  UNL     1     -25.492  -2.583 -12.346  1.00  0.00     0.164 HD
HETATM   30  C   UNL     1     -24.166  -4.178  -9.725  1.00  0.00     0.031 A 
ENDBRANCH   4  20
TORSDOF 3
ENDMDL
MODEL 2
REMARK VINA RESULT:     -10.7      2.086      3.343
REMARK  3 active torsions:
REMARK  status: ('A' for Active; 'I' for Inactive)
REMARK    1  A    between atoms: C_2  and  C_5 
REMARK    2  A    between atoms: C_13  and  N_14 
REMARK       I    between atoms: N_14  and  C_15 
REMARK       I    between atoms: C_15  and  N_17 
REMARK    3  A    between atoms: N_17  and  C_18 
ROOT
HETATM    1  N   UNL     1     -21.401  -5.864  -5.182  1.00  0.00    -0.334 N 
HETATM    2  C   UNL     1     -21.460  -5.898  -6.555  1.00  0.00     0.321 C 
HETATM    3  O   UNL     1     -21.703  -6.957  -7.129  1.00  0.00    -0.247 OA
HETATM    4  N   UNL     1     -21.199  -4.688  -7.171  1.00  0.00    -0.308 N 
HETATM    5  H   UNL     1     -21.429  -4.988  -4.683  1.00  0.00     0.165 HD
HETATM    6  H   UNL     1     -20.748  -3.991  -6.602  1.00  0.00     0.170 HD
ENDROOT
BRANCH   1   7
HETATM    7  C   UNL     1     -21.741  -7.089  -4.471  1.00  0.00     0.120 C 
HETATM    8  C   UNL     1     -20.571  -7.999  -4.255  1.00  0.00    -0.029 A 
HETATM    9  C   UNL     1     -19.990  -8.857  -5.166  1.00  0.00     0.010 A 
HETATM   10  C   UNL     1     -20.134  -7.965  -2.929  1.00  0.00    -0.049 A 
HETATM   11  C   UNL     1     -18.939  -9.675  -4.739  1.00  0.00     0.008 A 
HETATM   12  C   UNL     1     -18.453  -9.638  -3.409  1.00  0.00    -0.050 A 
HETATM   13  C   UNL     1     -19.085  -8.765  -2.499  1.00  0.00     0.015 A 
HETATM   14  C   UNL     1     -20.938  -6.985  -2.133  1.00  0.00     0.041 C 
HETATM   15  C   UNL     1     -22.191  -6.848  -3.012  1.00  0.00     0.035 C 
BRANCH  12  16
HETATM   16  C   UNL     1     -17.255 -10.493  -2.953  1.00  0.00    -0.024 C 
HETATM   17  C   UNL     1     -16.819 -11.546  -3.998  1.00  0.00     0.019 C 
HETATM   18  C   UNL     1     -17.586 -11.253  -1.651  1.00  0.00     0.019 C 
HETATM   19  C   UNL     1     -16.043  -9.570  -2.695  1.00  0.00     0.019 C 
ENDBRANCH  12  16
ENDBRANCH   1   7
BRANCH   4  20
HETATM   20  C   UNL     1     -21.207  -4.490  -8.591  1.00  0.00     0.047 A 
HETATM   21  C   UNL     1     -20.018  -4.641  -9.328  1.00  0.00     0.030 A 
HETATM   22  C   UNL     1     -19.944  -4.343 -10.683  1.00  0.00     0.003 A 
HETATM   23  C   UNL     1     -21.079  -3.921 -11.354  1.00  0.00     0.014 A 
HETATM   24  C   UNL     1     -22.302  -3.823 -10.673  1.00  0.00    -0.008 A 
HETATM   25  C   UNL     1     -23.445  -3.424 -11.367  1.00  0.00     0.100 A 
HETATM   26  C   UNL     1     -22.400  -4.116  -9.287  1.00  0.00     0.004 A 
HETATM   27  N   UNL     1     -24.672  -3.305 -10.816  1.00  0.00    -0.374 N 
HETATM   28  C   UNL     1     -24.764  -3.595  -9.507  1.00  0.00     0.088 A 
ATOM     29  HN  UNL     1     -25.482  -3.010 -11.362  1.00  0.00     0.164 HD
HETATM   30  C   UNL     1     -23.688  -3.991  -8.717  1.00  0.00     0.031 A 
ENDBRANCH   4  20
TORSDOF 3
ENDMDL
MODEL 3
REMARK VINA RESULT:     -10.2      1.956      9.473
REMARK  3 active torsions:
REMARK  status: ('A' for Active; 'I' for Inactive)
REMARK    1  A    between atoms: C_2  and  C_5 
REMARK    2  A    between atoms: C_13  and  N_14 
REMARK       I    between atoms: N_14  and  C_15 
REMARK       I    between atoms: C_15  and  N_17 
REMARK    3  A    between atoms: N_17  and  C_18 
ROOT
HETATM    1  N   UNL     1     -20.819  -6.004  -7.620  1.00  0.00    -0.334 N 
HETATM    2  C   UNL     1     -20.351  -6.260  -6.352  1.00  0.00     0.321 C 
HETATM    3  O   UNL     1     -19.896  -5.343  -5.674  1.00  0.00    -0.247 OA
HETATM    4  N   UNL     1     -20.420  -7.588  -5.973  1.00  0.00    -0.308 N 
HETATM    5  H   UNL     1     -21.395  -6.675  -8.106  1.00  0.00     0.165 HD
HETATM    6  H   UNL     1     -20.548  -8.253  -6.716  1.00  0.00     0.170 HD
ENDROOT
BRANCH   1   7
HETATM    7  C   UNL     1     -20.844  -4.613  -8.052  1.00  0.00     0.120 C 
HETATM    8  C   UNL     1     -21.418  -4.423  -9.422  1.00  0.00    -0.029 A 
HETATM    9  C   UNL     1     -20.795  -4.641 -10.635  1.00  0.00     0.010 A 
HETATM   10  C   UNL     1     -22.706  -3.889  -9.368  1.00  0.00    -0.049 A 
HETATM   11  C   UNL     1     -21.493  -4.335 -11.808  1.00  0.00     0.008 A 
HETATM   12  C   UNL     1     -22.813  -3.823 -11.785  1.00  0.00    -0.050 A 
HETATM   13  C   UNL     1     -23.409  -3.594 -10.527  1.00  0.00     0.015 A 
HETATM   14  C   UNL     1     -23.147  -3.716  -7.948  1.00  0.00     0.041 C 
HETATM   15  C   UNL     1     -21.796  -3.728  -7.216  1.00  0.00     0.035 C 
BRANCH  12  16
HETATM   16  C   UNL     1     -23.605  -3.546 -13.078  1.00  0.00    -0.024 C 
HETATM   17  C   UNL     1     -22.752  -2.900 -14.193  1.00  0.00     0.019 C 
HETATM   18  C   UNL     1     -24.790  -2.598 -12.802  1.00  0.00     0.019 C 
HETATM   19  C   UNL     1     -24.153  -4.880 -13.631  1.00  0.00     0.019 C 
ENDBRANCH  12  16
ENDBRANCH   1   7
BRANCH   4  20
HETATM   20  C   UNL     1     -19.990  -8.082  -4.698  1.00  0.00     0.047 A 
HETATM   21  C   UNL     1     -18.897  -8.964  -4.618  1.00  0.00     0.030 A 
HETATM   22  C   UNL     1     -18.517  -9.567  -3.425  1.00  0.00     0.003 A 
HETATM   23  C   UNL     1     -19.202  -9.269  -2.259  1.00  0.00     0.014 A 
HETATM   24  C   UNL     1     -20.255  -8.341  -2.280  1.00  0.00    -0.008 A 
HETATM   25  C   UNL     1     -20.918  -8.028  -1.094  1.00  0.00     0.100 A 
HETATM   26  C   UNL     1     -20.664  -7.718  -3.488  1.00  0.00     0.004 A 
HETATM   27  N   UNL     1     -21.936  -7.146  -0.996  1.00  0.00    -0.374 N 
HETATM   28  C   UNL     1     -22.313  -6.549  -2.139  1.00  0.00     0.088 A 
ATOM     29  HN  UNL     1     -22.393  -6.946  -0.106  1.00  0.00     0.164 HD
HETATM   30  C   UNL     1     -21.729  -6.794  -3.379  1.00  0.00     0.031 A 
ENDBRANCH   4  20
TORSDOF 3
ENDMDL
MODEL 4
REMARK VINA RESULT:      -9.8      2.294      9.769
REMARK  3 active torsions:
REMARK  status: ('A' for Active; 'I' for Inactive)
REMARK    1  A    between atoms: C_2  and  C_5 
REMARK    2  A    between atoms: C_13  and  N_14 
REMARK       I    between atoms: N_14  and  C_15 
REMARK       I    between atoms: C_15  and  N_17 
REMARK    3  A    between atoms: N_17  and  C_18 
ROOT
HETATM    1  N   UNL     1     -20.726  -6.056  -7.676  1.00  0.00    -0.334 N 
HETATM    2  C   UNL     1     -20.389  -6.352  -6.375  1.00  0.00     0.321 C 
HETATM    3  O   UNL     1     -20.176  -5.442  -5.579  1.00  0.00    -0.247 OA
HETATM    4  N   UNL     1     -20.293  -7.704  -6.101  1.00  0.00    -0.308 N 
HETATM    5  H   UNL     1     -21.121  -6.759  -8.282  1.00  0.00     0.165 HD
HETATM    6  H   UNL     1     -20.217  -8.312  -6.899  1.00  0.00     0.170 HD
ENDROOT
BRANCH   1   7
HETATM    7  C   UNL     1     -20.918  -4.651  -8.010  1.00  0.00     0.120 C 
HETATM    8  C   UNL     1     -21.463  -4.435  -9.388  1.00  0.00    -0.029 A 
HETATM    9  C   UNL     1     -20.775  -4.479 -10.584  1.00  0.00     0.010 A 
HETATM   10  C   UNL     1     -22.811  -4.074  -9.354  1.00  0.00    -0.049 A 
HETATM   11  C   UNL     1     -21.465  -4.179 -11.763  1.00  0.00     0.008 A 
HETATM   12  C   UNL     1     -22.841  -3.843 -11.763  1.00  0.00    -0.050 A 
HETATM   13  C   UNL     1     -23.505  -3.786 -10.520  1.00  0.00     0.015 A 
HETATM   14  C   UNL     1     -23.320  -4.066  -7.946  1.00  0.00     0.041 C 
HETATM   15  C   UNL     1     -22.006  -3.960  -7.157  1.00  0.00     0.035 C 
BRANCH  12  16
HETATM   16  C   UNL     1     -23.616  -3.573 -13.067  1.00  0.00    -0.024 C 
HETATM   17  C   UNL     1     -22.744  -2.956 -14.183  1.00  0.00     0.019 C 
HETATM   18  C   UNL     1     -24.790  -2.603 -12.817  1.00  0.00     0.019 C 
HETATM   19  C   UNL     1     -24.179  -4.907 -13.606  1.00  0.00     0.019 C 
ENDBRANCH  12  16
ENDBRANCH   1   7
BRANCH   4  20
HETATM   20  C   UNL     1     -19.956  -8.241  -4.815  1.00  0.00     0.047 A 
HETATM   21  C   UNL     1     -20.745  -7.926  -3.693  1.00  0.00     0.030 A 
HETATM   22  C   UNL     1     -20.393  -8.320  -2.408  1.00  0.00     0.003 A 
HETATM   23  C   UNL     1     -19.254  -9.081  -2.212  1.00  0.00     0.014 A 
HETATM   24  C   UNL     1     -18.475  -9.476  -3.311  1.00  0.00    -0.008 A 
HETATM   25  C   UNL     1     -17.345 -10.268  -3.104  1.00  0.00     0.100 A 
HETATM   26  C   UNL     1     -18.811  -9.082  -4.633  1.00  0.00     0.004 A 
HETATM   27  N   UNL     1     -16.531 -10.712  -4.085  1.00  0.00    -0.374 N 
HETATM   28  C   UNL     1     -16.859 -10.347  -5.336  1.00  0.00     0.088 A 
ATOM     29  HN  UNL     1     -15.714 -11.291  -3.889  1.00  0.00     0.164 HD
HETATM   30  C   UNL     1     -17.956  -9.552  -5.656  1.00  0.00     0.031 A 
ENDBRANCH   4  20
TORSDOF 3
ENDMDL
MODEL 5
REMARK VINA RESULT:      -9.3      4.822     10.968
REMARK  3 active torsions:
REMARK  status: ('A' for Active; 'I' for Inactive)
REMARK    1  A    between atoms: C_2  and  C_5 
REMARK    2  A    between atoms: C_13  and  N_14 
REMARK       I    between atoms: N_14  and  C_15 
REMARK       I    between atoms: C_15  and  N_17 
REMARK    3  A    between atoms: N_17  and  C_18 
ROOT
HETATM    1  N   UNL     1     -22.611 -10.000  -0.810  1.00  0.00    -0.334 N 
HETATM    2  C   UNL     1     -22.435 -11.199  -0.160  1.00  0.00     0.321 C 
HETATM    3  O   UNL     1     -21.340 -11.474   0.325  1.00  0.00    -0.247 OA
HETATM    4  N   UNL     1     -23.551 -12.015  -0.148  1.00  0.00    -0.308 N 
HETATM    5  H   UNL     1     -23.536  -9.653  -1.015  1.00  0.00     0.165 HD
HETATM    6  H   UNL     1     -24.271 -11.788  -0.812  1.00  0.00     0.170 HD
ENDROOT
BRANCH   1   7
HETATM    7  C   UNL     1     -21.497  -9.063  -0.792  1.00  0.00     0.120 C 
HETATM    8  C   UNL     1     -21.261  -8.390  -2.109  1.00  0.00    -0.029 A 
HETATM    9  C   UNL     1     -20.623  -8.908  -3.219  1.00  0.00     0.010 A 
HETATM   10  C   UNL     1     -21.699  -7.066  -2.093  1.00  0.00    -0.049 A 
HETATM   11  C   UNL     1     -20.448  -8.083  -4.334  1.00  0.00     0.008 A 
HETATM   12  C   UNL     1     -20.913  -6.746  -4.359  1.00  0.00    -0.050 A 
HETATM   13  C   UNL     1     -21.540  -6.244  -3.200  1.00  0.00     0.015 A 
HETATM   14  C   UNL     1     -22.325  -6.732  -0.774  1.00  0.00     0.041 C 
HETATM   15  C   UNL     1     -21.739  -7.837   0.118  1.00  0.00     0.035 C 
BRANCH  12  16
HETATM   16  C   UNL     1     -20.776  -5.856  -5.610  1.00  0.00    -0.024 C 
HETATM   17  C   UNL     1     -20.075  -4.508  -5.331  1.00  0.00     0.019 C 
HETATM   18  C   UNL     1     -22.162  -5.535  -6.209  1.00  0.00     0.019 C 
HETATM   19  C   UNL     1     -19.937  -6.602  -6.672  1.00  0.00     0.019 C 
ENDBRANCH  12  16
ENDBRANCH   1   7
BRANCH   4  20
HETATM   20  C   UNL     1     -23.595 -13.308   0.472  1.00  0.00     0.047 A 
HETATM   21  C   UNL     1     -23.353 -13.433   1.852  1.00  0.00     0.030 A 
HETATM   22  C   UNL     1     -23.264 -14.671   2.478  1.00  0.00     0.003 A 
HETATM   23  C   UNL     1     -23.456 -15.827   1.741  1.00  0.00     0.014 A 
HETATM   24  C   UNL     1     -23.768 -15.745   0.375  1.00  0.00    -0.008 A 
HETATM   25  C   UNL     1     -23.987 -16.916  -0.351  1.00  0.00     0.100 A 
HETATM   26  C   UNL     1     -23.858 -14.492  -0.287  1.00  0.00     0.004 A 
HETATM   27  N   UNL     1     -24.301 -16.955  -1.664  1.00  0.00    -0.374 N 
HETATM   28  C   UNL     1     -24.399 -15.767  -2.285  1.00  0.00     0.088 A 
ATOM     29  HN  UNL     1     -24.455 -17.836  -2.156  1.00  0.00     0.164 HD
HETATM   30  C   UNL     1     -24.189 -14.540  -1.661  1.00  0.00     0.031 A 
ENDBRANCH   4  20
TORSDOF 3
ENDMDL
MODEL 6
REMARK VINA RESULT:      -9.3      4.859     11.108
REMARK  3 active torsions:
REMARK  status: ('A' for Active; 'I' for Inactive)
REMARK    1  A    between atoms: C_2  and  C_5 
REMARK    2  A    between atoms: C_13  and  N_14 
REMARK       I    between atoms: N_14  and  C_15 
REMARK       I    between atoms: C_15  and  N_17 
REMARK    3  A    between atoms: N_17  and  C_18 
ROOT
HETATM    1  N   UNL     1     -22.845 -10.020  -0.764  1.00  0.00    -0.334 N 
HETATM    2  C   UNL     1     -22.635 -11.379  -0.750  1.00  0.00     0.321 C 
HETATM    3  O   UNL     1     -21.491 -11.820  -0.826  1.00  0.00    -0.247 OA
HETATM    4  N   UNL     1     -23.789 -12.137  -0.680  1.00  0.00    -0.308 N 
HETATM    5  H   UNL     1     -23.730  -9.629  -0.481  1.00  0.00     0.165 HD
HETATM    6  H   UNL     1     -24.645 -11.660  -0.905  1.00  0.00     0.170 HD
ENDROOT
BRANCH   1   7
HETATM    7  C   UNL     1     -21.666  -9.164  -0.761  1.00  0.00     0.120 C 
HETATM    8  C   UNL     1     -21.415  -8.488  -2.073  1.00  0.00    -0.029 A 
HETATM    9  C   UNL     1     -20.844  -9.030  -3.207  1.00  0.00     0.010 A 
HETATM   10  C   UNL     1     -21.758  -7.136  -2.025  1.00  0.00    -0.049 A 
HETATM   11  C   UNL     1     -20.638  -8.201  -4.313  1.00  0.00     0.008 A 
HETATM   12  C   UNL     1     -21.007  -6.833  -4.305  1.00  0.00    -0.050 A 
HETATM   13  C   UNL     1     -21.568  -6.308  -3.123  1.00  0.00     0.015 A 
HETATM   14  C   UNL     1     -22.325  -6.782  -0.685  1.00  0.00     0.041 C 
HETATM   15  C   UNL     1     -21.798  -7.941   0.174  1.00  0.00     0.035 C 
BRANCH  12  16
HETATM   16  C   UNL     1     -20.838  -5.934  -5.546  1.00  0.00    -0.024 C 
HETATM   17  C   UNL     1     -20.086  -4.616  -5.251  1.00  0.00     0.019 C 
HETATM   18  C   UNL     1     -22.211  -5.554  -6.138  1.00  0.00     0.019 C 
HETATM   19  C   UNL     1     -20.028  -6.697  -6.618  1.00  0.00     0.019 C 
ENDBRANCH  12  16
ENDBRANCH   1   7
BRANCH   4  20
HETATM   20  C   UNL     1     -23.809 -13.570  -0.652  1.00  0.00     0.047 A 
HETATM   21  C   UNL     1     -23.972 -14.294  -1.848  1.00  0.00     0.030 A 
HETATM   22  C   UNL     1     -24.120 -15.676  -1.863  1.00  0.00     0.003 A 
HETATM   23  C   UNL     1     -24.067 -16.383  -0.674  1.00  0.00     0.014 A 
HETATM   24  C   UNL     1     -23.837 -15.708   0.535  1.00  0.00    -0.008 A 
HETATM   25  C   UNL     1     -23.757 -16.435   1.723  1.00  0.00     0.100 A 
HETATM   26  C   UNL     1     -23.689 -14.297   0.576  1.00  0.00     0.004 A 
HETATM   27  N   UNL     1     -23.531 -15.893   2.939  1.00  0.00    -0.374 N 
HETATM   28  C   UNL     1     -23.379 -14.558   2.972  1.00  0.00     0.088 A 
ATOM     29  HN  UNL     1     -23.479 -16.463   3.783  1.00  0.00     0.164 HD
HETATM   30  C   UNL     1     -23.450 -13.735   1.851  1.00  0.00     0.031 A 
ENDBRANCH   4  20
TORSDOF 3
ENDMDL
MODEL 7
REMARK VINA RESULT:      -9.3      3.925      5.936
REMARK  3 active torsions:
REMARK  status: ('A' for Active; 'I' for Inactive)
REMARK    1  A    between atoms: C_2  and  C_5 
REMARK    2  A    between atoms: C_13  and  N_14 
REMARK       I    between atoms: N_14  and  C_15 
REMARK       I    between atoms: C_15  and  N_17 
REMARK    3  A    between atoms: N_17  and  C_18 
ROOT
HETATM    1  N   UNL     1     -19.060  -8.034  -5.718  1.00  0.00    -0.334 N 
HETATM    2  C   UNL     1     -20.221  -7.456  -6.177  1.00  0.00     0.321 C 
HETATM    3  O   UNL     1     -21.285  -8.060  -6.067  1.00  0.00    -0.247 OA
HETATM    4  N   UNL     1     -20.052  -6.217  -6.765  1.00  0.00    -0.308 N 
HETATM    5  H   UNL     1     -18.224  -7.484  -5.588  1.00  0.00     0.165 HD
HETATM    6  H   UNL     1     -19.112  -5.980  -7.033  1.00  0.00     0.170 HD
ENDROOT
BRANCH   1   7
HETATM    7  C   UNL     1     -19.179  -9.306  -5.019  1.00  0.00     0.120 C 
HETATM    8  C   UNL     1     -18.021 -10.226  -5.251  1.00  0.00    -0.029 A 
HETATM    9  C   UNL     1     -17.779 -11.017  -6.357  1.00  0.00     0.010 A 
HETATM   10  C   UNL     1     -17.183 -10.285  -4.137  1.00  0.00    -0.049 A 
HETATM   11  C   UNL     1     -16.664 -11.860  -6.344  1.00  0.00     0.008 A 
HETATM   12  C   UNL     1     -15.778 -11.917  -5.241  1.00  0.00    -0.050 A 
HETATM   13  C   UNL     1     -16.068 -11.110  -4.120  1.00  0.00     0.015 A 
HETATM   14  C   UNL     1     -17.670  -9.365  -3.061  1.00  0.00     0.041 C 
HETATM   15  C   UNL     1     -19.135  -9.169  -3.481  1.00  0.00     0.035 C 
BRANCH  12  16
HETATM   16  C   UNL     1     -14.514 -12.799  -5.252  1.00  0.00    -0.024 C 
HETATM   17  C   UNL     1     -13.587 -12.529  -6.458  1.00  0.00     0.019 C 
HETATM   18  C   UNL     1     -14.891 -14.295  -5.292  1.00  0.00     0.019 C 
HETATM   19  C   UNL     1     -13.696 -12.527  -3.970  1.00  0.00     0.019 C 
ENDBRANCH  12  16
ENDBRANCH   1   7
BRANCH   4  20
HETATM   20  C   UNL     1     -21.122  -5.434  -7.311  1.00  0.00     0.047 A 
HETATM   21  C   UNL     1     -22.283  -5.203  -6.550  1.00  0.00     0.030 A 
HETATM   22  C   UNL     1     -23.395  -4.557  -7.076  1.00  0.00     0.003 A 
HETATM   23  C   UNL     1     -23.361  -4.083  -8.376  1.00  0.00     0.014 A 
HETATM   24  C   UNL     1     -22.198  -4.230  -9.148  1.00  0.00    -0.008 A 
HETATM   25  C   UNL     1     -22.166  -3.723 -10.447  1.00  0.00     0.100 A 
HETATM   26  C   UNL     1     -21.052  -4.892  -8.634  1.00  0.00     0.004 A 
HETATM   27  N   UNL     1     -21.101  -3.800 -11.273  1.00  0.00    -0.374 N 
HETATM   28  C   UNL     1     -20.013  -4.416 -10.779  1.00  0.00     0.088 A 
ATOM     29  HN  UNL     1     -21.121  -3.413 -12.217  1.00  0.00     0.164 HD
HETATM   30  C   UNL     1     -19.939  -4.967  -9.503  1.00  0.00     0.031 A 
ENDBRANCH   4  20
TORSDOF 3
ENDMDL
MODEL 8
REMARK VINA RESULT:      -9.0      3.109      9.660
REMARK  3 active torsions:
REMARK  status: ('A' for Active; 'I' for Inactive)
REMARK    1  A    between atoms: C_2  and  C_5 
REMARK    2  A    between atoms: C_13  and  N_14 
REMARK       I    between atoms: N_14  and  C_15 
REMARK       I    between atoms: C_15  and  N_17 
REMARK    3  A    between atoms: N_17  and  C_18 
ROOT
HETATM    1  N   UNL     1     -19.660  -7.144  -6.503  1.00  0.00    -0.334 N 
HETATM    2  C   UNL     1     -19.746  -7.858  -5.331  1.00  0.00     0.321 C 
HETATM    3  O   UNL     1     -20.034  -7.280  -4.286  1.00  0.00    -0.247 OA
HETATM    4  N   UNL     1     -19.458  -9.204  -5.457  1.00  0.00    -0.308 N 
HETATM    5  H   UNL     1     -19.650  -7.612  -7.396  1.00  0.00     0.165 HD
HETATM    6  H   UNL     1     -18.974  -9.475  -6.296  1.00  0.00     0.170 HD
ENDROOT
BRANCH   1   7
HETATM    7  C   UNL     1     -20.025  -5.735  -6.453  1.00  0.00     0.120 C 
HETATM    8  C   UNL     1     -20.659  -5.237  -7.715  1.00  0.00    -0.029 A 
HETATM    9  C   UNL     1     -20.031  -4.886  -8.893  1.00  0.00     0.010 A 
HETATM   10  C   UNL     1     -22.036  -5.065  -7.563  1.00  0.00    -0.049 A 
HETATM   11  C   UNL     1     -20.808  -4.376  -9.938  1.00  0.00     0.008 A 
HETATM   12  C   UNL     1     -22.211  -4.222  -9.824  1.00  0.00    -0.050 A 
HETATM   13  C   UNL     1     -22.816  -4.571  -8.599  1.00  0.00     0.015 A 
HETATM   14  C   UNL     1     -22.472  -5.484  -6.193  1.00  0.00     0.041 C 
HETATM   15  C   UNL     1     -21.141  -5.426  -5.429  1.00  0.00     0.035 C 
BRANCH  12  16
HETATM   16  C   UNL     1     -23.076  -3.721 -10.998  1.00  0.00    -0.024 C 
HETATM   17  C   UNL     1     -22.400  -2.604 -11.825  1.00  0.00     0.019 C 
HETATM   18  C   UNL     1     -24.420  -3.160 -10.488  1.00  0.00     0.019 C 
HETATM   19  C   UNL     1     -23.360  -4.898 -11.957  1.00  0.00     0.019 C 
ENDBRANCH  12  16
ENDBRANCH   1   7
BRANCH   4  20
HETATM   20  C   UNL     1     -19.486 -10.137  -4.369  1.00  0.00     0.047 A 
HETATM   21  C   UNL     1     -20.673 -10.830  -4.067  1.00  0.00     0.030 A 
HETATM   22  C   UNL     1     -20.788 -11.651  -2.952  1.00  0.00     0.003 A 
HETATM   23  C   UNL     1     -19.695 -11.835  -2.122  1.00  0.00     0.014 A 
HETATM   24  C   UNL     1     -18.471 -11.219  -2.424  1.00  0.00    -0.008 A 
HETATM   25  C   UNL     1     -17.370 -11.435  -1.596  1.00  0.00     0.100 A 
HETATM   26  C   UNL     1     -18.332 -10.371  -3.554  1.00  0.00     0.004 A 
HETATM   27  N   UNL     1     -16.146 -10.902  -1.794  1.00  0.00    -0.374 N 
HETATM   28  C   UNL     1     -16.014 -10.110  -2.873  1.00  0.00     0.088 A 
ATOM     29  HN  UNL     1     -15.367 -11.088  -1.163  1.00  0.00     0.164 HD
HETATM   30  C   UNL     1     -17.047  -9.817  -3.758  1.00  0.00     0.031 A 
ENDBRANCH   4  20
TORSDOF 3
ENDMDL
MODEL 9
REMARK VINA RESULT:      -9.0      5.878      8.718
REMARK  3 active torsions:
REMARK  status: ('A' for Active; 'I' for Inactive)
REMARK    1  A    between atoms: C_2  and  C_5 
REMARK    2  A    between atoms: C_13  and  N_14 
REMARK       I    between atoms: N_14  and  C_15 
REMARK       I    between atoms: C_15  and  N_17 
REMARK    3  A    between atoms: N_17  and  C_18 
ROOT
HETATM    1  N   UNL     1     -17.332 -11.211  -2.715  1.00  0.00    -0.334 N 
HETATM    2  C   UNL     1     -17.886  -9.969  -2.920  1.00  0.00     0.321 C 
HETATM    3  O   UNL     1     -17.237  -8.961  -2.649  1.00  0.00    -0.247 OA
HETATM    4  N   UNL     1     -19.181  -9.990  -3.401  1.00  0.00    -0.308 N 
HETATM    5  H   UNL     1     -17.741 -12.035  -3.130  1.00  0.00     0.165 HD
HETATM    6  H   UNL     1     -19.673 -10.862  -3.308  1.00  0.00     0.170 HD
ENDROOT
BRANCH   1   7
HETATM    7  C   UNL     1     -15.943 -11.258  -2.281  1.00  0.00     0.120 C 
HETATM    8  C   UNL     1     -15.721 -12.127  -1.083  1.00  0.00    -0.029 A 
HETATM    9  C   UNL     1     -15.975 -11.822   0.240  1.00  0.00     0.010 A 
HETATM   10  C   UNL     1     -15.111 -13.333  -1.430  1.00  0.00    -0.049 A 
HETATM   11  C   UNL     1     -15.630 -12.758   1.220  1.00  0.00     0.008 A 
HETATM   12  C   UNL     1     -15.041 -14.004   0.894  1.00  0.00    -0.050 A 
HETATM   13  C   UNL     1     -14.776 -14.272  -0.465  1.00  0.00     0.015 A 
HETATM   14  C   UNL     1     -14.911 -13.416  -2.912  1.00  0.00     0.041 C 
HETATM   15  C   UNL     1     -15.002 -11.934  -3.305  1.00  0.00     0.035 C 
BRANCH  12  16
HETATM   16  C   UNL     1     -14.719 -15.061   1.968  1.00  0.00    -0.024 C 
HETATM   17  C   UNL     1     -15.200 -14.667   3.382  1.00  0.00     0.019 C 
HETATM   18  C   UNL     1     -13.198 -15.308   2.056  1.00  0.00     0.019 C 
HETATM   19  C   UNL     1     -15.416 -16.389   1.597  1.00  0.00     0.019 C 
ENDBRANCH  12  16
ENDBRANCH   1   7
BRANCH   4  20
HETATM   20  C   UNL     1     -19.951  -8.814  -3.686  1.00  0.00     0.047 A 
HETATM   21  C   UNL     1     -19.918  -8.248  -4.974  1.00  0.00     0.030 A 
HETATM   22  C   UNL     1     -20.548  -7.044  -5.270  1.00  0.00     0.003 A 
HETATM   23  C   UNL     1     -21.268  -6.389  -4.286  1.00  0.00     0.014 A 
HETATM   24  C   UNL     1     -21.385  -6.953  -3.006  1.00  0.00    -0.008 A 
HETATM   25  C   UNL     1     -22.138  -6.297  -2.032  1.00  0.00     0.100 A 
HETATM   26  C   UNL     1     -20.746  -8.178  -2.680  1.00  0.00     0.004 A 
HETATM   27  N   UNL     1     -22.325  -6.751  -0.775  1.00  0.00    -0.374 N 
HETATM   28  C   UNL     1     -21.730  -7.918  -0.472  1.00  0.00     0.088 A 
ATOM     29  HN  UNL     1     -22.885  -6.239  -0.093  1.00  0.00     0.164 HD
HETATM   30  C   UNL     1     -20.948  -8.650  -1.362  1.00  0.00     0.031 A 
ENDBRANCH   4  20
TORSDOF 3
ENDMDL
