MODEL 1
REMARK VINA RESULT:      -9.6      0.000      0.000
REMARK  4 active torsions:
REMARK  status: ('A' for Active; 'I' for Inactive)
REMARK    1  A    between atoms: O_2  and  C_3 
REMARK    2  A    between atoms: C_7  and  N_8 
REMARK       I    between atoms: N_8  and  C_9 
REMARK    3  A    between atoms: C_9  and  C_11 
REMARK    4  A    between atoms: C_12  and  C_13 
ROOT
HETATM    1  N   UNL     1     -21.320  -4.565  -7.161  1.00  0.00    -0.324 N 
HETATM    2  C   UNL     1     -20.736  -5.678  -6.592  1.00  0.00     0.245 C 
HETATM    3  O   UNL     1     -20.203  -6.609  -7.191  1.00  0.00    -0.268 OA
HETATM    4  H   UNL     1     -21.704  -3.858  -6.550  1.00  0.00     0.169 HD
ENDROOT
BRANCH   2   5
HETATM    5  C   UNL     1     -20.781  -5.698  -5.101  1.00  0.00     0.075 C 
HETATM    6  C   UNL     1     -21.113  -6.861  -4.515  1.00  0.00     0.017 C 
BRANCH   6   7
HETATM    7  C   UNL     1     -21.247  -7.120  -3.078  1.00  0.00    -0.036 A 
HETATM    8  C   UNL     1     -22.117  -6.395  -2.258  1.00  0.00     0.013 A 
HETATM    9  C   UNL     1     -22.270  -6.736  -0.910  1.00  0.00     0.024 A 
HETATM   10  C   UNL     1     -21.559  -7.811  -0.379  1.00  0.00     0.034 A 
HETATM   11 CL   UNL     1     -21.761  -8.237   1.275  1.00  0.00    -0.084 Cl
HETATM   12  C   UNL     1     -20.697  -8.549  -1.183  1.00  0.00     0.024 A 
HETATM   13  C   UNL     1     -20.545  -8.206  -2.529  1.00  0.00     0.013 A 
ENDBRANCH   6   7
ENDBRANCH   2   5
BRANCH   1  14
HETATM   14  C   UNL     1     -21.385  -4.289  -8.554  1.00  0.00     0.037 A 
HETATM   15  C   UNL     1     -20.269  -4.327  -9.393  1.00  0.00     0.029 A 
HETATM   16  C   UNL     1     -20.371  -4.000 -10.744  1.00  0.00     0.005 A 
HETATM   17  C   UNL     1     -21.599  -3.637 -11.284  1.00  0.00     0.037 A 
HETATM   18  C   UNL     1     -22.734  -3.612 -10.474  1.00  0.00     0.070 A 
HETATM   19  C   UNL     1     -22.624  -3.947  -9.114  1.00  0.00     0.066 A 
BRANCH  18  20
HETATM   20  O   UNL     1     -23.993  -3.271 -10.898  1.00  0.00    -0.356 OA
HETATM   21  C   UNL     1     -25.016  -3.272  -9.905  1.00  0.00     0.210 C 
ENDBRANCH  18  20
ENDBRANCH   1  14
TORSDOF 4
ENDMDL
MODEL 2
REMARK VINA RESULT:      -8.2      4.075      9.171
REMARK  4 active torsions:
REMARK  status: ('A' for Active; 'I' for Inactive)
REMARK    1  A    between atoms: O_2  and  C_3 
REMARK    2  A    between atoms: C_7  and  N_8 
REMARK       I    between atoms: N_8  and  C_9 
REMARK    3  A    between atoms: C_9  and  C_11 
REMARK    4  A    between atoms: C_12  and  C_13 
ROOT
HETATM    1  N   UNL     1     -21.784  -7.704  -3.156  1.00  0.00    -0.324 N 
HETATM    2  C   UNL     1     -21.526  -6.418  -3.590  1.00  0.00     0.245 C 
HETATM    3  O   UNL     1     -21.203  -5.463  -2.890  1.00  0.00    -0.268 OA
HETATM    4  H   UNL     1     -22.019  -8.405  -3.844  1.00  0.00     0.169 HD
ENDROOT
BRANCH   2   5
HETATM    5  C   UNL     1     -21.666  -6.231  -5.064  1.00  0.00     0.075 C 
HETATM    6  C   UNL     1     -21.019  -5.188  -5.611  1.00  0.00     0.017 C 
BRANCH   6   7
HETATM    7  C   UNL     1     -21.024  -4.786  -7.022  1.00  0.00    -0.036 A 
HETATM    8  C   UNL     1     -19.938  -5.010  -7.875  1.00  0.00     0.013 A 
HETATM    9  C   UNL     1     -20.025  -4.684  -9.232  1.00  0.00     0.024 A 
HETATM   10  C   UNL     1     -21.202  -4.140  -9.743  1.00  0.00     0.034 A 
HETATM   11 CL   UNL     1     -21.310  -3.753 -11.416  1.00  0.00    -0.084 Cl
HETATM   12  C   UNL     1     -22.294  -3.920  -8.911  1.00  0.00     0.024 A 
HETATM   13  C   UNL     1     -22.205  -4.246  -7.555  1.00  0.00     0.013 A 
ENDBRANCH   6   7
ENDBRANCH   2   5
BRANCH   1  14
HETATM   14  C   UNL     1     -21.694  -8.152  -1.811  1.00  0.00     0.037 A 
HETATM   15  C   UNL     1     -22.298  -7.487  -0.741  1.00  0.00     0.029 A 
HETATM   16  C   UNL     1     -22.140  -7.936   0.569  1.00  0.00     0.005 A 
HETATM   17  C   UNL     1     -21.380  -9.069   0.832  1.00  0.00     0.037 A 
HETATM   18  C   UNL     1     -20.783  -9.766  -0.219  1.00  0.00     0.070 A 
HETATM   19  C   UNL     1     -20.949  -9.309  -1.537  1.00  0.00     0.066 A 
BRANCH  18  20
HETATM   20  O   UNL     1     -20.014 -10.892  -0.077  1.00  0.00    -0.356 OA
HETATM   21  C   UNL     1     -19.241 -11.276  -1.211  1.00  0.00     0.210 C 
ENDBRANCH  18  20
ENDBRANCH   1  14
TORSDOF 4
ENDMDL
MODEL 3
REMARK VINA RESULT:      -8.1     14.786     16.088
REMARK  4 active torsions:
REMARK  status: ('A' for Active; 'I' for Inactive)
REMARK    1  A    between atoms: O_2  and  C_3 
REMARK    2  A    between atoms: C_7  and  N_8 
REMARK       I    between atoms: N_8  and  C_9 
REMARK    3  A    between atoms: C_9  and  C_11 
REMARK    4  A    between atoms: C_12  and  C_13 
ROOT
HETATM    1  N   UNL     1     -33.506  -4.216 -14.189  1.00  0.00    -0.324 N 
HETATM    2  C   UNL     1     -33.884  -3.924 -15.484  1.00  0.00     0.245 C 
HETATM    3  O   UNL     1     -34.879  -3.292 -15.829  1.00  0.00    -0.268 OA
HETATM    4  H   UNL     1     -32.648  -4.727 -14.042  1.00  0.00     0.169 HD
ENDROOT
BRANCH   2   5
HETATM    5  C   UNL     1     -32.954  -4.449 -16.526  1.00  0.00     0.075 C 
HETATM    6  C   UNL     1     -31.711  -4.772 -16.128  1.00  0.00     0.017 C 
BRANCH   6   7
HETATM    7  C   UNL     1     -30.620  -5.280 -16.966  1.00  0.00    -0.036 A 
HETATM    8  C   UNL     1     -30.499  -6.629 -17.313  1.00  0.00     0.013 A 
HETATM    9  C   UNL     1     -29.488  -7.049 -18.183  1.00  0.00     0.024 A 
HETATM   10  C   UNL     1     -28.597  -6.119 -18.716  1.00  0.00     0.034 A 
HETATM   11 CL   UNL     1     -27.363  -6.638 -19.797  1.00  0.00    -0.084 Cl
HETATM   12  C   UNL     1     -28.709  -4.772 -18.388  1.00  0.00     0.024 A 
HETATM   13  C   UNL     1     -29.719  -4.355 -17.519  1.00  0.00     0.013 A 
ENDBRANCH   6   7
ENDBRANCH   2   5
BRANCH   1  14
HETATM   14  C   UNL     1     -34.199  -3.808 -13.017  1.00  0.00     0.037 A 
HETATM   15  C   UNL     1     -34.735  -4.710 -12.093  1.00  0.00     0.029 A 
HETATM   16  C   UNL     1     -35.451  -4.265 -10.984  1.00  0.00     0.005 A 
HETATM   17  C   UNL     1     -35.638  -2.904 -10.772  1.00  0.00     0.037 A 
HETATM   18  C   UNL     1     -35.096  -1.980 -11.667  1.00  0.00     0.070 A 
HETATM   19  C   UNL     1     -34.372  -2.436 -12.781  1.00  0.00     0.066 A 
BRANCH  18  20
HETATM   20  O   UNL     1     -35.216  -0.619 -11.558  1.00  0.00    -0.356 OA
HETATM   21  C   UNL     1     -35.210   0.115 -12.780  1.00  0.00     0.210 C 
ENDBRANCH  18  20
ENDBRANCH   1  14
TORSDOF 4
ENDMDL
MODEL 4
REMARK VINA RESULT:      -8.1      1.165      2.352
REMARK  4 active torsions:
REMARK  status: ('A' for Active; 'I' for Inactive)
REMARK    1  A    between atoms: O_2  and  C_3 
REMARK    2  A    between atoms: C_7  and  N_8 
REMARK       I    between atoms: N_8  and  C_9 
REMARK    3  A    between atoms: C_9  and  C_11 
REMARK    4  A    between atoms: C_12  and  C_13 
ROOT
HETATM    1  N   UNL     1     -22.139  -4.987  -7.055  1.00  0.00    -0.324 N 
HETATM    2  C   UNL     1     -20.882  -4.681  -6.572  1.00  0.00     0.245 C 
HETATM    3  O   UNL     1     -20.047  -3.964  -7.116  1.00  0.00    -0.268 OA
HETATM    4  H   UNL     1     -22.740  -5.573  -6.494  1.00  0.00     0.169 HD
ENDROOT
BRANCH   2   5
HETATM    5  C   UNL     1     -20.564  -5.307  -5.256  1.00  0.00     0.075 C 
HETATM    6  C   UNL     1     -21.537  -6.024  -4.669  1.00  0.00     0.017 C 
BRANCH   6   7
HETATM    7  C   UNL     1     -21.472  -6.708  -3.373  1.00  0.00    -0.036 A 
HETATM    8  C   UNL     1     -20.597  -7.771  -3.123  1.00  0.00     0.013 A 
HETATM    9  C   UNL     1     -20.515  -8.333  -1.845  1.00  0.00     0.024 A 
HETATM   10  C   UNL     1     -21.301  -7.830  -0.810  1.00  0.00     0.034 A 
HETATM   11 CL   UNL     1     -21.185  -8.516   0.763  1.00  0.00    -0.084 Cl
HETATM   12  C   UNL     1     -22.168  -6.768  -1.040  1.00  0.00     0.024 A 
HETATM   13  C   UNL     1     -22.250  -6.207  -2.317  1.00  0.00     0.013 A 
ENDBRANCH   6   7
ENDBRANCH   2   5
BRANCH   1  14
HETATM   14  C   UNL     1     -22.697  -4.498  -8.267  1.00  0.00     0.037 A 
HETATM   15  C   UNL     1     -24.002  -4.009  -8.366  1.00  0.00     0.029 A 
HETATM   16  C   UNL     1     -24.523  -3.587  -9.588  1.00  0.00     0.005 A 
HETATM   17  C   UNL     1     -23.742  -3.638 -10.736  1.00  0.00     0.037 A 
HETATM   18  C   UNL     1     -22.428  -4.102 -10.663  1.00  0.00     0.070 A 
HETATM   19  C   UNL     1     -21.908  -4.522  -9.427  1.00  0.00     0.066 A 
BRANCH  18  20
HETATM   20  O   UNL     1     -21.569  -4.195 -11.727  1.00  0.00    -0.356 OA
HETATM   21  C   UNL     1     -20.181  -4.059 -11.432  1.00  0.00     0.210 C 
ENDBRANCH  18  20
ENDBRANCH   1  14
TORSDOF 4
ENDMDL
MODEL 5
REMARK VINA RESULT:      -7.9      1.774      2.137
REMARK  4 active torsions:
REMARK  status: ('A' for Active; 'I' for Inactive)
REMARK    1  A    between atoms: O_2  and  C_3 
REMARK    2  A    between atoms: C_7  and  N_8 
REMARK       I    between atoms: N_8  and  C_9 
REMARK    3  A    between atoms: C_9  and  C_11 
REMARK    4  A    between atoms: C_12  and  C_13 
ROOT
HETATM    1  N   UNL     1     -21.081  -5.307  -7.592  1.00  0.00    -0.324 N 
HETATM    2  C   UNL     1     -22.016  -5.248  -6.578  1.00  0.00     0.245 C 
HETATM    3  O   UNL     1     -23.095  -4.663  -6.614  1.00  0.00    -0.268 OA
HETATM    4  H   UNL     1     -20.240  -5.845  -7.439  1.00  0.00     0.169 HD
ENDROOT
BRANCH   2   5
HETATM    5  C   UNL     1     -21.626  -5.989  -5.343  1.00  0.00     0.075 C 
HETATM    6  C   UNL     1     -20.813  -7.048  -5.496  1.00  0.00     0.017 C 
BRANCH   6   7
HETATM    7  C   UNL     1     -20.316  -7.941  -4.444  1.00  0.00    -0.036 A 
HETATM    8  C   UNL     1     -20.871  -7.978  -3.161  1.00  0.00     0.013 A 
HETATM    9  C   UNL     1     -20.416  -8.907  -2.219  1.00  0.00     0.024 A 
HETATM   10  C   UNL     1     -19.409  -9.807  -2.560  1.00  0.00     0.034 A 
HETATM   11 CL   UNL     1     -18.862 -10.957  -1.403  1.00  0.00    -0.084 Cl
HETATM   12  C   UNL     1     -18.853  -9.790  -3.835  1.00  0.00     0.024 A 
HETATM   13  C   UNL     1     -19.308  -8.861  -4.774  1.00  0.00     0.013 A 
ENDBRANCH   6   7
ENDBRANCH   2   5
BRANCH   1  14
HETATM   14  C   UNL     1     -21.219  -4.714  -8.875  1.00  0.00     0.037 A 
HETATM   15  C   UNL     1     -20.146  -4.521  -9.749  1.00  0.00     0.029 A 
HETATM   16  C   UNL     1     -20.321  -3.888 -10.978  1.00  0.00     0.005 A 
HETATM   17  C   UNL     1     -21.581  -3.443 -11.362  1.00  0.00     0.037 A 
HETATM   18  C   UNL     1     -22.675  -3.641 -10.519  1.00  0.00     0.070 A 
HETATM   19  C   UNL     1     -22.491  -4.283  -9.283  1.00  0.00     0.066 A 
BRANCH  18  20
HETATM   20  O   UNL     1     -23.958  -3.245 -10.793  1.00  0.00    -0.356 OA
HETATM   21  C   UNL     1     -24.873  -3.268  -9.701  1.00  0.00     0.210 C 
ENDBRANCH  18  20
ENDBRANCH   1  14
TORSDOF 4
ENDMDL
MODEL 6
REMARK VINA RESULT:      -7.6      4.224      9.216
REMARK  4 active torsions:
REMARK  status: ('A' for Active; 'I' for Inactive)
REMARK    1  A    between atoms: O_2  and  C_3 
REMARK    2  A    between atoms: C_7  and  N_8 
REMARK       I    between atoms: N_8  and  C_9 
REMARK    3  A    between atoms: C_9  and  C_11 
REMARK    4  A    between atoms: C_12  and  C_13 
ROOT
HETATM    1  N   UNL     1     -21.573  -8.249  -3.324  1.00  0.00    -0.324 N 
HETATM    2  C   UNL     1     -21.859  -6.965  -3.744  1.00  0.00     0.245 C 
HETATM    3  O   UNL     1     -22.184  -6.020  -3.030  1.00  0.00    -0.268 OA
HETATM    4  H   UNL     1     -21.294  -8.930  -4.016  1.00  0.00     0.169 HD
ENDROOT
BRANCH   2   5
HETATM    5  C   UNL     1     -21.740  -6.762  -5.217  1.00  0.00     0.075 C 
HETATM    6  C   UNL     1     -21.532  -5.505  -5.645  1.00  0.00     0.017 C 
BRANCH   6   7
HETATM    7  C   UNL     1     -21.407  -5.055  -7.036  1.00  0.00    -0.036 A 
HETATM    8  C   UNL     1     -22.436  -4.389  -7.710  1.00  0.00     0.013 A 
HETATM    9  C   UNL     1     -22.237  -3.907  -9.007  1.00  0.00     0.024 A 
HETATM   10  C   UNL     1     -21.005  -4.081  -9.633  1.00  0.00     0.034 A 
HETATM   11 CL   UNL     1     -20.760  -3.473 -11.224  1.00  0.00    -0.084 Cl
HETATM   12  C   UNL     1     -19.968  -4.733  -8.974  1.00  0.00     0.024 A 
HETATM   13  C   UNL     1     -20.169  -5.215  -7.678  1.00  0.00     0.013 A 
ENDBRANCH   6   7
ENDBRANCH   2   5
BRANCH   1  14
HETATM   14  C   UNL     1     -21.583  -8.697  -1.976  1.00  0.00     0.037 A 
HETATM   15  C   UNL     1     -21.200  -7.892  -0.900  1.00  0.00     0.029 A 
HETATM   16  C   UNL     1     -21.178  -8.390   0.402  1.00  0.00     0.005 A 
HETATM   17  C   UNL     1     -21.550  -9.705   0.653  1.00  0.00     0.037 A 
HETATM   18  C   UNL     1     -21.959 -10.525  -0.400  1.00  0.00     0.070 A 
HETATM   19  C   UNL     1     -21.982 -10.015  -1.708  1.00  0.00     0.066 A 
BRANCH  18  20
HETATM   20  O   UNL     1     -22.346 -11.833  -0.269  1.00  0.00    -0.356 OA
HETATM   21  C   UNL     1     -21.627 -12.613   0.683  1.00  0.00     0.210 C 
ENDBRANCH  18  20
ENDBRANCH   1  14
TORSDOF 4
ENDMDL
MODEL 7
REMARK VINA RESULT:      -7.6     15.383     17.200
REMARK  4 active torsions:
REMARK  status: ('A' for Active; 'I' for Inactive)
REMARK    1  A    between atoms: O_2  and  C_3 
REMARK    2  A    between atoms: C_7  and  N_8 
REMARK       I    between atoms: N_8  and  C_9 
REMARK    3  A    between atoms: C_9  and  C_11 
REMARK    4  A    between atoms: C_12  and  C_13 
ROOT
HETATM    1  N   UNL     1     -34.623  -1.871 -16.643  1.00  0.00    -0.324 N 
HETATM    2  C   UNL     1     -34.223  -3.168 -16.392  1.00  0.00     0.245 C 
HETATM    3  O   UNL     1     -34.721  -3.940 -15.577  1.00  0.00    -0.268 OA
HETATM    4  H   UNL     1     -34.140  -1.349 -17.360  1.00  0.00     0.169 HD
ENDROOT
BRANCH   2   5
HETATM    5  C   UNL     1     -33.071  -3.624 -17.223  1.00  0.00     0.075 C 
HETATM    6  C   UNL     1     -32.179  -4.441 -16.635  1.00  0.00     0.017 C 
BRANCH   6   7
HETATM    7  C   UNL     1     -30.961  -4.997 -17.235  1.00  0.00    -0.036 A 
HETATM    8  C   UNL     1     -30.773  -6.369 -17.427  1.00  0.00     0.013 A 
HETATM    9  C   UNL     1     -29.630  -6.843 -18.080  1.00  0.00     0.024 A 
HETATM   10  C   UNL     1     -28.674  -5.944 -18.550  1.00  0.00     0.034 A 
HETATM   11 CL   UNL     1     -27.277  -6.529 -19.364  1.00  0.00    -0.084 Cl
HETATM   12  C   UNL     1     -28.851  -4.576 -18.375  1.00  0.00     0.024 A 
HETATM   13  C   UNL     1     -29.993  -4.105 -17.723  1.00  0.00     0.013 A 
ENDBRANCH   6   7
ENDBRANCH   2   5
BRANCH   1  14
HETATM   14  C   UNL     1     -35.710  -1.208 -16.012  1.00  0.00     0.037 A 
HETATM   15  C   UNL     1     -36.920  -0.940 -16.655  1.00  0.00     0.029 A 
HETATM   16  C   UNL     1     -37.940  -0.241 -16.012  1.00  0.00     0.005 A 
HETATM   17  C   UNL     1     -37.770   0.196 -14.704  1.00  0.00     0.037 A 
HETATM   18  C   UNL     1     -36.580  -0.077 -14.029  1.00  0.00     0.070 A 
HETATM   19  C   UNL     1     -35.558  -0.784 -14.683  1.00  0.00     0.066 A 
BRANCH  18  20
HETATM   20  O   UNL     1     -36.303   0.304 -12.741  1.00  0.00    -0.356 OA
HETATM   21  C   UNL     1     -36.310  -0.731 -11.761  1.00  0.00     0.210 C 
ENDBRANCH  18  20
ENDBRANCH   1  14
TORSDOF 4
ENDMDL
MODEL 8
REMARK VINA RESULT:      -7.4      4.483      9.325
REMARK  4 active torsions:
REMARK  status: ('A' for Active; 'I' for Inactive)
REMARK    1  A    between atoms: O_2  and  C_3 
REMARK    2  A    between atoms: C_7  and  N_8 
REMARK       I    between atoms: N_8  and  C_9 
REMARK    3  A    between atoms: C_9  and  C_11 
REMARK    4  A    between atoms: C_12  and  C_13 
ROOT
HETATM    1  N   UNL     1     -21.595  -8.534  -2.304  1.00  0.00    -0.324 N 
HETATM    2  C   UNL     1     -21.839  -7.204  -2.027  1.00  0.00     0.245 C 
HETATM    3  O   UNL     1     -22.177  -6.735  -0.944  1.00  0.00    -0.268 OA
HETATM    4  H   UNL     1     -21.299  -8.784  -3.237  1.00  0.00     0.169 HD
ENDROOT
BRANCH   2   5
HETATM    5  C   UNL     1     -21.652  -6.292  -3.193  1.00  0.00     0.075 C 
HETATM    6  C   UNL     1     -21.536  -6.864  -4.403  1.00  0.00     0.017 C 
BRANCH   6   7
HETATM    7  C   UNL     1     -21.323  -6.184  -5.686  1.00  0.00    -0.036 A 
HETATM    8  C   UNL     1     -22.274  -5.332  -6.257  1.00  0.00     0.013 A 
HETATM    9  C   UNL     1     -21.988  -4.642  -7.439  1.00  0.00     0.024 A 
HETATM   10  C   UNL     1     -20.745  -4.795  -8.051  1.00  0.00     0.034 A 
HETATM   11 CL   UNL     1     -20.392  -3.934  -9.498  1.00  0.00    -0.084 Cl
HETATM   12  C   UNL     1     -19.785  -5.631  -7.491  1.00  0.00     0.024 A 
HETATM   13  C   UNL     1     -20.072  -6.319  -6.310  1.00  0.00     0.013 A 
ENDBRANCH   6   7
ENDBRANCH   2   5
BRANCH   1  14
HETATM   14  C   UNL     1     -21.672  -9.599  -1.366  1.00  0.00     0.037 A 
HETATM   15  C   UNL     1     -22.881 -10.091  -0.866  1.00  0.00     0.029 A 
HETATM   16  C   UNL     1     -22.906 -11.103   0.092  1.00  0.00     0.005 A 
HETATM   17  C   UNL     1     -21.718 -11.651   0.561  1.00  0.00     0.037 A 
HETATM   18  C   UNL     1     -20.497 -11.194   0.063  1.00  0.00     0.070 A 
HETATM   19  C   UNL     1     -20.480 -10.176  -0.905  1.00  0.00     0.066 A 
BRANCH  18  20
HETATM   20  O   UNL     1     -19.268 -11.659   0.452  1.00  0.00    -0.356 OA
HETATM   21  C   UNL     1     -18.323 -11.892  -0.589  1.00  0.00     0.210 C 
ENDBRANCH  18  20
ENDBRANCH   1  14
TORSDOF 4
ENDMDL
MODEL 9
REMARK VINA RESULT:      -7.0      4.216      8.988
REMARK  4 active torsions:
REMARK  status: ('A' for Active; 'I' for Inactive)
REMARK    1  A    between atoms: O_2  and  C_3 
REMARK    2  A    between atoms: C_7  and  N_8 
REMARK       I    between atoms: N_8  and  C_9 
REMARK    3  A    between atoms: C_9  and  C_11 
REMARK    4  A    between atoms: C_12  and  C_13 
ROOT
HETATM    1  N   UNL     1     -20.741  -7.959  -4.189  1.00  0.00    -0.324 N 
HETATM    2  C   UNL     1     -21.196  -6.710  -3.816  1.00  0.00     0.245 C 
HETATM    3  O   UNL     1     -21.360  -6.307  -2.668  1.00  0.00    -0.268 OA
HETATM    4  H   UNL     1     -20.629  -8.156  -5.173  1.00  0.00     0.169 HD
ENDROOT
BRANCH   2   5
HETATM    5  C   UNL     1     -21.498  -5.802  -4.960  1.00  0.00     0.075 C 
HETATM    6  C   UNL     1     -20.850  -6.037  -6.114  1.00  0.00     0.017 C 
BRANCH   6   7
HETATM    7  C   UNL     1     -20.960  -5.272  -7.361  1.00  0.00    -0.036 A 
HETATM    8  C   UNL     1     -19.948  -5.250  -8.326  1.00  0.00     0.013 A 
HETATM    9  C   UNL     1     -20.136  -4.573  -9.535  1.00  0.00     0.024 A 
HETATM   10  C   UNL     1     -21.342  -3.921  -9.787  1.00  0.00     0.034 A 
HETATM   11 CL   UNL     1     -21.574  -3.101 -11.281  1.00  0.00    -0.084 Cl
HETATM   12  C   UNL     1     -22.361  -3.940  -8.842  1.00  0.00     0.024 A 
HETATM   13  C   UNL     1     -22.172  -4.617  -7.635  1.00  0.00     0.013 A 
ENDBRANCH   6   7
ENDBRANCH   2   5
BRANCH   1  14
HETATM   14  C   UNL     1     -20.358  -8.996  -3.297  1.00  0.00     0.037 A 
HETATM   15  C   UNL     1     -21.271  -9.717  -2.523  1.00  0.00     0.029 A 
HETATM   16  C   UNL     1     -20.844 -10.692  -1.623  1.00  0.00     0.005 A 
HETATM   17  C   UNL     1     -19.489 -10.972  -1.488  1.00  0.00     0.037 A 
HETATM   18  C   UNL     1     -18.556 -10.283  -2.264  1.00  0.00     0.070 A 
HETATM   19  C   UNL     1     -18.995  -9.304  -3.171  1.00  0.00     0.066 A 
BRANCH  18  20
HETATM   20  O   UNL     1     -17.200 -10.476  -2.214  1.00  0.00    -0.356 OA
HETATM   21  C   UNL     1     -16.742 -11.527  -1.367  1.00  0.00     0.210 C 
ENDBRANCH  18  20
ENDBRANCH   1  14
TORSDOF 4
ENDMDL
