REMARK  4 active torsions:
REMARK  status: ('A' for Active; 'I' for Inactive)
REMARK    1  A    between atoms: O_2  and  C_3 
REMARK    2  A    between atoms: C_7  and  N_8 
REMARK       I    between atoms: N_8  and  C_9 
REMARK    3  A    between atoms: C_9  and  C_11 
REMARK    4  A    between atoms: C_12  and  C_13 
ROOT
HETATM    1  N   UNL     1       6.343  -1.339  -2.633  1.00  0.00    -0.324 N 
HETATM    2  C   UNL     1       7.241  -1.152  -3.665  1.00  0.00     0.245 C 
HETATM    3  O   UNL     1       7.060  -0.479  -4.676  1.00  0.00    -0.268 OA
HETATM    4  H   UNL     1       6.628  -1.901  -1.844  1.00  0.00     0.169 HD
ENDROOT
BRANCH   2   5
HETATM    5  C   UNL     1       8.543  -1.856  -3.478  1.00  0.00     0.075 C 
HETATM    6  C   UNL     1       9.459  -1.715  -4.451  1.00  0.00     0.017 C 
BRANCH   6   7
HETATM    7  C   UNL     1      10.792  -2.325  -4.505  1.00  0.00    -0.036 A 
HETATM    8  C   UNL     1      11.081  -3.562  -3.920  1.00  0.00     0.013 A 
HETATM    9  C   UNL     1      12.346  -4.139  -4.072  1.00  0.00     0.024 A 
HETATM   10  C   UNL     1      13.325  -3.484  -4.817  1.00  0.00     0.034 A 
HETATM   11 CL   UNL     1      14.875  -4.204  -5.013  1.00  0.00    -0.084 Cl
HETATM   12  C   UNL     1      13.051  -2.258  -5.413  1.00  0.00     0.024 A 
HETATM   13  C   UNL     1      11.787  -1.683  -5.260  1.00  0.00     0.013 A 
ENDBRANCH   6   7
ENDBRANCH   2   5
BRANCH   1  14
HETATM   14  C   UNL     1       5.049  -0.758  -2.552  1.00  0.00     0.037 A 
HETATM   15  C   UNL     1       4.504   0.039  -3.562  1.00  0.00     0.029 A 
HETATM   16  C   UNL     1       3.250   0.630  -3.417  1.00  0.00     0.005 A 
HETATM   17  C   UNL     1       2.511   0.425  -2.258  1.00  0.00     0.037 A 
HETATM   18  C   UNL     1       3.021  -0.384  -1.242  1.00  0.00     0.070 A 
HETATM   19  C   UNL     1       4.284  -0.979  -1.397  1.00  0.00     0.066 A 
BRANCH  18  20
HETATM   20  O   UNL     1       2.382  -0.655  -0.060  1.00  0.00    -0.356 OA
HETATM   21  C   UNL     1       1.127  -0.010   0.142  1.00  0.00     0.210 C 
ENDBRANCH  18  20
ENDBRANCH   1  14
TORSDOF 4
