REMARK  19 active torsions:
REMARK  status: ('A' for Active; 'I' for Inactive)
REMARK    1  A    between atoms: C_2  and  C_3 
REMARK    2  A    between atoms: C_3  and  C_4 
REMARK    3  A    between atoms: C_4  and  C_5 
REMARK    4  A    between atoms: C_5  and  C_6 
REMARK    5  A    between atoms: C_6  and  C_7 
REMARK    6  A    between atoms: C_7  and  C_8 
REMARK    7  A    between atoms: C_8  and  C_9 
REMARK    8  A    between atoms: C_10  and  C_11 
REMARK    9  A    between atoms: C_11  and  C_12 
REMARK   10  A    between atoms: C_12  and  C_13 
REMARK   11  A    between atoms: C_13  and  C_14 
REMARK   12  A    between atoms: C_14  and  C_15 
REMARK   13  A    between atoms: C_15  and  C_16 
REMARK   14  A    between atoms: C_16  and  C_17 
REMARK   15  A    between atoms: C_17  and  C_18 
REMARK       I    between atoms: C_18  and  N_20 
REMARK   16  A    between atoms: N_20  and  C_21 
REMARK   17  A    between atoms: C_21  and  C_22 
REMARK   18  A    between atoms: C_25  and  O_26 
REMARK   19  A    between atoms: C_27  and  O_28 
ROOT
HETATM    1  C   UNL     1      16.610   5.011   6.659  1.00  0.00     0.009 C 
ENDROOT
BRANCH   1   2
HETATM    2  C   UNL     1      15.090   5.012   6.674  1.00  0.00     0.000 C 
BRANCH   2   3
HETATM    3  C   UNL     1      14.545   4.255   7.875  1.00  0.00     0.000 C 
BRANCH   3   4
HETATM    4  C   UNL     1      13.025   4.239   7.856  1.00  0.00     0.000 C 
BRANCH   4   5
HETATM    5  C   UNL     1      12.501   3.559   6.596  1.00  0.00     0.004 C 
BRANCH   5   6
HETATM    6  C   UNL     1      12.992   2.121   6.516  1.00  0.00     0.027 C 
BRANCH   6   7
HETATM    7  C   UNL     1      12.495   1.457   5.282  1.00  0.00    -0.031 C 
HETATM    8  C   UNL     1      13.328   0.963   4.349  1.00  0.00    -0.031 C 
BRANCH   8   9
HETATM    9  C   UNL     1      12.826   0.299   3.113  1.00  0.00     0.027 C 
BRANCH   9  10
HETATM   10  C   UNL     1      13.319  -1.138   3.045  1.00  0.00     0.004 C 
BRANCH  10  11
HETATM   11  C   UNL     1      12.806  -1.809   1.782  1.00  0.00     0.000 C 
BRANCH  11  12
HETATM   12  C   UNL     1      13.299  -3.244   1.715  1.00  0.00     0.000 C 
BRANCH  12  13
HETATM   13  C   UNL     1      12.787  -3.913   0.450  1.00  0.00     0.000 C 
BRANCH  13  14
HETATM   14  C   UNL     1      13.279  -5.349   0.383  1.00  0.00    -0.000 C 
BRANCH  14  15
HETATM   15  C   UNL     1      12.769  -6.024  -0.881  1.00  0.00    -0.005 C 
HETATM   16  C   UNL     1      13.261  -7.457  -0.941  1.00  0.00     0.005 C 
ENDBRANCH  14  15
ENDBRANCH  13  14
ENDBRANCH  12  13
ENDBRANCH  11  12
ENDBRANCH  10  11
ENDBRANCH   9  10
ENDBRANCH   8   9
ENDBRANCH   6   7
ENDBRANCH   5   6
ENDBRANCH   4   5
ENDBRANCH   3   4
ENDBRANCH   2   3
ENDBRANCH   1   2
BRANCH   1  17
HETATM   17  C   UNL     1      17.165   5.758   5.442  1.00  0.00     0.103 C 
BRANCH  17  18
HETATM   18  C   UNL     1      16.720   5.110   4.140  1.00  0.00     0.217 C 
HETATM   19  O   UNL     1      16.011   4.086   4.112  1.00  0.00    -0.274 OA
HETATM   20  N   UNL     1      17.152   5.682   2.982  1.00  0.00    -0.357 N 
HETATM   21  H   UNL     1      17.682   6.546   2.994  1.00  0.00     0.162 HD
BRANCH  20  22
HETATM   22  C   UNL     1      16.748   5.134   1.707  1.00  0.00     0.161 C 
BRANCH  22  23
HETATM   23  C   UNL     1      15.466   5.752   1.200  1.00  0.00    -0.038 A 
HETATM   24  C   UNL     1      14.222   5.203   1.545  1.00  0.00     0.012 A 
HETATM   25  C   UNL     1      13.043   5.736   1.024  1.00  0.00     0.040 A 
HETATM   26  C   UNL     1      13.091   6.828   0.155  1.00  0.00     0.099 A 
HETATM   27  C   UNL     1      14.318   7.415  -0.184  1.00  0.00     0.101 A 
HETATM   28  C   UNL     1      15.496   6.880   0.362  1.00  0.00     0.048 A 
BRANCH  26  29
HETATM   29  O   UNL     1      11.913   7.305  -0.357  1.00  0.00    -0.358 OA
HETATM   30  H   UNL     1      11.158   6.821  -0.003  1.00  0.00     0.217 HD
ENDBRANCH  26  29
BRANCH  27  31
HETATM   31  O   UNL     1      14.510   8.483  -1.033  1.00  0.00    -0.353 OA
HETATM   32  C   UNL     1      13.344   9.049  -1.630  1.00  0.00     0.210 C 
ENDBRANCH  27  31
ENDBRANCH  22  23
ENDBRANCH  20  22
ENDBRANCH  17  18
ENDBRANCH   1  17
TORSDOF 19
