MODEL 1
REMARK VINA RESULT:      -7.2      0.000      0.000
REMARK  19 active torsions:
REMARK  status: ('A' for Active; 'I' for Inactive)
REMARK    1  A    between atoms: C_2  and  C_3 
REMARK    2  A    between atoms: C_3  and  C_4 
REMARK    3  A    between atoms: C_4  and  C_5 
REMARK    4  A    between atoms: C_5  and  C_6 
REMARK    5  A    between atoms: C_6  and  C_7 
REMARK    6  A    between atoms: C_7  and  C_8 
REMARK    7  A    between atoms: C_8  and  C_9 
REMARK    8  A    between atoms: C_10  and  C_11 
REMARK    9  A    between atoms: C_11  and  C_12 
REMARK   10  A    between atoms: C_12  and  C_13 
REMARK   11  A    between atoms: C_13  and  C_14 
REMARK   12  A    between atoms: C_14  and  C_15 
REMARK   13  A    between atoms: C_15  and  C_16 
REMARK   14  A    between atoms: C_16  and  C_17 
REMARK   15  A    between atoms: C_17  and  C_18 
REMARK       I    between atoms: C_18  and  N_20 
REMARK   16  A    between atoms: N_20  and  C_21 
REMARK   17  A    between atoms: C_21  and  C_22 
REMARK   18  A    between atoms: C_25  and  O_26 
REMARK   19  A    between atoms: C_27  and  O_28 
ROOT
HETATM    1  C   UNL     1     -21.216  -6.035  -3.397  1.00  0.00     0.009 C 
ENDROOT
BRANCH   1   2
HETATM    2  C   UNL     1     -22.172  -6.261  -2.237  1.00  0.00     0.000 C 
BRANCH   2   3
HETATM    3  C   UNL     1     -21.621  -7.279  -1.252  1.00  0.00     0.000 C 
BRANCH   3   4
HETATM    4  C   UNL     1     -22.650  -7.604  -0.181  1.00  0.00     0.000 C 
BRANCH   4   5
HETATM    5  C   UNL     1     -21.975  -8.070   1.104  1.00  0.00     0.004 C 
BRANCH   5   6
HETATM    6  C   UNL     1     -21.156  -9.328   0.856  1.00  0.00     0.027 C 
BRANCH   6   7
HETATM    7  C   UNL     1     -21.994 -10.399   0.256  1.00  0.00    -0.031 C 
HETATM    8  C   UNL     1     -21.578 -11.676   0.179  1.00  0.00    -0.031 C 
BRANCH   8   9
HETATM    9  C   UNL     1     -22.421 -12.746  -0.424  1.00  0.00     0.027 C 
BRANCH   9  10
HETATM   10  C   UNL     1     -23.181 -12.210  -1.627  1.00  0.00     0.004 C 
BRANCH  10  11
HETATM   11  C   UNL     1     -22.631 -12.816  -2.907  1.00  0.00     0.000 C 
BRANCH  11  12
HETATM   12  C   UNL     1     -22.539 -11.755  -3.991  1.00  0.00     0.000 C 
BRANCH  12  13
HETATM   13  C   UNL     1     -22.301 -10.390  -3.366  1.00  0.00     0.000 C 
BRANCH  13  14
HETATM   14  C   UNL     1     -20.956  -9.840  -3.812  1.00  0.00    -0.000 C 
BRANCH  14  15
HETATM   15  C   UNL     1     -19.863 -10.271  -2.847  1.00  0.00    -0.005 C 
HETATM   16  C   UNL     1     -18.813  -9.183  -2.729  1.00  0.00     0.005 C 
ENDBRANCH  14  15
ENDBRANCH  13  14
ENDBRANCH  12  13
ENDBRANCH  11  12
ENDBRANCH  10  11
ENDBRANCH   9  10
ENDBRANCH   8   9
ENDBRANCH   6   7
ENDBRANCH   5   6
ENDBRANCH   4   5
ENDBRANCH   3   4
ENDBRANCH   2   3
ENDBRANCH   1   2
BRANCH   1  17
HETATM   17  C   UNL     1     -21.869  -6.369  -4.742  1.00  0.00     0.103 C 
BRANCH  17  18
HETATM   18  C   UNL     1     -20.905  -6.151  -5.899  1.00  0.00     0.217 C 
HETATM   19  O   UNL     1     -20.116  -7.033  -6.286  1.00  0.00    -0.274 OA
HETATM   20  N   UNL     1     -20.914  -4.925  -6.492  1.00  0.00    -0.357 N 
HETATM   21  H   UNL     1     -21.590  -4.220  -6.221  1.00  0.00     0.162 HD
BRANCH  20  22
HETATM   22  C   UNL     1     -20.042  -4.655  -7.613  1.00  0.00     0.161 C 
BRANCH  22  23
HETATM   23  C   UNL     1     -20.796  -4.591  -8.921  1.00  0.00    -0.038 A 
HETATM   24  C   UNL     1     -20.109  -4.452 -10.136  1.00  0.00     0.012 A 
HETATM   25  C   UNL     1     -20.810  -4.329 -11.336  1.00  0.00     0.040 A 
HETATM   26  C   UNL     1     -22.206  -4.348 -11.338  1.00  0.00     0.099 A 
HETATM   27  C   UNL     1     -22.918  -4.515 -10.142  1.00  0.00     0.101 A 
HETATM   28  C   UNL     1     -22.200  -4.656  -8.944  1.00  0.00     0.048 A 
BRANCH  26  29
HETATM   29  O   UNL     1     -22.858  -4.197 -12.534  1.00  0.00    -0.358 OA
HETATM   30  H   UNL     1     -23.515  -4.890 -12.663  1.00  0.00     0.217 HD
ENDBRANCH  26  29
BRANCH  27  31
HETATM   31  O   UNL     1     -24.288  -4.542  -9.999  1.00  0.00    -0.353 OA
HETATM   32  C   UNL     1     -24.928  -3.303  -9.699  1.00  0.00     0.210 C 
ENDBRANCH  27  31
ENDBRANCH  22  23
ENDBRANCH  20  22
ENDBRANCH  17  18
ENDBRANCH   1  17
TORSDOF 19
ENDMDL
MODEL 2
REMARK VINA RESULT:      -7.2      1.381      2.094
REMARK  19 active torsions:
REMARK  status: ('A' for Active; 'I' for Inactive)
REMARK    1  A    between atoms: C_2  and  C_3 
REMARK    2  A    between atoms: C_3  and  C_4 
REMARK    3  A    between atoms: C_4  and  C_5 
REMARK    4  A    between atoms: C_5  and  C_6 
REMARK    5  A    between atoms: C_6  and  C_7 
REMARK    6  A    between atoms: C_7  and  C_8 
REMARK    7  A    between atoms: C_8  and  C_9 
REMARK    8  A    between atoms: C_10  and  C_11 
REMARK    9  A    between atoms: C_11  and  C_12 
REMARK   10  A    between atoms: C_12  and  C_13 
REMARK   11  A    between atoms: C_13  and  C_14 
REMARK   12  A    between atoms: C_14  and  C_15 
REMARK   13  A    between atoms: C_15  and  C_16 
REMARK   14  A    between atoms: C_16  and  C_17 
REMARK   15  A    between atoms: C_17  and  C_18 
REMARK       I    between atoms: C_18  and  N_20 
REMARK   16  A    between atoms: N_20  and  C_21 
REMARK   17  A    between atoms: C_21  and  C_22 
REMARK   18  A    between atoms: C_25  and  O_26 
REMARK   19  A    between atoms: C_27  and  O_28 
ROOT
HETATM    1  C   UNL     1     -21.789  -7.635  -4.038  1.00  0.00     0.009 C 
ENDROOT
BRANCH   1   2
HETATM    2  C   UNL     1     -21.154  -7.081  -2.773  1.00  0.00     0.000 C 
BRANCH   2   3
HETATM    3  C   UNL     1     -22.206  -6.670  -1.755  1.00  0.00     0.000 C 
BRANCH   3   4
HETATM    4  C   UNL     1     -21.915  -7.292  -0.399  1.00  0.00     0.000 C 
BRANCH   4   5
HETATM    5  C   UNL     1     -22.983  -8.315  -0.026  1.00  0.00     0.004 C 
BRANCH   5   6
HETATM    6  C   UNL     1     -22.422  -9.728  -0.092  1.00  0.00     0.027 C 
BRANCH   6   7
HETATM    7  C   UNL     1     -22.938 -10.451  -1.284  1.00  0.00    -0.031 C 
HETATM    8  C   UNL     1     -22.204 -10.610  -2.399  1.00  0.00    -0.031 C 
BRANCH   8   9
HETATM    9  C   UNL     1     -22.726 -11.335  -3.592  1.00  0.00     0.027 C 
BRANCH   9  10
HETATM   10  C   UNL     1     -21.587 -11.697  -4.532  1.00  0.00     0.004 C 
BRANCH  10  11
HETATM   11  C   UNL     1     -20.265 -11.199  -3.972  1.00  0.00     0.000 C 
BRANCH  11  12
HETATM   12  C   UNL     1     -19.414 -10.613  -5.085  1.00  0.00     0.000 C 
BRANCH  12  13
HETATM   13  C   UNL     1     -18.458  -9.576  -4.519  1.00  0.00     0.000 C 
BRANCH  13  14
HETATM   14  C   UNL     1     -18.384  -9.704  -3.007  1.00  0.00    -0.000 C 
BRANCH  14  15
HETATM   15  C   UNL     1     -16.954  -9.987  -2.570  1.00  0.00    -0.005 C 
HETATM   16  C   UNL     1     -15.989  -9.636  -3.686  1.00  0.00     0.005 C 
ENDBRANCH  14  15
ENDBRANCH  13  14
ENDBRANCH  12  13
ENDBRANCH  11  12
ENDBRANCH  10  11
ENDBRANCH   9  10
ENDBRANCH   8   9
ENDBRANCH   6   7
ENDBRANCH   5   6
ENDBRANCH   4   5
ENDBRANCH   3   4
ENDBRANCH   2   3
ENDBRANCH   1   2
BRANCH   1  17
HETATM   17  C   UNL     1     -21.013  -7.219  -5.291  1.00  0.00     0.103 C 
BRANCH  17  18
HETATM   18  C   UNL     1     -21.532  -5.907  -5.859  1.00  0.00     0.217 C 
HETATM   19  O   UNL     1     -22.717  -5.546  -5.729  1.00  0.00    -0.274 OA
HETATM   20  N   UNL     1     -20.647  -5.136  -6.550  1.00  0.00    -0.357 N 
HETATM   21  H   UNL     1     -19.669  -5.394  -6.612  1.00  0.00     0.162 HD
BRANCH  20  22
HETATM   22  C   UNL     1     -21.065  -3.864  -7.096  1.00  0.00     0.161 C 
BRANCH  22  23
HETATM   23  C   UNL     1     -21.283  -3.928  -8.589  1.00  0.00    -0.038 A 
HETATM   24  C   UNL     1     -20.220  -4.220  -9.456  1.00  0.00     0.012 A 
HETATM   25  C   UNL     1     -20.409  -4.215 -10.838  1.00  0.00     0.040 A 
HETATM   26  C   UNL     1     -21.666  -3.924 -11.372  1.00  0.00     0.099 A 
HETATM   27  C   UNL     1     -22.754  -3.657 -10.529  1.00  0.00     0.101 A 
HETATM   28  C   UNL     1     -22.553  -3.683  -9.139  1.00  0.00     0.048 A 
BRANCH  26  29
HETATM   29  O   UNL     1     -21.805  -3.902 -12.735  1.00  0.00    -0.358 OA
HETATM   30  H   UNL     1     -22.525  -3.319 -13.002  1.00  0.00     0.217 HD
ENDBRANCH  26  29
BRANCH  27  31
HETATM   31  O   UNL     1     -24.038  -3.345 -10.920  1.00  0.00    -0.353 OA
HETATM   32  C   UNL     1     -25.029  -3.296  -9.894  1.00  0.00     0.210 C 
ENDBRANCH  27  31
ENDBRANCH  22  23
ENDBRANCH  20  22
ENDBRANCH  17  18
ENDBRANCH   1  17
TORSDOF 19
ENDMDL
MODEL 3
REMARK VINA RESULT:      -7.2      1.944      3.688
REMARK  19 active torsions:
REMARK  status: ('A' for Active; 'I' for Inactive)
REMARK    1  A    between atoms: C_2  and  C_3 
REMARK    2  A    between atoms: C_3  and  C_4 
REMARK    3  A    between atoms: C_4  and  C_5 
REMARK    4  A    between atoms: C_5  and  C_6 
REMARK    5  A    between atoms: C_6  and  C_7 
REMARK    6  A    between atoms: C_7  and  C_8 
REMARK    7  A    between atoms: C_8  and  C_9 
REMARK    8  A    between atoms: C_10  and  C_11 
REMARK    9  A    between atoms: C_11  and  C_12 
REMARK   10  A    between atoms: C_12  and  C_13 
REMARK   11  A    between atoms: C_13  and  C_14 
REMARK   12  A    between atoms: C_14  and  C_15 
REMARK   13  A    between atoms: C_15  and  C_16 
REMARK   14  A    between atoms: C_16  and  C_17 
REMARK   15  A    between atoms: C_17  and  C_18 
REMARK       I    between atoms: C_18  and  N_20 
REMARK   16  A    between atoms: N_20  and  C_21 
REMARK   17  A    between atoms: C_21  and  C_22 
REMARK   18  A    between atoms: C_25  and  O_26 
REMARK   19  A    between atoms: C_27  and  O_28 
ROOT
HETATM    1  C   UNL     1     -20.029  -7.980  -5.121  1.00  0.00     0.009 C 
ENDROOT
BRANCH   1   2
HETATM    2  C   UNL     1     -20.263  -8.333  -3.661  1.00  0.00     0.000 C 
BRANCH   2   3
HETATM    3  C   UNL     1     -21.612  -7.824  -3.176  1.00  0.00     0.000 C 
BRANCH   3   4
HETATM    4  C   UNL     1     -21.437  -6.609  -2.279  1.00  0.00     0.000 C 
BRANCH   4   5
HETATM    5  C   UNL     1     -22.382  -6.669  -1.085  1.00  0.00     0.004 C 
BRANCH   5   6
HETATM    6  C   UNL     1     -21.928  -7.728  -0.091  1.00  0.00     0.027 C 
BRANCH   6   7
HETATM    7  C   UNL     1     -23.010  -8.715   0.166  1.00  0.00    -0.031 C 
HETATM    8  C   UNL     1     -22.980  -9.960  -0.344  1.00  0.00    -0.031 C 
BRANCH   8   9
HETATM    9  C   UNL     1     -24.067 -10.946  -0.085  1.00  0.00     0.027 C 
BRANCH   9  10
HETATM   10  C   UNL     1     -23.961 -12.118  -1.048  1.00  0.00     0.004 C 
BRANCH  10  11
HETATM   11  C   UNL     1     -23.533 -13.371  -0.304  1.00  0.00     0.000 C 
BRANCH  11  12
HETATM   12  C   UNL     1     -23.477 -13.100   1.189  1.00  0.00     0.000 C 
BRANCH  12  13
HETATM   13  C   UNL     1     -22.205 -13.686   1.778  1.00  0.00     0.000 C 
BRANCH  13  14
HETATM   14  C   UNL     1     -22.544 -14.615   2.932  1.00  0.00    -0.000 C 
BRANCH  14  15
HETATM   15  C   UNL     1     -24.048 -14.654   3.155  1.00  0.00    -0.005 C 
HETATM   16  C   UNL     1     -24.554 -16.079   3.043  1.00  0.00     0.005 C 
ENDBRANCH  14  15
ENDBRANCH  13  14
ENDBRANCH  12  13
ENDBRANCH  11  12
ENDBRANCH  10  11
ENDBRANCH   9  10
ENDBRANCH   8   9
ENDBRANCH   6   7
ENDBRANCH   5   6
ENDBRANCH   4   5
ENDBRANCH   3   4
ENDBRANCH   2   3
ENDBRANCH   1   2
BRANCH   1  17
HETATM   17  C   UNL     1     -21.225  -7.237  -5.724  1.00  0.00     0.103 C 
BRANCH  17  18
HETATM   18  C   UNL     1     -20.823  -5.868  -6.250  1.00  0.00     0.217 C 
HETATM   19  O   UNL     1     -20.512  -4.927  -5.495  1.00  0.00    -0.274 OA
HETATM   20  N   UNL     1     -20.838  -5.693  -7.601  1.00  0.00    -0.357 N 
HETATM   21  H   UNL     1     -21.035  -6.467  -8.224  1.00  0.00     0.162 HD
BRANCH  20  22
HETATM   22  C   UNL     1     -20.444  -4.425  -8.173  1.00  0.00     0.161 C 
BRANCH  22  23
HETATM   23  C   UNL     1     -21.075  -4.187  -9.525  1.00  0.00    -0.038 A 
HETATM   24  C   UNL     1     -20.344  -4.401 -10.703  1.00  0.00     0.012 A 
HETATM   25  C   UNL     1     -20.907  -4.120 -11.947  1.00  0.00     0.040 A 
HETATM   26  C   UNL     1     -22.210  -3.625 -12.032  1.00  0.00     0.099 A 
HETATM   27  C   UNL     1     -22.974  -3.429 -10.872  1.00  0.00     0.101 A 
HETATM   28  C   UNL     1     -22.401  -3.734  -9.627  1.00  0.00     0.048 A 
BRANCH  26  29
HETATM   29  O   UNL     1     -22.718  -3.335 -13.271  1.00  0.00    -0.358 OA
HETATM   30  H   UNL     1     -22.460  -2.450 -13.554  1.00  0.00     0.217 HD
ENDBRANCH  26  29
BRANCH  27  31
HETATM   31  O   UNL     1     -24.261  -2.940 -10.810  1.00  0.00    -0.353 OA
HETATM   32  C   UNL     1     -25.052  -3.348  -9.695  1.00  0.00     0.210 C 
ENDBRANCH  27  31
ENDBRANCH  22  23
ENDBRANCH  20  22
ENDBRANCH  17  18
ENDBRANCH   1  17
TORSDOF 19
ENDMDL
MODEL 4
REMARK VINA RESULT:      -7.1      1.403      2.527
REMARK  19 active torsions:
REMARK  status: ('A' for Active; 'I' for Inactive)
REMARK    1  A    between atoms: C_2  and  C_3 
REMARK    2  A    between atoms: C_3  and  C_4 
REMARK    3  A    between atoms: C_4  and  C_5 
REMARK    4  A    between atoms: C_5  and  C_6 
REMARK    5  A    between atoms: C_6  and  C_7 
REMARK    6  A    between atoms: C_7  and  C_8 
REMARK    7  A    between atoms: C_8  and  C_9 
REMARK    8  A    between atoms: C_10  and  C_11 
REMARK    9  A    between atoms: C_11  and  C_12 
REMARK   10  A    between atoms: C_12  and  C_13 
REMARK   11  A    between atoms: C_13  and  C_14 
REMARK   12  A    between atoms: C_14  and  C_15 
REMARK   13  A    between atoms: C_15  and  C_16 
REMARK   14  A    between atoms: C_16  and  C_17 
REMARK   15  A    between atoms: C_17  and  C_18 
REMARK       I    between atoms: C_18  and  N_20 
REMARK   16  A    between atoms: N_20  and  C_21 
REMARK   17  A    between atoms: C_21  and  C_22 
REMARK   18  A    between atoms: C_25  and  O_26 
REMARK   19  A    between atoms: C_27  and  O_28 
ROOT
HETATM    1  C   UNL     1     -20.884  -7.047  -4.102  1.00  0.00     0.009 C 
ENDROOT
BRANCH   1   2
HETATM    2  C   UNL     1     -21.174  -5.937  -3.105  1.00  0.00     0.000 C 
BRANCH   2   3
HETATM    3  C   UNL     1     -22.286  -6.329  -2.144  1.00  0.00     0.000 C 
BRANCH   3   4
HETATM    4  C   UNL     1     -21.859  -7.503  -1.278  1.00  0.00     0.000 C 
BRANCH   4   5
HETATM    5  C   UNL     1     -22.632  -7.521   0.037  1.00  0.00     0.004 C 
BRANCH   5   6
HETATM    6  C   UNL     1     -21.871  -8.304   1.097  1.00  0.00     0.027 C 
BRANCH   6   7
HETATM    7  C   UNL     1     -21.160  -9.462   0.496  1.00  0.00    -0.031 C 
HETATM    8  C   UNL     1     -20.434 -10.320   1.235  1.00  0.00    -0.031 C 
BRANCH   8   9
HETATM    9  C   UNL     1     -19.721 -11.479   0.628  1.00  0.00     0.027 C 
BRANCH   9  10
HETATM   10  C   UNL     1     -20.701 -12.378  -0.108  1.00  0.00     0.004 C 
BRANCH  10  11
HETATM   11  C   UNL     1     -21.284 -13.409   0.843  1.00  0.00     0.000 C 
BRANCH  11  12
HETATM   12  C   UNL     1     -22.740 -13.090   1.133  1.00  0.00     0.000 C 
BRANCH  12  13
HETATM   13  C   UNL     1     -23.645 -13.958   0.274  1.00  0.00     0.000 C 
BRANCH  13  14
HETATM   14  C   UNL     1     -24.029 -13.216  -0.996  1.00  0.00    -0.000 C 
BRANCH  14  15
HETATM   15  C   UNL     1     -24.122 -11.722  -0.727  1.00  0.00    -0.005 C 
HETATM   16  C   UNL     1     -23.549 -10.946  -1.897  1.00  0.00     0.005 C 
ENDBRANCH  14  15
ENDBRANCH  13  14
ENDBRANCH  12  13
ENDBRANCH  11  12
ENDBRANCH  10  11
ENDBRANCH   9  10
ENDBRANCH   8   9
ENDBRANCH   6   7
ENDBRANCH   5   6
ENDBRANCH   4   5
ENDBRANCH   3   4
ENDBRANCH   2   3
ENDBRANCH   1   2
BRANCH   1  17
HETATM   17  C   UNL     1     -21.655  -6.847  -5.411  1.00  0.00     0.103 C 
BRANCH  17  18
HETATM   18  C   UNL     1     -20.794  -6.172  -6.468  1.00  0.00     0.217 C 
HETATM   19  O   UNL     1     -19.790  -6.720  -6.961  1.00  0.00    -0.274 OA
HETATM   20  N   UNL     1     -21.149  -4.913  -6.846  1.00  0.00    -0.357 N 
HETATM   21  H   UNL     1     -21.995  -4.481  -6.492  1.00  0.00     0.162 HD
BRANCH  20  22
HETATM   22  C   UNL     1     -20.391  -4.220  -7.863  1.00  0.00     0.161 C 
BRANCH  22  23
HETATM   23  C   UNL     1     -21.094  -4.221  -9.200  1.00  0.00    -0.038 A 
HETATM   24  C   UNL     1     -20.364  -4.115 -10.393  1.00  0.00     0.012 A 
HETATM   25  C   UNL     1     -21.019  -4.051 -11.622  1.00  0.00     0.040 A 
HETATM   26  C   UNL     1     -22.414  -4.097 -11.677  1.00  0.00     0.099 A 
HETATM   27  C   UNL     1     -23.168  -4.232 -10.503  1.00  0.00     0.101 A 
HETATM   28  C   UNL     1     -22.495  -4.314  -9.273  1.00  0.00     0.048 A 
BRANCH  26  29
HETATM   29  O   UNL     1     -23.021  -4.004 -12.901  1.00  0.00    -0.358 OA
HETATM   30  H   UNL     1     -22.935  -3.115 -13.266  1.00  0.00     0.217 HD
ENDBRANCH  26  29
BRANCH  27  31
HETATM   31  O   UNL     1     -24.542  -4.279 -10.411  1.00  0.00    -0.353 OA
HETATM   32  C   UNL     1     -25.180  -3.201  -9.728  1.00  0.00     0.210 C 
ENDBRANCH  27  31
ENDBRANCH  22  23
ENDBRANCH  20  22
ENDBRANCH  17  18
ENDBRANCH   1  17
TORSDOF 19
ENDMDL
MODEL 5
REMARK VINA RESULT:      -6.9      1.176      2.095
REMARK  19 active torsions:
REMARK  status: ('A' for Active; 'I' for Inactive)
REMARK    1  A    between atoms: C_2  and  C_3 
REMARK    2  A    between atoms: C_3  and  C_4 
REMARK    3  A    between atoms: C_4  and  C_5 
REMARK    4  A    between atoms: C_5  and  C_6 
REMARK    5  A    between atoms: C_6  and  C_7 
REMARK    6  A    between atoms: C_7  and  C_8 
REMARK    7  A    between atoms: C_8  and  C_9 
REMARK    8  A    between atoms: C_10  and  C_11 
REMARK    9  A    between atoms: C_11  and  C_12 
REMARK   10  A    between atoms: C_12  and  C_13 
REMARK   11  A    between atoms: C_13  and  C_14 
REMARK   12  A    between atoms: C_14  and  C_15 
REMARK   13  A    between atoms: C_15  and  C_16 
REMARK   14  A    between atoms: C_16  and  C_17 
REMARK   15  A    between atoms: C_17  and  C_18 
REMARK       I    between atoms: C_18  and  N_20 
REMARK   16  A    between atoms: N_20  and  C_21 
REMARK   17  A    between atoms: C_21  and  C_22 
REMARK   18  A    between atoms: C_25  and  O_26 
REMARK   19  A    between atoms: C_27  and  O_28 
ROOT
HETATM    1  C   UNL     1     -21.046  -6.673  -4.343  1.00  0.00     0.009 C 
ENDROOT
BRANCH   1   2
HETATM    2  C   UNL     1     -22.064  -6.854  -3.228  1.00  0.00     0.000 C 
BRANCH   2   3
HETATM    3  C   UNL     1     -21.388  -6.976  -1.872  1.00  0.00     0.000 C 
BRANCH   3   4
HETATM    4  C   UNL     1     -22.398  -6.801  -0.749  1.00  0.00     0.000 C 
BRANCH   4   5
HETATM    5  C   UNL     1     -22.157  -7.812   0.366  1.00  0.00     0.004 C 
BRANCH   5   6
HETATM    6  C   UNL     1     -22.926  -9.098   0.103  1.00  0.00     0.027 C 
BRANCH   6   7
HETATM    7  C   UNL     1     -21.997 -10.227  -0.167  1.00  0.00    -0.031 C 
HETATM    8  C   UNL     1     -20.758 -10.276   0.354  1.00  0.00    -0.031 C 
BRANCH   8   9
HETATM    9  C   UNL     1     -19.830 -11.409   0.081  1.00  0.00     0.027 C 
BRANCH   9  10
HETATM   10  C   UNL     1     -19.647 -11.596  -1.417  1.00  0.00     0.004 C 
BRANCH  10  11
HETATM   11  C   UNL     1     -18.810 -10.463  -1.988  1.00  0.00     0.000 C 
BRANCH  11  12
HETATM   12  C   UNL     1     -19.456  -9.921  -3.251  1.00  0.00     0.000 C 
BRANCH  12  13
HETATM   13  C   UNL     1     -20.409 -10.951  -3.833  1.00  0.00     0.000 C 
BRANCH  13  14
HETATM   14  C   UNL     1     -21.755 -10.310  -4.127  1.00  0.00    -0.000 C 
BRANCH  14  15
HETATM   15  C   UNL     1     -22.882 -11.169  -3.576  1.00  0.00    -0.005 C 
HETATM   16  C   UNL     1     -22.445 -12.619  -3.506  1.00  0.00     0.005 C 
ENDBRANCH  14  15
ENDBRANCH  13  14
ENDBRANCH  12  13
ENDBRANCH  11  12
ENDBRANCH  10  11
ENDBRANCH   9  10
ENDBRANCH   8   9
ENDBRANCH   6   7
ENDBRANCH   5   6
ENDBRANCH   4   5
ENDBRANCH   3   4
ENDBRANCH   2   3
ENDBRANCH   1   2
BRANCH   1  17
HETATM   17  C   UNL     1     -21.700  -6.753  -5.726  1.00  0.00     0.103 C 
BRANCH  17  18
HETATM   18  C   UNL     1     -20.755  -6.274  -6.817  1.00  0.00     0.217 C 
HETATM   19  O   UNL     1     -19.583  -6.685  -6.914  1.00  0.00    -0.274 OA
HETATM   20  N   UNL     1     -21.234  -5.342  -7.688  1.00  0.00    -0.357 N 
HETATM   21  H   UNL     1     -22.202  -5.044  -7.651  1.00  0.00     0.162 HD
BRANCH  20  22
HETATM   22  C   UNL     1     -20.400  -4.860  -8.765  1.00  0.00     0.161 C 
BRANCH  22  23
HETATM   23  C   UNL     1     -21.206  -4.202  -9.861  1.00  0.00    -0.038 A 
HETATM   24  C   UNL     1     -20.570  -3.475 -10.878  1.00  0.00     0.012 A 
HETATM   25  C   UNL     1     -21.319  -2.815 -11.852  1.00  0.00     0.040 A 
HETATM   26  C   UNL     1     -22.714  -2.877 -11.825  1.00  0.00     0.099 A 
HETATM   27  C   UNL     1     -23.375  -3.620 -10.837  1.00  0.00     0.101 A 
HETATM   28  C   UNL     1     -22.608  -4.294  -9.873  1.00  0.00     0.048 A 
BRANCH  26  29
HETATM   29  O   UNL     1     -23.415  -2.192 -12.783  1.00  0.00    -0.358 OA
HETATM   30  H   UNL     1     -22.961  -1.379 -13.032  1.00  0.00     0.217 HD
ENDBRANCH  26  29
BRANCH  27  31
HETATM   31  O   UNL     1     -24.738  -3.756 -10.687  1.00  0.00    -0.353 OA
HETATM   32  C   UNL     1     -25.324  -3.142  -9.540  1.00  0.00     0.210 C 
ENDBRANCH  27  31
ENDBRANCH  22  23
ENDBRANCH  20  22
ENDBRANCH  17  18
ENDBRANCH   1  17
TORSDOF 19
ENDMDL
MODEL 6
REMARK VINA RESULT:      -6.7      1.141      1.828
REMARK  19 active torsions:
REMARK  status: ('A' for Active; 'I' for Inactive)
REMARK    1  A    between atoms: C_2  and  C_3 
REMARK    2  A    between atoms: C_3  and  C_4 
REMARK    3  A    between atoms: C_4  and  C_5 
REMARK    4  A    between atoms: C_5  and  C_6 
REMARK    5  A    between atoms: C_6  and  C_7 
REMARK    6  A    between atoms: C_7  and  C_8 
REMARK    7  A    between atoms: C_8  and  C_9 
REMARK    8  A    between atoms: C_10  and  C_11 
REMARK    9  A    between atoms: C_11  and  C_12 
REMARK   10  A    between atoms: C_12  and  C_13 
REMARK   11  A    between atoms: C_13  and  C_14 
REMARK   12  A    between atoms: C_14  and  C_15 
REMARK   13  A    between atoms: C_15  and  C_16 
REMARK   14  A    between atoms: C_16  and  C_17 
REMARK   15  A    between atoms: C_17  and  C_18 
REMARK       I    between atoms: C_18  and  N_20 
REMARK   16  A    between atoms: N_20  and  C_21 
REMARK   17  A    between atoms: C_21  and  C_22 
REMARK   18  A    between atoms: C_25  and  O_26 
REMARK   19  A    between atoms: C_27  and  O_28 
ROOT
HETATM    1  C   UNL     1     -20.579  -7.039  -3.856  1.00  0.00     0.009 C 
ENDROOT
BRANCH   1   2
HETATM    2  C   UNL     1     -21.764  -7.280  -2.934  1.00  0.00     0.000 C 
BRANCH   2   3
HETATM    3  C   UNL     1     -21.352  -7.222  -1.472  1.00  0.00     0.000 C 
BRANCH   3   4
HETATM    4  C   UNL     1     -22.573  -7.099  -0.574  1.00  0.00     0.000 C 
BRANCH   4   5
HETATM    5  C   UNL     1     -22.424  -7.963   0.673  1.00  0.00     0.004 C 
BRANCH   5   6
HETATM    6  C   UNL     1     -21.100  -8.713   0.654  1.00  0.00     0.027 C 
BRANCH   6   7
HETATM    7  C   UNL     1     -21.316 -10.169   0.446  1.00  0.00    -0.031 C 
HETATM    8  C   UNL     1     -22.539 -10.690   0.247  1.00  0.00    -0.031 C 
BRANCH   8   9
HETATM    9  C   UNL     1     -22.752 -12.151   0.039  1.00  0.00     0.027 C 
BRANCH   9  10
HETATM   10  C   UNL     1     -23.663 -12.390  -1.155  1.00  0.00     0.004 C 
BRANCH  10  11
HETATM   11  C   UNL     1     -23.454 -11.306  -2.199  1.00  0.00     0.000 C 
BRANCH  11  12
HETATM   12  C   UNL     1     -22.499 -11.792  -3.275  1.00  0.00     0.000 C 
BRANCH  12  13
HETATM   13  C   UNL     1     -21.430 -10.745  -3.536  1.00  0.00     0.000 C 
BRANCH  13  14
HETATM   14  C   UNL     1     -20.083 -11.237  -3.035  1.00  0.00    -0.000 C 
BRANCH  14  15
HETATM   15  C   UNL     1     -19.278 -10.082  -2.461  1.00  0.00    -0.005 C 
HETATM   16  C   UNL     1     -17.796 -10.323  -2.673  1.00  0.00     0.005 C 
ENDBRANCH  14  15
ENDBRANCH  13  14
ENDBRANCH  12  13
ENDBRANCH  11  12
ENDBRANCH  10  11
ENDBRANCH   9  10
ENDBRANCH   8   9
ENDBRANCH   6   7
ENDBRANCH   5   6
ENDBRANCH   4   5
ENDBRANCH   3   4
ENDBRANCH   2   3
ENDBRANCH   1   2
BRANCH   1  17
HETATM   17  C   UNL     1     -20.958  -7.233  -5.327  1.00  0.00     0.103 C 
BRANCH  17  18
HETATM   18  C   UNL     1     -20.660  -5.988  -6.148  1.00  0.00     0.217 C 
HETATM   19  O   UNL     1     -20.384  -4.893  -5.624  1.00  0.00    -0.274 OA
HETATM   20  N   UNL     1     -20.731  -6.106  -7.503  1.00  0.00    -0.357 N 
HETATM   21  H   UNL     1     -20.900  -7.005  -7.940  1.00  0.00     0.162 HD
BRANCH  20  22
HETATM   22  C   UNL     1     -20.436  -4.970  -8.347  1.00  0.00     0.161 C 
BRANCH  22  23
HETATM   23  C   UNL     1     -21.667  -4.444  -9.049  1.00  0.00    -0.038 A 
HETATM   24  C   UNL     1     -22.786  -4.026  -8.313  1.00  0.00     0.012 A 
HETATM   25  C   UNL     1     -23.944  -3.602  -8.964  1.00  0.00     0.040 A 
HETATM   26  C   UNL     1     -23.998  -3.586 -10.360  1.00  0.00     0.099 A 
HETATM   27  C   UNL     1     -22.885  -3.971 -11.120  1.00  0.00     0.101 A 
HETATM   28  C   UNL     1     -21.719  -4.378 -10.452  1.00  0.00     0.048 A 
BRANCH  26  29
HETATM   29  O   UNL     1     -25.163  -3.189 -10.961  1.00  0.00    -0.358 OA
HETATM   30  H   UNL     1     -25.691  -3.949 -11.233  1.00  0.00     0.217 HD
ENDBRANCH  26  29
BRANCH  27  31
HETATM   31  O   UNL     1     -22.805  -4.012 -12.495  1.00  0.00    -0.353 OA
HETATM   32  C   UNL     1     -22.799  -2.760 -13.178  1.00  0.00     0.210 C 
ENDBRANCH  27  31
ENDBRANCH  22  23
ENDBRANCH  20  22
ENDBRANCH  17  18
ENDBRANCH   1  17
TORSDOF 19
ENDMDL
MODEL 7
REMARK VINA RESULT:      -6.7      4.081      9.736
REMARK  19 active torsions:
REMARK  status: ('A' for Active; 'I' for Inactive)
REMARK    1  A    between atoms: C_2  and  C_3 
REMARK    2  A    between atoms: C_3  and  C_4 
REMARK    3  A    between atoms: C_4  and  C_5 
REMARK    4  A    between atoms: C_5  and  C_6 
REMARK    5  A    between atoms: C_6  and  C_7 
REMARK    6  A    between atoms: C_7  and  C_8 
REMARK    7  A    between atoms: C_8  and  C_9 
REMARK    8  A    between atoms: C_10  and  C_11 
REMARK    9  A    between atoms: C_11  and  C_12 
REMARK   10  A    between atoms: C_12  and  C_13 
REMARK   11  A    between atoms: C_13  and  C_14 
REMARK   12  A    between atoms: C_14  and  C_15 
REMARK   13  A    between atoms: C_15  and  C_16 
REMARK   14  A    between atoms: C_16  and  C_17 
REMARK   15  A    between atoms: C_17  and  C_18 
REMARK       I    between atoms: C_18  and  N_20 
REMARK   16  A    between atoms: N_20  and  C_21 
REMARK   17  A    between atoms: C_21  and  C_22 
REMARK   18  A    between atoms: C_25  and  O_26 
REMARK   19  A    between atoms: C_27  and  O_28 
ROOT
HETATM    1  C   UNL     1     -22.724  -7.736  -0.284  1.00  0.00     0.009 C 
ENDROOT
BRANCH   1   2
HETATM    2  C   UNL     1     -22.176  -6.450  -0.883  1.00  0.00     0.000 C 
BRANCH   2   3
HETATM    3  C   UNL     1     -22.272  -6.458  -2.400  1.00  0.00     0.000 C 
BRANCH   3   4
HETATM    4  C   UNL     1     -21.060  -7.141  -3.013  1.00  0.00     0.000 C 
BRANCH   4   5
HETATM    5  C   UNL     1     -21.379  -7.677  -4.404  1.00  0.00     0.004 C 
BRANCH   5   6
HETATM    6  C   UNL     1     -20.314  -7.250  -5.403  1.00  0.00     0.027 C 
BRANCH   6   7
HETATM    7  C   UNL     1     -20.867  -6.286  -6.391  1.00  0.00    -0.031 C 
HETATM    8  C   UNL     1     -20.843  -4.957  -6.187  1.00  0.00    -0.031 C 
BRANCH   8   9
HETATM    9  C   UNL     1     -21.400  -3.995  -7.179  1.00  0.00     0.027 C 
BRANCH   9  10
HETATM   10  C   UNL     1     -21.415  -4.614  -8.568  1.00  0.00     0.004 C 
BRANCH  10  11
HETATM   11  C   UNL     1     -20.170  -4.206  -9.337  1.00  0.00     0.000 C 
BRANCH  11  12
HETATM   12  C   UNL     1     -20.424  -4.300 -10.832  1.00  0.00     0.000 C 
BRANCH  12  13
HETATM   13  C   UNL     1     -21.918  -4.379 -11.103  1.00  0.00     0.000 C 
BRANCH  13  14
HETATM   14  C   UNL     1     -22.392  -3.110 -11.791  1.00  0.00    -0.000 C 
BRANCH  14  15
HETATM   15  C   UNL     1     -23.908  -3.009 -11.728  1.00  0.00    -0.005 C 
HETATM   16  C   UNL     1     -24.402  -3.444 -10.362  1.00  0.00     0.005 C 
ENDBRANCH  14  15
ENDBRANCH  13  14
ENDBRANCH  12  13
ENDBRANCH  11  12
ENDBRANCH  10  11
ENDBRANCH   9  10
ENDBRANCH   8   9
ENDBRANCH   6   7
ENDBRANCH   5   6
ENDBRANCH   4   5
ENDBRANCH   3   4
ENDBRANCH   2   3
ENDBRANCH   1   2
BRANCH   1  17
HETATM   17  C   UNL     1     -21.867  -8.226   0.887  1.00  0.00     0.103 C 
BRANCH  17  18
HETATM   18  C   UNL     1     -21.159  -9.529   0.552  1.00  0.00     0.217 C 
HETATM   19  O   UNL     1     -20.547 -10.195   1.408  1.00  0.00    -0.274 OA
HETATM   20  N   UNL     1     -21.195  -9.940  -0.746  1.00  0.00    -0.357 N 
HETATM   21  H   UNL     1     -21.737  -9.434  -1.437  1.00  0.00     0.162 HD
BRANCH  20  22
HETATM   22  C   UNL     1     -20.564 -11.181  -1.132  1.00  0.00     0.161 C 
BRANCH  22  23
HETATM   23  C   UNL     1     -19.196 -10.964  -1.736  1.00  0.00    -0.038 A 
HETATM   24  C   UNL     1     -19.044 -10.208  -2.908  1.00  0.00     0.012 A 
HETATM   25  C   UNL     1     -17.789 -10.062  -3.499  1.00  0.00     0.040 A 
HETATM   26  C   UNL     1     -16.668 -10.665  -2.924  1.00  0.00     0.099 A 
HETATM   27  C   UNL     1     -16.786 -11.402  -1.737  1.00  0.00     0.101 A 
HETATM   28  C   UNL     1     -18.052 -11.526  -1.143  1.00  0.00     0.048 A 
BRANCH  26  29
HETATM   29  O   UNL     1     -15.458 -10.521  -3.550  1.00  0.00    -0.358 OA
HETATM   30  H   UNL     1     -15.464 -10.939  -4.419  1.00  0.00     0.217 HD
ENDBRANCH  26  29
BRANCH  27  31
HETATM   31  O   UNL     1     -15.771 -12.054  -1.072  1.00  0.00    -0.353 OA
HETATM   32  C   UNL     1     -15.784 -11.982   0.353  1.00  0.00     0.210 C 
ENDBRANCH  27  31
ENDBRANCH  22  23
ENDBRANCH  20  22
ENDBRANCH  17  18
ENDBRANCH   1  17
TORSDOF 19
ENDMDL
MODEL 8
REMARK VINA RESULT:      -6.4      3.138      8.842
REMARK  19 active torsions:
REMARK  status: ('A' for Active; 'I' for Inactive)
REMARK    1  A    between atoms: C_2  and  C_3 
REMARK    2  A    between atoms: C_3  and  C_4 
REMARK    3  A    between atoms: C_4  and  C_5 
REMARK    4  A    between atoms: C_5  and  C_6 
REMARK    5  A    between atoms: C_6  and  C_7 
REMARK    6  A    between atoms: C_7  and  C_8 
REMARK    7  A    between atoms: C_8  and  C_9 
REMARK    8  A    between atoms: C_10  and  C_11 
REMARK    9  A    between atoms: C_11  and  C_12 
REMARK   10  A    between atoms: C_12  and  C_13 
REMARK   11  A    between atoms: C_13  and  C_14 
REMARK   12  A    between atoms: C_14  and  C_15 
REMARK   13  A    between atoms: C_15  and  C_16 
REMARK   14  A    between atoms: C_16  and  C_17 
REMARK   15  A    between atoms: C_17  and  C_18 
REMARK       I    between atoms: C_18  and  N_20 
REMARK   16  A    between atoms: N_20  and  C_21 
REMARK   17  A    between atoms: C_21  and  C_22 
REMARK   18  A    between atoms: C_25  and  O_26 
REMARK   19  A    between atoms: C_27  and  O_28 
ROOT
HETATM    1  C   UNL     1     -22.703  -7.713  -0.358  1.00  0.00     0.009 C 
ENDROOT
BRANCH   1   2
HETATM    2  C   UNL     1     -22.050  -6.445  -0.884  1.00  0.00     0.000 C 
BRANCH   2   3
HETATM    3  C   UNL     1     -22.240  -6.303  -2.386  1.00  0.00     0.000 C 
BRANCH   3   4
HETATM    4  C   UNL     1     -21.182  -7.093  -3.139  1.00  0.00     0.000 C 
BRANCH   4   5
HETATM    5  C   UNL     1     -21.675  -7.482  -4.528  1.00  0.00     0.004 C 
BRANCH   5   6
HETATM    6  C   UNL     1     -20.615  -7.185  -5.579  1.00  0.00     0.027 C 
BRANCH   6   7
HETATM    7  C   UNL     1     -21.110  -6.191  -6.567  1.00  0.00    -0.031 C 
HETATM    8  C   UNL     1     -20.973  -4.866  -6.381  1.00  0.00    -0.031 C 
BRANCH   8   9
HETATM    9  C   UNL     1     -21.471  -3.873  -7.374  1.00  0.00     0.027 C 
BRANCH   9  10
HETATM   10  C   UNL     1     -21.470  -4.473  -8.771  1.00  0.00     0.004 C 
BRANCH  10  11
HETATM   11  C   UNL     1     -20.202  -4.078  -9.511  1.00  0.00     0.000 C 
BRANCH  11  12
HETATM   12  C   UNL     1     -20.409  -4.208 -11.010  1.00  0.00     0.000 C 
BRANCH  12  13
HETATM   13  C   UNL     1     -21.893  -4.299 -11.326  1.00  0.00     0.000 C 
BRANCH  13  14
HETATM   14  C   UNL     1     -22.351  -3.045 -12.049  1.00  0.00    -0.000 C 
BRANCH  14  15
HETATM   15  C   UNL     1     -23.869  -2.955 -12.043  1.00  0.00    -0.005 C 
HETATM   16  C   UNL     1     -24.406  -3.317 -10.671  1.00  0.00     0.005 C 
ENDBRANCH  14  15
ENDBRANCH  13  14
ENDBRANCH  12  13
ENDBRANCH  11  12
ENDBRANCH  10  11
ENDBRANCH   9  10
ENDBRANCH   8   9
ENDBRANCH   6   7
ENDBRANCH   5   6
ENDBRANCH   4   5
ENDBRANCH   3   4
ENDBRANCH   2   3
ENDBRANCH   1   2
BRANCH   1  17
HETATM   17  C   UNL     1     -21.891  -8.338   0.781  1.00  0.00     0.103 C 
BRANCH  17  18
HETATM   18  C   UNL     1     -21.067  -9.521   0.294  1.00  0.00     0.217 C 
HETATM   19  O   UNL     1     -20.765 -10.475   1.036  1.00  0.00    -0.274 OA
HETATM   20  N   UNL     1     -20.641  -9.490  -0.999  1.00  0.00    -0.357 N 
HETATM   21  H   UNL     1     -20.928  -8.747  -1.625  1.00  0.00     0.162 HD
BRANCH  20  22
HETATM   22  C   UNL     1     -19.875 -10.592  -1.536  1.00  0.00     0.161 C 
BRANCH  22  23
HETATM   23  C   UNL     1     -20.222 -10.879  -2.978  1.00  0.00    -0.038 A 
HETATM   24  C   UNL     1     -21.559 -10.906  -3.400  1.00  0.00     0.012 A 
HETATM   25  C   UNL     1     -21.881 -11.235  -4.717  1.00  0.00     0.040 A 
HETATM   26  C   UNL     1     -20.869 -11.536  -5.632  1.00  0.00     0.099 A 
HETATM   27  C   UNL     1     -19.522 -11.489  -5.245  1.00  0.00     0.101 A 
HETATM   28  C   UNL     1     -19.212 -11.139  -3.921  1.00  0.00     0.048 A 
BRANCH  26  29
HETATM   29  O   UNL     1     -21.227 -11.881  -6.908  1.00  0.00    -0.358 OA
HETATM   30  H   UNL     1     -21.733 -12.702  -6.919  1.00  0.00     0.217 HD
ENDBRANCH  26  29
BRANCH  27  31
HETATM   31  O   UNL     1     -18.431 -11.772  -6.037  1.00  0.00    -0.353 OA
HETATM   32  C   UNL     1     -17.272 -10.962  -5.849  1.00  0.00     0.210 C 
ENDBRANCH  27  31
ENDBRANCH  22  23
ENDBRANCH  20  22
ENDBRANCH  17  18
ENDBRANCH   1  17
TORSDOF 19
ENDMDL
MODEL 9
REMARK VINA RESULT:      -6.4      1.680      3.137
REMARK  19 active torsions:
REMARK  status: ('A' for Active; 'I' for Inactive)
REMARK    1  A    between atoms: C_2  and  C_3 
REMARK    2  A    between atoms: C_3  and  C_4 
REMARK    3  A    between atoms: C_4  and  C_5 
REMARK    4  A    between atoms: C_5  and  C_6 
REMARK    5  A    between atoms: C_6  and  C_7 
REMARK    6  A    between atoms: C_7  and  C_8 
REMARK    7  A    between atoms: C_8  and  C_9 
REMARK    8  A    between atoms: C_10  and  C_11 
REMARK    9  A    between atoms: C_11  and  C_12 
REMARK   10  A    between atoms: C_12  and  C_13 
REMARK   11  A    between atoms: C_13  and  C_14 
REMARK   12  A    between atoms: C_14  and  C_15 
REMARK   13  A    between atoms: C_15  and  C_16 
REMARK   14  A    between atoms: C_16  and  C_17 
REMARK   15  A    between atoms: C_17  and  C_18 
REMARK       I    between atoms: C_18  and  N_20 
REMARK   16  A    between atoms: N_20  and  C_21 
REMARK   17  A    between atoms: C_21  and  C_22 
REMARK   18  A    between atoms: C_25  and  O_26 
REMARK   19  A    between atoms: C_27  and  O_28 
ROOT
HETATM    1  C   UNL     1     -21.344  -8.696  -4.420  1.00  0.00     0.009 C 
ENDROOT
BRANCH   1   2
HETATM    2  C   UNL     1     -20.200  -9.410  -5.122  1.00  0.00     0.000 C 
BRANCH   2   3
HETATM    3  C   UNL     1     -20.298 -10.918  -4.953  1.00  0.00     0.000 C 
BRANCH   3   4
HETATM    4  C   UNL     1     -20.182 -11.303  -3.486  1.00  0.00     0.000 C 
BRANCH   4   5
HETATM    5  C   UNL     1     -18.999 -10.601  -2.829  1.00  0.00     0.004 C 
BRANCH   5   6
HETATM    6  C   UNL     1     -18.800 -11.099  -1.405  1.00  0.00     0.027 C 
BRANCH   6   7
HETATM    7  C   UNL     1     -19.755 -12.193  -1.086  1.00  0.00    -0.031 C 
HETATM    8  C   UNL     1     -20.398 -12.262   0.093  1.00  0.00    -0.031 C 
BRANCH   8   9
HETATM    9  C   UNL     1     -21.354 -13.361   0.409  1.00  0.00     0.027 C 
BRANCH   9  10
HETATM   10  C   UNL     1     -22.609 -12.802   1.061  1.00  0.00     0.004 C 
BRANCH  10  11
HETATM   11  C   UNL     1     -23.644 -12.464   0.002  1.00  0.00     0.000 C 
BRANCH  11  12
HETATM   12  C   UNL     1     -23.805 -10.958  -0.111  1.00  0.00     0.000 C 
BRANCH  12  13
HETATM   13  C   UNL     1     -23.134 -10.455  -1.378  1.00  0.00     0.000 C 
BRANCH  13  14
HETATM   14  C   UNL     1     -22.197  -9.305  -1.052  1.00  0.00    -0.000 C 
BRANCH  14  15
HETATM   15  C   UNL     1     -22.511  -8.742   0.326  1.00  0.00    -0.005 C 
HETATM   16  C   UNL     1     -21.246  -8.662   1.157  1.00  0.00     0.005 C 
ENDBRANCH  14  15
ENDBRANCH  13  14
ENDBRANCH  12  13
ENDBRANCH  11  12
ENDBRANCH  10  11
ENDBRANCH   9  10
ENDBRANCH   8   9
ENDBRANCH   6   7
ENDBRANCH   5   6
ENDBRANCH   4   5
ENDBRANCH   3   4
ENDBRANCH   2   3
ENDBRANCH   1   2
BRANCH   1  17
HETATM   17  C   UNL     1     -21.044  -7.207  -4.220  1.00  0.00     0.103 C 
BRANCH  17  18
HETATM   18  C   UNL     1     -22.008  -6.334  -5.009  1.00  0.00     0.217 C 
HETATM   19  O   UNL     1     -23.224  -6.277  -4.746  1.00  0.00    -0.274 OA
HETATM   20  N   UNL     1     -21.492  -5.622  -6.049  1.00  0.00    -0.357 N 
HETATM   21  H   UNL     1     -20.496  -5.618  -6.235  1.00  0.00     0.162 HD
BRANCH  20  22
HETATM   22  C   UNL     1     -22.346  -4.752  -6.827  1.00  0.00     0.161 C 
BRANCH  22  23
HETATM   23  C   UNL     1     -21.804  -4.514  -8.217  1.00  0.00    -0.038 A 
HETATM   24  C   UNL     1     -20.487  -4.872  -8.542  1.00  0.00     0.012 A 
HETATM   25  C   UNL     1     -19.969  -4.593  -9.807  1.00  0.00     0.040 A 
HETATM   26  C   UNL     1     -20.760  -3.956 -10.764  1.00  0.00     0.099 A 
HETATM   27  C   UNL     1     -22.089  -3.613 -10.476  1.00  0.00     0.101 A 
HETATM   28  C   UNL     1     -22.604  -3.916  -9.206  1.00  0.00     0.048 A 
BRANCH  26  29
HETATM   29  O   UNL     1     -20.206  -3.675 -11.985  1.00  0.00    -0.358 OA
HETATM   30  H   UNL     1     -20.372  -4.385 -12.616  1.00  0.00     0.217 HD
ENDBRANCH  26  29
BRANCH  27  31
HETATM   31  O   UNL     1     -22.973  -2.976 -11.319  1.00  0.00    -0.353 OA
HETATM   32  C   UNL     1     -23.702  -3.799 -12.229  1.00  0.00     0.210 C 
ENDBRANCH  27  31
ENDBRANCH  22  23
ENDBRANCH  20  22
ENDBRANCH  17  18
ENDBRANCH   1  17
TORSDOF 19
ENDMDL
