MODEL 1
REMARK VINA RESULT:      -5.9      0.000      0.000
REMARK  8 active torsions:
REMARK  status: ('A' for Active; 'I' for Inactive)
REMARK    1  A    between atoms: C_2  and  C_4 
REMARK    2  A    between atoms: C_4  and  C_23 
REMARK    3  A    between atoms: C_4  and  N_16 
REMARK       I    between atoms: N_16  and  C_17 
REMARK    4  A    between atoms: C_17  and  C_18 
REMARK    5  A    between atoms: C_18  and  C_19 
REMARK    6  A    between atoms: C_18  and  N_21 
REMARK    7  A    between atoms: C_19  and  Se_20 
REMARK    8  A    between atoms: C_23  and  C_24 
ROOT
HETATM    1  C           1     -23.159  -3.686  -9.300  0.00  0.00     0.191 C 
ENDROOT
BRANCH   1   2
HETATM    2  C           1     -24.652  -3.733  -9.521  0.00  0.00     0.197 C 
HETATM    3  O           1     -25.221  -4.831  -9.710  0.00  0.00    -0.646 OA
HETATM    4  O           1     -25.318  -2.676  -9.516  0.00  0.00    -0.646 OA
ENDBRANCH   1   2
BRANCH   1   5
HETATM    5  C           1     -22.470  -4.615 -10.290  0.00  0.00     0.094 C 
BRANCH   5   6
HETATM    6  C           1     -22.688  -4.109 -11.682  0.00  0.00     0.028 A 
HETATM    7  C           1     -21.873  -3.206 -12.323  0.00  0.00     0.114 A 
HETATM    8  N           1     -22.439  -3.031 -13.555  0.00  0.00    -0.360 N 
HETATM    9  H           1     -22.083  -2.405 -14.319  0.00  0.00     0.166 HD
HETATM   10  C           1     -23.553  -3.818 -13.612  0.00  0.00     0.180 A 
HETATM   11  N           1     -23.729  -4.483 -12.493  0.00  0.00    -0.354 N 
ATOM     12  HN          1     -24.481  -5.136 -12.273  1.00  0.00     0.166 HD
ENDBRANCH   5   6
ENDBRANCH   1   5
BRANCH   1  13
HETATM   13  N           1     -22.859  -4.114  -7.947  0.00  0.00    -0.344 N 
HETATM   14  H           1     -23.590  -4.498  -7.363  0.00  0.00     0.163 HD
HETATM   15  C           1     -21.585  -3.997  -7.460  0.00  0.00     0.249 C 
HETATM   16  O           1     -21.244  -2.986  -6.893  0.00  0.00    -0.271 OA
BRANCH  15  17
HETATM   17  C           1     -20.603  -5.131  -7.632  0.00  0.00     0.274 C 
BRANCH  17  18
HETATM   18  C           1     -21.074  -6.337  -6.829  0.00  0.00     0.045 C 
BRANCH  18  19
HETATM   19 Se           1     -21.013  -5.914  -4.927  0.00  0.00     0.000 Se
HETATM   20  H           1     -21.412  -7.265  -4.497  0.00  0.00     0.000 HD
ENDBRANCH  18  19
ENDBRANCH  17  18
BRANCH  17  21
HETATM   21  N           1     -19.252  -4.701  -7.143  0.00  0.00    -0.067 N 
HETATM   22  H           1     -19.272  -4.608  -6.102  0.00  0.00     0.275 HD
HETATM   23  H           1     -19.004  -3.780  -7.571  0.00  0.00     0.275 HD
HETATM   24  H           1     -18.539  -5.414  -7.416  0.00  0.00     0.275 HD
ENDBRANCH  17  21
ENDBRANCH  15  17
ENDBRANCH   1  13
TORSDOF 8
ENDMDL
MODEL 2
REMARK VINA RESULT:      -5.6      3.001      4.481
REMARK  8 active torsions:
REMARK  status: ('A' for Active; 'I' for Inactive)
REMARK    1  A    between atoms: C_2  and  C_4 
REMARK    2  A    between atoms: C_4  and  C_23 
REMARK    3  A    between atoms: C_4  and  N_16 
REMARK       I    between atoms: N_16  and  C_17 
REMARK    4  A    between atoms: C_17  and  C_18 
REMARK    5  A    between atoms: C_18  and  C_19 
REMARK    6  A    between atoms: C_18  and  N_21 
REMARK    7  A    between atoms: C_19  and  Se_20 
REMARK    8  A    between atoms: C_23  and  C_24 
ROOT
HETATM    1  C           1     -21.259  -5.924  -7.207  0.00  0.00     0.191 C 
ENDROOT
BRANCH   1   2
HETATM    2  C           1     -19.765  -5.863  -7.000  0.00  0.00     0.197 C 
HETATM    3  O           1     -19.115  -6.917  -6.829  0.00  0.00    -0.646 OA
HETATM    4  O           1     -19.179  -4.759  -6.999  0.00  0.00    -0.646 OA
ENDBRANCH   1   2
BRANCH   1   5
HETATM    5  C           1     -21.859  -4.541  -6.987  0.00  0.00     0.094 C 
BRANCH   5   6
HETATM    6  C           1     -22.618  -4.127  -8.209  0.00  0.00     0.028 A 
HETATM    7  C           1     -22.051  -3.889  -9.438  0.00  0.00     0.114 A 
HETATM    8  N           1     -23.096  -3.541 -10.249  0.00  0.00    -0.360 N 
HETATM    9  H           1     -23.036  -3.289 -11.266  0.00  0.00     0.166 HD
HETATM   10  C           1     -24.233  -3.579  -9.493  0.00  0.00     0.180 A 
HETATM   11  N           1     -23.975  -3.930  -8.254  0.00  0.00    -0.354 N 
ATOM     12  HN          1     -24.641  -4.033  -7.489  1.00  0.00     0.166 HD
ENDBRANCH   5   6
ENDBRANCH   1   5
BRANCH   1  13
HETATM   13  N           1     -21.839  -6.857  -6.262  0.00  0.00    -0.344 N 
HETATM   14  H           1     -21.885  -7.843  -6.486  0.00  0.00     0.163 HD
HETATM   15  C           1     -22.326  -6.406  -5.065  0.00  0.00     0.249 C 
HETATM   16  O           1     -23.480  -6.062  -4.971  0.00  0.00    -0.271 OA
BRANCH  15  17
HETATM   17  C           1     -21.419  -6.335  -3.859  0.00  0.00     0.274 C 
BRANCH  17  18
HETATM   18  C           1     -20.732  -7.680  -3.661  0.00  0.00     0.045 C 
BRANCH  18  19
HETATM   19 Se           1     -20.610  -8.074  -1.756  0.00  0.00     0.000 Se
HETATM   20  H           1     -21.352  -9.342  -1.853  0.00  0.00     0.000 HD
ENDBRANCH  18  19
ENDBRANCH  17  18
BRANCH  17  21
HETATM   21  N           1     -22.230  -6.004  -2.642  0.00  0.00    -0.067 N 
HETATM   22  H           1     -21.922  -6.604  -1.844  0.00  0.00     0.275 HD
HETATM   23  H           1     -23.242  -6.181  -2.840  0.00  0.00     0.275 HD
HETATM   24  H           1     -22.096  -4.999  -2.395  0.00  0.00     0.275 HD
ENDBRANCH  17  21
ENDBRANCH  15  17
ENDBRANCH   1  13
TORSDOF 8
ENDMDL
MODEL 3
REMARK VINA RESULT:      -5.5      2.738      3.427
REMARK  8 active torsions:
REMARK  status: ('A' for Active; 'I' for Inactive)
REMARK    1  A    between atoms: C_2  and  C_4 
REMARK    2  A    between atoms: C_4  and  C_23 
REMARK    3  A    between atoms: C_4  and  N_16 
REMARK       I    between atoms: N_16  and  C_17 
REMARK    4  A    between atoms: C_17  and  C_18 
REMARK    5  A    between atoms: C_18  and  C_19 
REMARK    6  A    between atoms: C_18  and  N_21 
REMARK    7  A    between atoms: C_19  and  Se_20 
REMARK    8  A    between atoms: C_23  and  C_24 
ROOT
HETATM    1  C           1     -21.723  -5.031  -7.685  0.00  0.00     0.191 C 
ENDROOT
BRANCH   1   2
HETATM    2  C           1     -20.222  -5.112  -7.818  0.00  0.00     0.197 C 
HETATM    3  O           1     -19.654  -6.226  -7.824  0.00  0.00    -0.646 OA
HETATM    4  O           1     -19.546  -4.066  -7.921  0.00  0.00    -0.646 OA
ENDBRANCH   1   2
BRANCH   1   5
HETATM    5  C           1     -22.236  -3.818  -8.449  0.00  0.00     0.094 C 
BRANCH   5   6
HETATM    6  C           1     -22.542  -4.210  -9.861  0.00  0.00     0.028 A 
HETATM    7  C           1     -21.707  -3.994 -10.931  0.00  0.00     0.114 A 
HETATM    8  N           1     -22.375  -4.502 -12.010  0.00  0.00    -0.360 N 
HETATM    9  H           1     -22.036  -4.511 -13.003  0.00  0.00     0.166 HD
HETATM   10  C           1     -23.566  -4.996 -11.560  0.00  0.00     0.180 A 
HETATM   11  N           1     -23.695  -4.833 -10.264  0.00  0.00    -0.354 N 
ATOM     12  HN          1     -24.485  -5.110  -9.681  1.00  0.00     0.166 HD
ENDBRANCH   5   6
ENDBRANCH   1   5
BRANCH   1  13
HETATM   13  N           1     -22.077  -4.905  -6.284  0.00  0.00    -0.344 N 
HETATM   14  H           1     -22.858  -4.324  -6.010  0.00  0.00     0.163 HD
HETATM   15  C           1     -21.353  -5.571  -5.333  0.00  0.00     0.249 C 
HETATM   16  O           1     -20.391  -5.045  -4.825  0.00  0.00    -0.271 OA
BRANCH  15  17
HETATM   17  C           1     -21.756  -6.966  -4.918  0.00  0.00     0.274 C 
BRANCH  17  18
HETATM   18  C           1     -21.141  -7.290  -3.562  0.00  0.00     0.045 C 
BRANCH  18  19
HETATM   19 Se           1     -22.133  -6.368  -2.161  0.00  0.00     0.000 Se
HETATM   20  H           1     -22.450  -5.198  -2.996  0.00  0.00     0.000 HD
ENDBRANCH  18  19
ENDBRANCH  17  18
BRANCH  17  21
HETATM   21  N           1     -21.266  -7.951  -5.937  0.00  0.00    -0.067 N 
HETATM   22  H           1     -21.763  -8.861  -5.809  0.00  0.00     0.275 HD
HETATM   23  H           1     -20.237  -8.097  -5.814  0.00  0.00     0.275 HD
HETATM   24  H           1     -21.452  -7.583  -6.896  0.00  0.00     0.275 HD
ENDBRANCH  17  21
ENDBRANCH  15  17
ENDBRANCH   1  13
TORSDOF 8
ENDMDL
MODEL 4
REMARK VINA RESULT:      -5.5      2.303      2.760
REMARK  8 active torsions:
REMARK  status: ('A' for Active; 'I' for Inactive)
REMARK    1  A    between atoms: C_2  and  C_4 
REMARK    2  A    between atoms: C_4  and  C_23 
REMARK    3  A    between atoms: C_4  and  N_16 
REMARK       I    between atoms: N_16  and  C_17 
REMARK    4  A    between atoms: C_17  and  C_18 
REMARK    5  A    between atoms: C_18  and  C_19 
REMARK    6  A    between atoms: C_18  and  N_21 
REMARK    7  A    between atoms: C_19  and  Se_20 
REMARK    8  A    between atoms: C_23  and  C_24 
ROOT
HETATM    1  C           1     -21.627  -4.215  -9.518  0.00  0.00     0.191 C 
ENDROOT
BRANCH   1   2
HETATM    2  C           1     -20.572  -3.900 -10.550  0.00  0.00     0.197 C 
HETATM    3  O           1     -20.410  -2.722 -10.938  0.00  0.00    -0.646 OA
HETATM    4  O           1     -19.861  -4.815 -11.018  0.00  0.00    -0.646 OA
ENDBRANCH   1   2
BRANCH   1   5
HETATM    5  C           1     -22.870  -3.378  -9.791  0.00  0.00     0.094 C 
BRANCH   5   6
HETATM    6  C           1     -23.259  -3.517 -11.229  0.00  0.00     0.028 A 
HETATM    7  C           1     -23.605  -4.702 -11.834  0.00  0.00     0.114 A 
HETATM    8  N           1     -23.882  -4.369 -13.131  0.00  0.00    -0.360 N 
HETATM    9  H           1     -24.182  -5.028 -13.891  0.00  0.00     0.166 HD
HETATM   10  C           1     -23.696  -3.023 -13.259  0.00  0.00     0.180 A 
HETATM   11  N           1     -23.318  -2.480 -12.124  0.00  0.00    -0.354 N 
ATOM     12  HN          1     -23.112  -1.497 -11.947  1.00  0.00     0.166 HD
ENDBRANCH   5   6
ENDBRANCH   1   5
BRANCH   1  13
HETATM   13  N           1     -21.116  -3.906  -8.197  0.00  0.00    -0.344 N 
HETATM   14  H           1     -21.407  -3.058  -7.727  0.00  0.00     0.163 HD
HETATM   15  C           1     -20.241  -4.762  -7.584  0.00  0.00     0.249 C 
HETATM   16  O           1     -19.051  -4.627  -7.744  0.00  0.00    -0.271 OA
BRANCH  15  17
HETATM   17  C           1     -20.762  -5.876  -6.708  0.00  0.00     0.274 C 
BRANCH  17  18
HETATM   18  C           1     -21.014  -5.342  -5.304  0.00  0.00     0.045 C 
BRANCH  18  19
HETATM   19 Se           1     -21.434  -6.825  -4.110  0.00  0.00     0.000 Se
HETATM   20  H           1     -21.374  -6.008  -2.887  0.00  0.00     0.000 HD
ENDBRANCH  18  19
ENDBRANCH  17  18
BRANCH  17  21
HETATM   21  N           1     -19.748  -6.980  -6.649  0.00  0.00    -0.067 N 
HETATM   22  H           1     -19.466  -7.246  -7.619  0.00  0.00     0.275 HD
HETATM   23  H           1     -20.165  -7.810  -6.167  0.00  0.00     0.275 HD
HETATM   24  H           1     -18.910  -6.656  -6.117  0.00  0.00     0.275 HD
ENDBRANCH  17  21
ENDBRANCH  15  17
ENDBRANCH   1  13
TORSDOF 8
ENDMDL
MODEL 5
REMARK VINA RESULT:      -5.4     10.679     12.245
REMARK  8 active torsions:
REMARK  status: ('A' for Active; 'I' for Inactive)
REMARK    1  A    between atoms: C_2  and  C_4 
REMARK    2  A    between atoms: C_4  and  C_23 
REMARK    3  A    between atoms: C_4  and  N_16 
REMARK       I    between atoms: N_16  and  C_17 
REMARK    4  A    between atoms: C_17  and  C_18 
REMARK    5  A    between atoms: C_18  and  C_19 
REMARK    6  A    between atoms: C_18  and  N_21 
REMARK    7  A    between atoms: C_19  and  Se_20 
REMARK    8  A    between atoms: C_23  and  C_24 
ROOT
HETATM    1  C           1     -32.563  -4.725 -16.380  0.00  0.00     0.191 C 
ENDROOT
BRANCH   1   2
HETATM    2  C           1     -32.357  -3.507 -17.247  0.00  0.00     0.197 C 
HETATM    3  O           1     -31.201  -3.079 -17.459  0.00  0.00    -0.646 OA
HETATM    4  O           1     -33.341  -2.926 -17.753  0.00  0.00    -0.646 OA
ENDBRANCH   1   2
BRANCH   1   5
HETATM    5  C           1     -32.351  -5.983 -17.213  0.00  0.00     0.094 C 
BRANCH   5   6
HETATM    6  C           1     -30.929  -6.430 -17.088  0.00  0.00     0.028 A 
HETATM    7  C           1     -30.322  -7.349 -17.910  0.00  0.00     0.114 A 
HETATM    8  N           1     -29.043  -7.456 -17.441  0.00  0.00    -0.360 N 
HETATM    9  H           1     -28.287  -8.072 -17.829  0.00  0.00     0.166 HD
HETATM   10  C           1     -28.926  -6.614 -16.372  0.00  0.00     0.180 A 
HETATM   11  N           1     -30.052  -5.980 -16.134  0.00  0.00    -0.354 N 
ATOM     12  HN          1     -30.234  -5.299 -15.397  1.00  0.00     0.166 HD
ENDBRANCH   5   6
ENDBRANCH   1   5
BRANCH   1  13
HETATM   13  N           1     -33.914  -4.718 -15.852  0.00  0.00    -0.344 N 
HETATM   14  H           1     -34.604  -5.361 -16.218  0.00  0.00     0.163 HD
HETATM   15  C           1     -34.255  -3.841 -14.858  0.00  0.00     0.249 C 
HETATM   16  O           1     -34.682  -2.746 -15.137  0.00  0.00    -0.271 OA
BRANCH  15  17
HETATM   17  C           1     -34.096  -4.242 -13.410  0.00  0.00     0.274 C 
BRANCH  17  18
HETATM   18  C           1     -34.713  -3.174 -12.517  0.00  0.00     0.045 C 
BRANCH  18  19
HETATM   19 Se           1     -33.524  -2.816 -11.014  0.00  0.00     0.000 Se
HETATM   20  H           1     -34.021  -1.447 -10.798  0.00  0.00     0.000 HD
ENDBRANCH  18  19
ENDBRANCH  17  18
BRANCH  17  21
HETATM   21  N           1     -32.637  -4.381 -13.088  0.00  0.00    -0.067 N 
HETATM   22  H           1     -32.095  -3.656 -13.609  0.00  0.00     0.275 HD
HETATM   23  H           1     -32.308  -5.332 -13.371  0.00  0.00     0.275 HD
HETATM   24  H           1     -32.493  -4.254 -12.061  0.00  0.00     0.275 HD
ENDBRANCH  17  21
ENDBRANCH  15  17
ENDBRANCH   1  13
TORSDOF 8
ENDMDL
MODEL 6
REMARK VINA RESULT:      -5.4      3.268      6.083
REMARK  8 active torsions:
REMARK  status: ('A' for Active; 'I' for Inactive)
REMARK    1  A    between atoms: C_2  and  C_4 
REMARK    2  A    between atoms: C_4  and  C_23 
REMARK    3  A    between atoms: C_4  and  N_16 
REMARK       I    between atoms: N_16  and  C_17 
REMARK    4  A    between atoms: C_17  and  C_18 
REMARK    5  A    between atoms: C_18  and  C_19 
REMARK    6  A    between atoms: C_18  and  N_21 
REMARK    7  A    between atoms: C_19  and  Se_20 
REMARK    8  A    between atoms: C_23  and  C_24 
ROOT
HETATM    1  C           1     -21.635  -3.764  -9.340  0.00  0.00     0.191 C 
ENDROOT
BRANCH   1   2
HETATM    2  C           1     -20.572  -3.856 -10.407  0.00  0.00     0.197 C 
HETATM    3  O           1     -19.988  -4.942 -10.616  0.00  0.00    -0.646 OA
HETATM    4  O           1     -20.273  -2.847 -11.081  0.00  0.00    -0.646 OA
ENDBRANCH   1   2
BRANCH   1   5
HETATM    5  C           1     -21.897  -5.150  -8.764  0.00  0.00     0.094 C 
BRANCH   5   6
HETATM    6  C           1     -21.211  -5.277  -7.440  0.00  0.00     0.028 A 
HETATM    7  C           1     -20.914  -4.224  -6.609  0.00  0.00     0.114 A 
HETATM    8  N           1     -20.298  -4.789  -5.527  0.00  0.00    -0.360 N 
HETATM    9  H           1     -19.931  -4.281  -4.685  0.00  0.00     0.166 HD
HETATM   10  C           1     -20.246  -6.137  -5.741  0.00  0.00     0.180 A 
HETATM   11  N           1     -20.791  -6.462  -6.891  0.00  0.00    -0.354 N 
ATOM     12  HN          1     -20.881  -7.396  -7.291  1.00  0.00     0.166 HD
ENDBRANCH   5   6
ENDBRANCH   1   5
BRANCH   1  13
HETATM   13  N           1     -22.858  -3.244  -9.921  0.00  0.00    -0.344 N 
HETATM   14  H           1     -23.167  -2.307  -9.696  0.00  0.00     0.163 HD
HETATM   15  C           1     -23.594  -4.021 -10.775  0.00  0.00     0.249 C 
HETATM   16  O           1     -24.464  -4.739 -10.342  0.00  0.00    -0.271 OA
BRANCH  15  17
HETATM   17  C           1     -23.320  -3.981 -12.259  0.00  0.00     0.274 C 
BRANCH  17  18
HETATM   18  C           1     -23.750  -2.632 -12.819  0.00  0.00     0.045 C 
BRANCH  18  19
HETATM   19 Se           1     -23.086  -2.443 -14.642  0.00  0.00     0.000 Se
HETATM   20  H           1     -22.173  -3.594 -14.552  0.00  0.00     0.000 HD
ENDBRANCH  18  19
ENDBRANCH  17  18
BRANCH  17  21
HETATM   21  N           1     -24.091  -5.073 -12.939  0.00  0.00    -0.067 N 
HETATM   22  H           1     -25.094  -4.793 -13.019  0.00  0.00     0.275 HD
HETATM   23  H           1     -24.018  -5.952 -12.377  0.00  0.00     0.275 HD
HETATM   24  H           1     -23.697  -5.237 -13.892  0.00  0.00     0.275 HD
ENDBRANCH  17  21
ENDBRANCH  15  17
ENDBRANCH   1  13
TORSDOF 8
ENDMDL
MODEL 7
REMARK VINA RESULT:      -5.4      3.369      5.757
REMARK  8 active torsions:
REMARK  status: ('A' for Active; 'I' for Inactive)
REMARK    1  A    between atoms: C_2  and  C_4 
REMARK    2  A    between atoms: C_4  and  C_23 
REMARK    3  A    between atoms: C_4  and  N_16 
REMARK       I    between atoms: N_16  and  C_17 
REMARK    4  A    between atoms: C_17  and  C_18 
REMARK    5  A    between atoms: C_18  and  C_19 
REMARK    6  A    between atoms: C_18  and  N_21 
REMARK    7  A    between atoms: C_19  and  Se_20 
REMARK    8  A    between atoms: C_23  and  C_24 
ROOT
HETATM    1  C           1     -22.863  -4.096  -9.965  0.00  0.00     0.191 C 
ENDROOT
BRANCH   1   2
HETATM    2  C           1     -24.016  -5.036 -10.222  0.00  0.00     0.197 C 
HETATM    3  O           1     -23.897  -5.956 -11.061  0.00  0.00    -0.646 OA
HETATM    4  O           1     -25.089  -4.895  -9.597  0.00  0.00    -0.646 OA
ENDBRANCH   1   2
BRANCH   1   5
HETATM    5  C           1     -22.694  -3.898  -8.464  0.00  0.00     0.094 C 
BRANCH   5   6
HETATM    6  C           1     -21.397  -4.502  -8.024  0.00  0.00     0.028 A 
HETATM    7  C           1     -21.252  -5.784  -7.552  0.00  0.00     0.114 A 
HETATM    8  N           1     -19.919  -5.910  -7.271  0.00  0.00    -0.360 N 
HETATM    9  H           1     -19.443  -6.763  -6.889  0.00  0.00     0.166 HD
HETATM   10  C           1     -19.321  -4.721  -7.578  0.00  0.00     0.180 A 
HETATM   11  N           1     -20.190  -3.850  -8.036  0.00  0.00    -0.354 N 
ATOM     12  HN          1     -20.007  -2.892  -8.335  1.00  0.00     0.166 HD
ENDBRANCH   5   6
ENDBRANCH   1   5
BRANCH   1  13
HETATM   13  N           1     -23.134  -2.818 -10.593  0.00  0.00    -0.344 N 
HETATM   14  H           1     -23.005  -1.960 -10.072  0.00  0.00     0.163 HD
HETATM   15  C           1     -23.564  -2.771 -11.892  0.00  0.00     0.249 C 
HETATM   16  O           1     -24.746  -2.801 -12.140  0.00  0.00    -0.271 OA
BRANCH  15  17
HETATM   17  C           1     -22.560  -2.683 -13.017  0.00  0.00     0.274 C 
BRANCH  17  18
HETATM   18  C           1     -23.279  -2.825 -14.352  0.00  0.00     0.045 C 
BRANCH  18  19
HETATM   19 Se           1     -23.541  -1.062 -15.140  0.00  0.00     0.000 Se
HETATM   20  H           1     -22.234  -0.545 -14.702  0.00  0.00     0.000 HD
ENDBRANCH  18  19
ENDBRANCH  17  18
BRANCH  17  21
HETATM   21  N           1     -21.551  -3.784 -12.873  0.00  0.00    -0.067 N 
HETATM   22  H           1     -21.168  -3.780 -11.901  0.00  0.00     0.275 HD
HETATM   23  H           1     -20.773  -3.635 -13.556  0.00  0.00     0.275 HD
HETATM   24  H           1     -22.008  -4.704 -13.064  0.00  0.00     0.275 HD
ENDBRANCH  17  21
ENDBRANCH  15  17
ENDBRANCH   1  13
TORSDOF 8
ENDMDL
MODEL 8
REMARK VINA RESULT:      -5.2      3.216      6.702
REMARK  8 active torsions:
REMARK  status: ('A' for Active; 'I' for Inactive)
REMARK    1  A    between atoms: C_2  and  C_4 
REMARK    2  A    between atoms: C_4  and  C_23 
REMARK    3  A    between atoms: C_4  and  N_16 
REMARK       I    between atoms: N_16  and  C_17 
REMARK    4  A    between atoms: C_17  and  C_18 
REMARK    5  A    between atoms: C_18  and  C_19 
REMARK    6  A    between atoms: C_18  and  N_21 
REMARK    7  A    between atoms: C_19  and  Se_20 
REMARK    8  A    between atoms: C_23  and  C_24 
ROOT
HETATM    1  C           1     -21.094  -4.689  -6.454  0.00  0.00     0.191 C 
ENDROOT
BRANCH   1   2
HETATM    2  C           1     -19.841  -5.235  -7.094  0.00  0.00     0.197 C 
HETATM    3  O           1     -18.806  -4.534  -7.138  0.00  0.00    -0.646 OA
HETATM    4  O           1     -19.837  -6.385  -7.581  0.00  0.00    -0.646 OA
ENDBRANCH   1   2
BRANCH   1   5
HETATM    5  C           1     -22.048  -5.837  -6.148  0.00  0.00     0.094 C 
BRANCH   5   6
HETATM    6  C           1     -21.668  -6.467  -4.844  0.00  0.00     0.028 A 
HETATM    7  C           1     -21.227  -7.761  -4.701  0.00  0.00     0.114 A 
HETATM    8  N           1     -20.999  -7.911  -3.361  0.00  0.00    -0.360 N 
HETATM    9  H           1     -20.653  -8.779  -2.883  0.00  0.00     0.166 HD
HETATM   10  C           1     -21.305  -6.726  -2.757  0.00  0.00     0.180 A 
HETATM   11  N           1     -21.713  -5.833  -3.629  0.00  0.00    -0.354 N 
ATOM     12  HN          1     -22.003  -4.873  -3.443  1.00  0.00     0.166 HD
ENDBRANCH   5   6
ENDBRANCH   1   5
BRANCH   1  13
HETATM   13  N           1     -21.734  -3.759  -7.363  0.00  0.00    -0.344 N 
HETATM   14  H           1     -21.462  -2.784  -7.364  0.00  0.00     0.163 HD
HETATM   15  C           1     -22.708  -4.198  -8.219  0.00  0.00     0.249 C 
HETATM   16  O           1     -23.866  -4.189  -7.874  0.00  0.00    -0.271 OA
BRANCH  15  17
HETATM   17  C           1     -22.335  -4.697  -9.594  0.00  0.00     0.274 C 
BRANCH  17  18
HETATM   18  C           1     -21.397  -3.698 -10.260  0.00  0.00     0.045 C 
BRANCH  18  19
HETATM   19 Se           1     -22.244  -2.975 -11.859  0.00  0.00     0.000 Se
HETATM   20  H           1     -21.254  -1.902 -12.039  0.00  0.00     0.000 HD
ENDBRANCH  18  19
ENDBRANCH  17  18
BRANCH  17  21
HETATM   21  N           1     -23.575  -4.847 -10.424  0.00  0.00    -0.067 N 
HETATM   22  H           1     -23.468  -5.665 -11.066  0.00  0.00     0.275 HD
HETATM   23  H           1     -23.723  -3.978 -10.988  0.00  0.00     0.275 HD
HETATM   24  H           1     -24.398  -4.999  -9.799  0.00  0.00     0.275 HD
ENDBRANCH  17  21
ENDBRANCH  15  17
ENDBRANCH   1  13
TORSDOF 8
ENDMDL
MODEL 9
REMARK VINA RESULT:      -5.2      4.923      8.037
REMARK  8 active torsions:
REMARK  status: ('A' for Active; 'I' for Inactive)
REMARK    1  A    between atoms: C_2  and  C_4 
REMARK    2  A    between atoms: C_4  and  C_23 
REMARK    3  A    between atoms: C_4  and  N_16 
REMARK       I    between atoms: N_16  and  C_17 
REMARK    4  A    between atoms: C_17  and  C_18 
REMARK    5  A    between atoms: C_18  and  C_19 
REMARK    6  A    between atoms: C_18  and  N_21 
REMARK    7  A    between atoms: C_19  and  Se_20 
REMARK    8  A    between atoms: C_23  and  C_24 
ROOT
HETATM    1  C           1     -20.301  -8.009  -4.747  0.00  0.00     0.191 C 
ENDROOT
BRANCH   1   2
HETATM    2  C           1     -19.240  -9.049  -5.016  0.00  0.00     0.197 C 
HETATM    3  O           1     -19.333  -9.790  -6.019  0.00  0.00    -0.646 OA
HETATM    4  O           1     -18.271  -9.170  -4.237  0.00  0.00    -0.646 OA
ENDBRANCH   1   2
BRANCH   1   5
HETATM    5  C           1     -21.405  -8.620  -3.894  0.00  0.00     0.094 C 
BRANCH   5   6
HETATM    6  C           1     -21.767  -7.671  -2.794  0.00  0.00     0.028 A 
HETATM    7  C           1     -21.970  -6.322  -2.960  0.00  0.00     0.114 A 
HETATM    8  N           1     -22.275  -5.854  -1.712  0.00  0.00    -0.360 N 
HETATM    9  H           1     -22.493  -4.859  -1.458  0.00  0.00     0.166 HD
HETATM   10  C           1     -22.245  -6.917  -0.855  0.00  0.00     0.180 A 
HETATM   11  N           1     -21.940  -8.030  -1.482  0.00  0.00    -0.354 N 
ATOM     12  HN          1     -21.850  -8.962  -1.078  1.00  0.00     0.166 HD
ENDBRANCH   5   6
ENDBRANCH   1   5
BRANCH   1  13
HETATM   13  N           1     -20.859  -7.552  -6.005  0.00  0.00    -0.344 N 
HETATM   14  H           1     -21.623  -8.059  -6.434  0.00  0.00     0.163 HD
HETATM   15  C           1     -20.351  -6.437  -6.614  0.00  0.00     0.249 C 
HETATM   16  O           1     -19.441  -6.538  -7.402  0.00  0.00    -0.271 OA
BRANCH  15  17
HETATM   17  C           1     -20.928  -5.077  -6.300  0.00  0.00     0.274 C 
BRANCH  17  18
HETATM   18  C           1     -20.917  -4.217  -7.557  0.00  0.00     0.045 C 
BRANCH  18  19
HETATM   19 Se           1     -22.702  -4.190  -8.341  0.00  0.00     0.000 Se
HETATM   20  H           1     -22.450  -2.992  -9.158  0.00  0.00     0.000 HD
ENDBRANCH  18  19
ENDBRANCH  17  18
BRANCH  17  21
HETATM   21  N           1     -20.100  -4.417  -5.237  0.00  0.00    -0.067 N 
HETATM   22  H           1     -19.192  -4.103  -5.648  0.00  0.00     0.275 HD
HETATM   23  H           1     -19.916  -5.099  -4.465  0.00  0.00     0.275 HD
HETATM   24  H           1     -20.615  -3.592  -4.856  0.00  0.00     0.275 HD
ENDBRANCH  17  21
ENDBRANCH  15  17
ENDBRANCH   1  13
TORSDOF 8
ENDMDL
