MODEL 1
REMARK VINA RESULT:      -7.5      0.000      0.000
REMARK  11 active torsions:
REMARK  status: ('A' for Active; 'I' for Inactive)
REMARK    1  A    between atoms: C_1  and  C_6 
REMARK    2  A    between atoms: C_5  and  C_18 
REMARK    3  A    between atoms: C_5  and  C_6 
REMARK    4  A    between atoms: C_5  and  N_13 
REMARK    5  A    between atoms: O_7  and  P_27 
REMARK    6  A    between atoms: S_10  and  C_11 
REMARK    7  A    between atoms: C_11  and  C_12 
REMARK    8  A    between atoms: C_12  and  C_26 
REMARK    9  A    between atoms: C_12  and  N_16 
REMARK       I    between atoms: N_13  and  C_26 
REMARK   10  A    between atoms: O_19  and  C_21 
REMARK   11  A    between atoms: O_19  and  P_27 
ROOT
HETATM    1  C           1     -32.386  -4.517 -16.326  0.00  0.00     0.189 C 
ENDROOT
BRANCH   1   2
HETATM    2  C           1     -32.339  -3.353 -17.285  0.00  0.00     0.197 C 
HETATM    3  O           1     -33.401  -2.823 -17.677  0.00  0.00    -0.646 OA
HETATM    4  O           1     -31.239  -2.919 -17.688  0.00  0.00    -0.646 OA
ENDBRANCH   1   2
BRANCH   1   5
HETATM    5  C           1     -31.981  -5.793 -17.054  0.00  0.00     0.074 C 
BRANCH   5   6
HETATM    6  C           1     -30.620  -6.218 -16.598  0.00  0.00    -0.056 A 
HETATM    7  C           1     -29.970  -7.276 -17.233  0.00  0.00     0.010 A 
HETATM    8  C           1     -28.703  -7.672 -16.808  0.00  0.00     0.038 A 
HETATM    9  C           1     -28.085  -7.011 -15.747  0.00  0.00     0.081 A 
HETATM   10  C           1     -28.734  -5.953 -15.111  0.00  0.00     0.038 A 
HETATM   11  C           1     -30.002  -5.557 -15.537  0.00  0.00     0.010 A 
BRANCH   9  12
HETATM   12  O           1     -26.853  -7.396 -15.334  0.00  0.00    -0.247 OA
BRANCH  12  13
HETATM   13  P           1     -25.570  -6.701 -16.026  0.00  0.00     0.411 P 
HETATM   14  O           1     -24.554  -7.734 -16.330  0.00  0.00    -0.624 OA
HETATM   15  O           1     -25.985  -6.035 -17.281  0.00  0.00    -0.624 OA
BRANCH  13  16
HETATM   16  O           1     -24.942  -5.606 -15.018  0.00  0.00    -0.300 OA
HETATM   17  H           1     -25.357  -5.773 -14.189  0.00  0.00     0.223 HD
ENDBRANCH  13  16
ENDBRANCH  12  13
ENDBRANCH   9  12
ENDBRANCH   5   6
ENDBRANCH   1   5
BRANCH   1  18
HETATM   18  N           1     -33.732  -4.663 -15.809  0.00  0.00    -0.344 N 
HETATM   19  C           1     -34.142  -3.911 -14.742  0.00  0.00     0.249 C 
HETATM   20  O           1     -34.654  -2.832 -14.925  0.00  0.00    -0.271 OA
HETATM   21  H           1     -34.370  -5.323 -16.237  0.00  0.00     0.163 HD
BRANCH  19  22
HETATM   22  C           1     -33.952  -4.426 -13.337  0.00  0.00     0.283 C 
BRANCH  22  23
HETATM   23  C           1     -34.688  -3.520 -12.359  0.00  0.00     0.113 C 
BRANCH  23  24
HETATM   24  S           1     -33.556  -3.017 -11.032  0.00  0.00    -0.180 SA
HETATM   25  H           1     -34.496  -2.448 -10.254  0.00  0.00     0.101 HD
ENDBRANCH  23  24
ENDBRANCH  22  23
BRANCH  22  26
HETATM   26  N           1     -32.490  -4.440 -13.003  0.00  0.00    -0.066 N 
HETATM   27  H           1     -32.291  -5.220 -12.337  0.00  0.00     0.275 HD
HETATM   28  H           1     -31.934  -4.578 -13.877  0.00  0.00     0.275 HD
HETATM   29  H           1     -32.225  -3.530 -12.562  0.00  0.00     0.275 HD
ENDBRANCH  22  26
ENDBRANCH  19  22
ENDBRANCH   1  18
TORSDOF 11
ENDMDL
MODEL 2
REMARK VINA RESULT:      -7.1     10.209     12.881
REMARK  11 active torsions:
REMARK  status: ('A' for Active; 'I' for Inactive)
REMARK    1  A    between atoms: C_1  and  C_6 
REMARK    2  A    between atoms: C_5  and  C_18 
REMARK    3  A    between atoms: C_5  and  C_6 
REMARK    4  A    between atoms: C_5  and  N_13 
REMARK    5  A    between atoms: O_7  and  P_27 
REMARK    6  A    between atoms: S_10  and  C_11 
REMARK    7  A    between atoms: C_11  and  C_12 
REMARK    8  A    between atoms: C_12  and  C_26 
REMARK    9  A    between atoms: C_12  and  N_16 
REMARK       I    between atoms: N_13  and  C_26 
REMARK   10  A    between atoms: O_19  and  C_21 
REMARK   11  A    between atoms: O_19  and  P_27 
ROOT
HETATM    1  C           1     -21.575  -5.574  -6.687  0.00  0.00     0.189 C 
ENDROOT
BRANCH   1   2
HETATM    2  C           1     -20.075  -5.611  -6.536  0.00  0.00     0.197 C 
HETATM    3  O           1     -19.439  -6.635  -6.869  0.00  0.00    -0.646 OA
HETATM    4  O           1     -19.467  -4.620  -6.079  0.00  0.00    -0.646 OA
ENDBRANCH   1   2
BRANCH   1   5
HETATM    5  C           1     -22.007  -4.181  -7.127  0.00  0.00     0.074 C 
BRANCH   5   6
HETATM    6  C           1     -22.455  -4.225  -8.554  0.00  0.00    -0.056 A 
HETATM    7  C           1     -21.522  -4.414  -9.573  0.00  0.00     0.010 A 
HETATM    8  C           1     -21.940  -4.455 -10.903  0.00  0.00     0.038 A 
HETATM    9  C           1     -23.291  -4.306 -11.215  0.00  0.00     0.081 A 
HETATM   10  C           1     -24.225  -4.117 -10.197  0.00  0.00     0.038 A 
HETATM   11  C           1     -23.807  -4.076  -8.866  0.00  0.00     0.010 A 
BRANCH   9  12
HETATM   12  O           1     -23.697  -4.346 -12.507  0.00  0.00    -0.247 OA
BRANCH  12  13
HETATM   13  P           1     -23.971  -2.943 -13.259  0.00  0.00     0.411 P 
HETATM   14  O           1     -23.685  -3.094 -14.704  0.00  0.00    -0.624 OA
HETATM   15  O           1     -25.387  -2.553 -13.076  0.00  0.00    -0.624 OA
BRANCH  13  16
HETATM   16  O           1     -23.013  -1.802 -12.636  0.00  0.00    -0.300 OA
HETATM   17  H           1     -22.677  -1.334 -13.381  0.00  0.00     0.223 HD
ENDBRANCH  13  16
ENDBRANCH  12  13
ENDBRANCH   9  12
ENDBRANCH   5   6
ENDBRANCH   1   5
BRANCH   1  18
HETATM   18  N           1     -22.197  -5.892  -5.416  0.00  0.00    -0.344 N 
HETATM   19  C           1     -21.566  -6.727  -4.535  0.00  0.00     0.249 C 
HETATM   20  O           1     -20.811  -6.275  -3.708  0.00  0.00    -0.271 OA
HETATM   21  H           1     -23.098  -5.496  -5.180  0.00  0.00     0.163 HD
BRANCH  19  22
HETATM   22  C           1     -21.812  -8.215  -4.597  0.00  0.00     0.283 C 
BRANCH  22  23
HETATM   23  C           1     -21.581  -8.827  -3.222  0.00  0.00     0.113 C 
BRANCH  23  24
HETATM   24  S           1     -20.654 -10.377  -3.397  0.00  0.00    -0.180 SA
HETATM   25  H           1     -19.514  -9.811  -3.834  0.00  0.00     0.101 HD
ENDBRANCH  23  24
ENDBRANCH  22  23
BRANCH  22  26
HETATM   26  N           1     -20.869  -8.836  -5.585  0.00  0.00    -0.066 N 
HETATM   27  H           1     -21.358  -9.602  -6.099  0.00  0.00     0.275 HD
HETATM   28  H           1     -20.548  -8.110  -6.265  0.00  0.00     0.275 HD
HETATM   29  H           1     -20.043  -9.228  -5.078  0.00  0.00     0.275 HD
ENDBRANCH  22  26
ENDBRANCH  19  22
ENDBRANCH   1  18
TORSDOF 11
ENDMDL
MODEL 3
REMARK VINA RESULT:      -7.1     11.514     13.998
REMARK  11 active torsions:
REMARK  status: ('A' for Active; 'I' for Inactive)
REMARK    1  A    between atoms: C_1  and  C_6 
REMARK    2  A    between atoms: C_5  and  C_18 
REMARK    3  A    between atoms: C_5  and  C_6 
REMARK    4  A    between atoms: C_5  and  N_13 
REMARK    5  A    between atoms: O_7  and  P_27 
REMARK    6  A    between atoms: S_10  and  C_11 
REMARK    7  A    between atoms: C_11  and  C_12 
REMARK    8  A    between atoms: C_12  and  C_26 
REMARK    9  A    between atoms: C_12  and  N_16 
REMARK       I    between atoms: N_13  and  C_26 
REMARK   10  A    between atoms: O_19  and  C_21 
REMARK   11  A    between atoms: O_19  and  P_27 
ROOT
HETATM    1  C           1     -21.676  -6.724  -5.410  0.00  0.00     0.189 C 
ENDROOT
BRANCH   1   2
HETATM    2  C           1     -20.895  -7.997  -5.190  0.00  0.00     0.197 C 
HETATM    3  O           1     -21.487  -9.098  -5.174  0.00  0.00    -0.646 OA
HETATM    4  O           1     -19.657  -7.950  -5.024  0.00  0.00    -0.646 OA
ENDBRANCH   1   2
BRANCH   1   5
HETATM    5  C           1     -20.717  -5.594  -5.761  0.00  0.00     0.074 C 
BRANCH   5   6
HETATM    6  C           1     -21.096  -5.010  -7.086  0.00  0.00    -0.056 A 
HETATM    7  C           1     -20.209  -5.080  -8.159  0.00  0.00     0.010 A 
HETATM    8  C           1     -20.562  -4.535  -9.394  0.00  0.00     0.038 A 
HETATM    9  C           1     -21.803  -3.920  -9.555  0.00  0.00     0.081 A 
HETATM   10  C           1     -22.691  -3.849  -8.482  0.00  0.00     0.038 A 
HETATM   11  C           1     -22.337  -4.394  -7.247  0.00  0.00     0.010 A 
BRANCH   9  12
HETATM   12  O           1     -22.146  -3.391 -10.754  0.00  0.00    -0.247 OA
BRANCH  12  13
HETATM   13  P           1     -23.490  -3.936 -11.466  0.00  0.00     0.411 P 
HETATM   14  O           1     -23.753  -5.324 -11.026  0.00  0.00    -0.624 OA
HETATM   15  O           1     -24.633  -3.075 -11.088  0.00  0.00    -0.624 OA
BRANCH  13  16
HETATM   16  O           1     -23.299  -3.904 -13.069  0.00  0.00    -0.300 OA
HETATM   17  H           1     -22.369  -3.965 -13.205  0.00  0.00     0.223 HD
ENDBRANCH  13  16
ENDBRANCH  12  13
ENDBRANCH   9  12
ENDBRANCH   5   6
ENDBRANCH   1   5
BRANCH   1  18
HETATM   18  N           1     -22.399  -6.385  -4.201  0.00  0.00    -0.344 N 
HETATM   19  C           1     -21.743  -6.334  -3.001  0.00  0.00     0.249 C 
HETATM   20  O           1     -21.242  -5.299  -2.631  0.00  0.00    -0.271 OA
HETATM   21  H           1     -23.391  -6.186  -4.243  0.00  0.00     0.163 HD
BRANCH  19  22
HETATM   22  C           1     -21.642  -7.570  -2.143  0.00  0.00     0.283 C 
BRANCH  22  23
HETATM   23  C           1     -22.341  -7.324  -0.812  0.00  0.00     0.113 C 
BRANCH  23  24
HETATM   24  S           1     -21.734  -8.511   0.420  0.00  0.00    -0.180 SA
HETATM   25  H           1     -20.549  -7.907   0.625  0.00  0.00     0.101 HD
ENDBRANCH  23  24
ENDBRANCH  22  23
BRANCH  22  26
HETATM   26  N           1     -20.197  -7.892  -1.896  0.00  0.00    -0.066 N 
HETATM   27  H           1     -19.870  -7.389  -1.041  0.00  0.00     0.275 HD
HETATM   28  H           1     -20.089  -8.922  -1.757  0.00  0.00     0.275 HD
HETATM   29  H           1     -19.628  -7.589  -2.718  0.00  0.00     0.275 HD
ENDBRANCH  22  26
ENDBRANCH  19  22
ENDBRANCH   1  18
TORSDOF 11
ENDMDL
MODEL 4
REMARK VINA RESULT:      -6.5     12.845     15.153
REMARK  11 active torsions:
REMARK  status: ('A' for Active; 'I' for Inactive)
REMARK    1  A    between atoms: C_1  and  C_6 
REMARK    2  A    between atoms: C_5  and  C_18 
REMARK    3  A    between atoms: C_5  and  C_6 
REMARK    4  A    between atoms: C_5  and  N_13 
REMARK    5  A    between atoms: O_7  and  P_27 
REMARK    6  A    between atoms: S_10  and  C_11 
REMARK    7  A    between atoms: C_11  and  C_12 
REMARK    8  A    between atoms: C_12  and  C_26 
REMARK    9  A    between atoms: C_12  and  N_16 
REMARK       I    between atoms: N_13  and  C_26 
REMARK   10  A    between atoms: O_19  and  C_21 
REMARK   11  A    between atoms: O_19  and  P_27 
ROOT
HETATM    1  C           1     -20.778  -5.057  -6.184  0.00  0.00     0.189 C 
ENDROOT
BRANCH   1   2
HETATM    2  C           1     -19.642  -5.368  -7.127  0.00  0.00     0.197 C 
HETATM    3  O           1     -19.448  -6.544  -7.504  0.00  0.00    -0.646 OA
HETATM    4  O           1     -18.896  -4.451  -7.532  0.00  0.00    -0.646 OA
ENDBRANCH   1   2
BRANCH   1   5
HETATM    5  C           1     -21.596  -6.318  -5.939  0.00  0.00     0.074 C 
BRANCH   5   6
HETATM    6  C           1     -21.344  -6.816  -4.551  0.00  0.00    -0.056 A 
HETATM    7  C           1     -21.931  -6.174  -3.461  0.00  0.00     0.010 A 
HETATM    8  C           1     -21.696  -6.639  -2.168  0.00  0.00     0.038 A 
HETATM    9  C           1     -20.871  -7.745  -1.963  0.00  0.00     0.081 A 
HETATM   10  C           1     -20.283  -8.387  -3.052  0.00  0.00     0.038 A 
HETATM   11  C           1     -20.519  -7.922  -4.346  0.00  0.00     0.010 A 
BRANCH   9  12
HETATM   12  O           1     -20.642  -8.196  -0.706  0.00  0.00    -0.247 OA
BRANCH  12  13
HETATM   13  P           1     -21.812  -9.040   0.021  0.00  0.00     0.411 P 
HETATM   14  O           1     -21.206 -10.029   0.941  0.00  0.00    -0.624 OA
HETATM   15  O           1     -22.681  -8.121   0.789  0.00  0.00    -0.624 OA
BRANCH  13  16
HETATM   16  O           1     -22.693  -9.808  -1.093  0.00  0.00    -0.300 OA
HETATM   17  H           1     -22.082 -10.367  -1.544  0.00  0.00     0.223 HD
ENDBRANCH  13  16
ENDBRANCH  12  13
ENDBRANCH   9  12
ENDBRANCH   5   6
ENDBRANCH   1   5
BRANCH   1  18
HETATM   18  N           1     -21.626  -4.037  -6.769  0.00  0.00    -0.344 N 
HETATM   19  C           1     -22.798  -4.389  -7.381  0.00  0.00     0.249 C 
HETATM   20  O           1     -23.821  -4.444  -6.741  0.00  0.00    -0.271 OA
HETATM   21  H           1     -21.351  -3.064  -6.725  0.00  0.00     0.163 HD
BRANCH  19  22
HETATM   22  C           1     -22.813  -4.711  -8.855  0.00  0.00     0.283 C 
BRANCH  22  23
HETATM   23  C           1     -21.822  -3.811  -9.582  0.00  0.00     0.113 C 
BRANCH  23  24
HETATM   24  S           1     -22.021  -4.016 -11.374  0.00  0.00    -0.180 SA
HETATM   25  H           1     -21.793  -5.341 -11.391  0.00  0.00     0.101 HD
ENDBRANCH  23  24
ENDBRANCH  22  23
BRANCH  22  26
HETATM   26  N           1     -24.191  -4.481  -9.403  0.00  0.00    -0.066 N 
HETATM   27  H           1     -24.707  -3.820  -8.782  0.00  0.00     0.275 HD
HETATM   28  H           1     -24.119  -4.074 -10.363  0.00  0.00     0.275 HD
HETATM   29  H           1     -24.703  -5.391  -9.448  0.00  0.00     0.275 HD
ENDBRANCH  22  26
ENDBRANCH  19  22
ENDBRANCH   1  18
TORSDOF 11
ENDMDL
MODEL 5
REMARK VINA RESULT:      -6.3     12.609     15.196
REMARK  11 active torsions:
REMARK  status: ('A' for Active; 'I' for Inactive)
REMARK    1  A    between atoms: C_1  and  C_6 
REMARK    2  A    between atoms: C_5  and  C_18 
REMARK    3  A    between atoms: C_5  and  C_6 
REMARK    4  A    between atoms: C_5  and  N_13 
REMARK    5  A    between atoms: O_7  and  P_27 
REMARK    6  A    between atoms: S_10  and  C_11 
REMARK    7  A    between atoms: C_11  and  C_12 
REMARK    8  A    between atoms: C_12  and  C_26 
REMARK    9  A    between atoms: C_12  and  N_16 
REMARK       I    between atoms: N_13  and  C_26 
REMARK   10  A    between atoms: O_19  and  C_21 
REMARK   11  A    between atoms: O_19  and  P_27 
ROOT
HETATM    1  C           1     -20.922  -7.383  -3.703  0.00  0.00     0.189 C 
ENDROOT
BRANCH   1   2
HETATM    2  C           1     -21.556  -6.812  -2.459  0.00  0.00     0.197 C 
HETATM    3  O           1     -22.364  -5.862  -2.549  0.00  0.00    -0.646 OA
HETATM    4  O           1     -21.276  -7.290  -1.339  0.00  0.00    -0.646 OA
ENDBRANCH   1   2
BRANCH   1   5
HETATM    5  C           1     -21.939  -7.387  -4.837  0.00  0.00     0.074 C 
BRANCH   5   6
HETATM    6  C           1     -21.518  -6.410  -5.889  0.00  0.00    -0.056 A 
HETATM    7  C           1     -22.406  -5.426  -6.323  0.00  0.00     0.010 A 
HETATM    8  C           1     -22.014  -4.515  -7.304  0.00  0.00     0.038 A 
HETATM    9  C           1     -20.734  -4.588  -7.852  0.00  0.00     0.081 A 
HETATM   10  C           1     -19.845  -5.572  -7.418  0.00  0.00     0.038 A 
HETATM   11  C           1     -20.237  -6.483  -6.437  0.00  0.00     0.010 A 
BRANCH   9  12
HETATM   12  O           1     -20.353  -3.703  -8.804  0.00  0.00    -0.247 OA
BRANCH  12  13
HETATM   13  P           1     -20.606  -4.097 -10.349  0.00  0.00     0.411 P 
HETATM   14  O           1     -19.661  -5.165 -10.747  0.00  0.00    -0.624 OA
HETATM   15  O           1     -21.994  -4.581 -10.516  0.00  0.00    -0.624 OA
BRANCH  13  16
HETATM   16  O           1     -20.373  -2.798 -11.280  0.00  0.00    -0.300 OA
HETATM   17  H           1     -21.239  -2.506 -11.511  0.00  0.00     0.223 HD
ENDBRANCH  13  16
ENDBRANCH  12  13
ENDBRANCH   9  12
ENDBRANCH   5   6
ENDBRANCH   1   5
BRANCH   1  18
HETATM   18  N           1     -20.484  -8.741  -3.443  0.00  0.00    -0.344 N 
HETATM   19  C           1     -19.328  -9.208  -4.006  0.00  0.00     0.249 C 
HETATM   20  O           1     -18.277  -9.079  -3.424  0.00  0.00    -0.271 OA
HETATM   21  H           1     -21.034  -9.344  -2.845  0.00  0.00     0.163 HD
BRANCH  19  22
HETATM   22  C           1     -19.364  -9.880  -5.356  0.00  0.00     0.283 C 
BRANCH  22  23
HETATM   23  C           1     -19.391 -11.392  -5.171  0.00  0.00     0.113 C 
BRANCH  23  24
HETATM   24  S           1     -19.720 -12.192  -6.766  0.00  0.00    -0.180 SA
HETATM   25  H           1     -21.060 -12.099  -6.697  0.00  0.00     0.101 HD
ENDBRANCH  23  24
ENDBRANCH  22  23
BRANCH  22  26
HETATM   26  N           1     -18.144  -9.496  -6.140  0.00  0.00    -0.066 N 
HETATM   27  H           1     -18.152  -9.987  -7.061  0.00  0.00     0.275 HD
HETATM   28  H           1     -18.143  -8.462  -6.297  0.00  0.00     0.275 HD
HETATM   29  H           1     -17.288  -9.768  -5.607  0.00  0.00     0.275 HD
ENDBRANCH  22  26
ENDBRANCH  19  22
ENDBRANCH   1  18
TORSDOF 11
ENDMDL
MODEL 6
REMARK VINA RESULT:      -5.8     16.800     18.665
REMARK  11 active torsions:
REMARK  status: ('A' for Active; 'I' for Inactive)
REMARK    1  A    between atoms: C_1  and  C_6 
REMARK    2  A    between atoms: C_5  and  C_18 
REMARK    3  A    between atoms: C_5  and  C_6 
REMARK    4  A    between atoms: C_5  and  N_13 
REMARK    5  A    between atoms: O_7  and  P_27 
REMARK    6  A    between atoms: S_10  and  C_11 
REMARK    7  A    between atoms: C_11  and  C_12 
REMARK    8  A    between atoms: C_12  and  C_26 
REMARK    9  A    between atoms: C_12  and  N_16 
REMARK       I    between atoms: N_13  and  C_26 
REMARK   10  A    between atoms: O_19  and  C_21 
REMARK   11  A    between atoms: O_19  and  P_27 
ROOT
HETATM    1  C           1     -21.401  -8.084  -1.665  0.00  0.00     0.189 C 
ENDROOT
BRANCH   1   2
HETATM    2  C           1     -22.021  -6.738  -1.949  0.00  0.00     0.197 C 
HETATM    3  O           1     -22.053  -6.300  -3.119  0.00  0.00    -0.646 OA
HETATM    4  O           1     -22.503  -6.062  -1.015  0.00  0.00    -0.646 OA
ENDBRANCH   1   2
BRANCH   1   5
HETATM    5  C           1     -21.479  -8.375  -0.171  0.00  0.00     0.074 C 
BRANCH   5   6
HETATM    6  C           1     -22.009  -9.758   0.041  0.00  0.00    -0.056 A 
HETATM    7  C           1     -21.180 -10.751   0.561  0.00  0.00     0.010 A 
HETATM    8  C           1     -21.674 -12.040   0.759  0.00  0.00     0.038 A 
HETATM    9  C           1     -22.998 -12.337   0.436  0.00  0.00     0.081 A 
HETATM   10  C           1     -23.828 -11.344  -0.084  0.00  0.00     0.038 A 
HETATM   11  C           1     -23.333 -10.055  -0.282  0.00  0.00     0.010 A 
BRANCH   9  12
HETATM   12  O           1     -23.478 -13.589   0.629  0.00  0.00    -0.247 OA
BRANCH  12  13
HETATM   13  P           1     -23.542 -14.580  -0.645  0.00  0.00     0.411 P 
HETATM   14  O           1     -23.179 -15.951  -0.221  0.00  0.00    -0.624 OA
HETATM   15  O           1     -24.915 -14.584  -1.199  0.00  0.00    -0.624 OA
BRANCH  13  16
HETATM   16  O           1     -22.507 -14.072  -1.775  0.00  0.00    -0.300 OA
HETATM   17  H           1     -23.040 -13.902  -2.534  0.00  0.00     0.223 HD
ENDBRANCH  13  16
ENDBRANCH  12  13
ENDBRANCH   9  12
ENDBRANCH   5   6
ENDBRANCH   1   5
BRANCH   1  18
HETATM   18  N           1     -20.013  -8.075  -2.083  0.00  0.00    -0.344 N 
HETATM   19  C           1     -19.579  -8.953  -3.038  0.00  0.00     0.249 C 
HETATM   20  O           1     -19.618  -8.643  -4.205  0.00  0.00    -0.271 OA
HETATM   21  H           1     -19.364  -7.419  -1.667  0.00  0.00     0.163 HD
BRANCH  19  22
HETATM   22  C           1     -19.055 -10.309  -2.635  0.00  0.00     0.283 C 
BRANCH  22  23
HETATM   23  C           1     -17.840 -10.658  -3.485  0.00  0.00     0.113 C 
BRANCH  23  24
HETATM   24  S           1     -16.401  -9.722  -2.896  0.00  0.00    -0.180 SA
HETATM   25  H           1     -15.540 -10.756  -2.923  0.00  0.00     0.101 HD
ENDBRANCH  23  24
ENDBRANCH  22  23
BRANCH  22  26
HETATM   26  N           1     -20.124 -11.341  -2.844  0.00  0.00    -0.066 N 
HETATM   27  H           1     -20.477 -11.283  -3.825  0.00  0.00     0.275 HD
HETATM   28  H           1     -19.727 -12.292  -2.673  0.00  0.00     0.275 HD
HETATM   29  H           1     -20.911 -11.167  -2.179  0.00  0.00     0.275 HD
ENDBRANCH  22  26
ENDBRANCH  19  22
ENDBRANCH   1  18
TORSDOF 11
ENDMDL
MODEL 7
REMARK VINA RESULT:      -5.8     14.445     16.714
REMARK  11 active torsions:
REMARK  status: ('A' for Active; 'I' for Inactive)
REMARK    1  A    between atoms: C_1  and  C_6 
REMARK    2  A    between atoms: C_5  and  C_18 
REMARK    3  A    between atoms: C_5  and  C_6 
REMARK    4  A    between atoms: C_5  and  N_13 
REMARK    5  A    between atoms: O_7  and  P_27 
REMARK    6  A    between atoms: S_10  and  C_11 
REMARK    7  A    between atoms: C_11  and  C_12 
REMARK    8  A    between atoms: C_12  and  C_26 
REMARK    9  A    between atoms: C_12  and  N_16 
REMARK       I    between atoms: N_13  and  C_26 
REMARK   10  A    between atoms: O_19  and  C_21 
REMARK   11  A    between atoms: O_19  and  P_27 
ROOT
HETATM    1  C           1     -21.656  -9.642  -0.465  0.00  0.00     0.189 C 
ENDROOT
BRANCH   1   2
HETATM    2  C           1     -22.217  -8.669   0.542  0.00  0.00     0.197 C 
HETATM    3  O           1     -23.426  -8.351   0.498  0.00  0.00    -0.646 OA
HETATM    4  O           1     -21.475  -8.182   1.422  0.00  0.00    -0.646 OA
ENDBRANCH   1   2
BRANCH   1   5
HETATM    5  C           1     -20.457  -9.015  -1.164  0.00  0.00     0.074 C 
BRANCH   5   6
HETATM    6  C           1     -20.929  -8.173  -2.308  0.00  0.00    -0.056 A 
HETATM    7  C           1     -21.481  -6.915  -2.068  0.00  0.00     0.010 A 
HETATM    8  C           1     -21.921  -6.131  -3.133  0.00  0.00     0.038 A 
HETATM    9  C           1     -21.811  -6.605  -4.441  0.00  0.00     0.081 A 
HETATM   10  C           1     -21.259  -7.863  -4.682  0.00  0.00     0.038 A 
HETATM   11  C           1     -20.818  -8.647  -3.615  0.00  0.00     0.010 A 
BRANCH   9  12
HETATM   12  O           1     -22.238  -5.844  -5.476  0.00  0.00    -0.247 OA
BRANCH  12  13
HETATM   13  P           1     -21.126  -5.104  -6.384  0.00  0.00     0.411 P 
HETATM   14  O           1     -21.746  -3.962  -7.091  0.00  0.00    -0.624 OA
HETATM   15  O           1     -20.030  -4.612  -5.519  0.00  0.00    -0.624 OA
BRANCH  13  16
HETATM   16  O           1     -20.531  -6.149  -7.462  0.00  0.00    -0.300 OA
HETATM   17  H           1     -21.106  -6.895  -7.421  0.00  0.00     0.223 HD
ENDBRANCH  13  16
ENDBRANCH  12  13
ENDBRANCH   9  12
ENDBRANCH   5   6
ENDBRANCH   1   5
BRANCH   1  18
HETATM   18  N           1     -22.673  -9.962  -1.447  0.00  0.00    -0.344 N 
HETATM   19  C           1     -23.142 -11.243  -1.555  0.00  0.00     0.249 C 
HETATM   20  O           1     -24.093 -11.597  -0.900  0.00  0.00    -0.271 OA
HETATM   21  H           1     -23.038  -9.238  -2.052  0.00  0.00     0.163 HD
BRANCH  19  22
HETATM   22  C           1     -22.469 -12.216  -2.492  0.00  0.00     0.283 C 
BRANCH  22  23
HETATM   23  C           1     -22.662 -11.753  -3.930  0.00  0.00     0.113 C 
BRANCH  23  24
HETATM   24  S           1     -22.456 -13.164  -5.053  0.00  0.00    -0.180 SA
HETATM   25  H           1     -23.459 -12.830  -5.885  0.00  0.00     0.101 HD
ENDBRANCH  23  24
ENDBRANCH  22  23
BRANCH  22  26
HETATM   26  N           1     -23.075 -13.577  -2.320  0.00  0.00    -0.066 N 
HETATM   27  H           1     -22.462 -14.157  -1.704  0.00  0.00     0.275 HD
HETATM   28  H           1     -24.020 -13.485  -1.882  0.00  0.00     0.275 HD
HETATM   29  H           1     -23.167 -14.038  -3.253  0.00  0.00     0.275 HD
ENDBRANCH  22  26
ENDBRANCH  19  22
ENDBRANCH   1  18
TORSDOF 11
ENDMDL
MODEL 8
REMARK VINA RESULT:      -5.8     14.826     17.435
REMARK  11 active torsions:
REMARK  status: ('A' for Active; 'I' for Inactive)
REMARK    1  A    between atoms: C_1  and  C_6 
REMARK    2  A    between atoms: C_5  and  C_18 
REMARK    3  A    between atoms: C_5  and  C_6 
REMARK    4  A    between atoms: C_5  and  N_13 
REMARK    5  A    between atoms: O_7  and  P_27 
REMARK    6  A    between atoms: S_10  and  C_11 
REMARK    7  A    between atoms: C_11  and  C_12 
REMARK    8  A    between atoms: C_12  and  C_26 
REMARK    9  A    between atoms: C_12  and  N_16 
REMARK       I    between atoms: N_13  and  C_26 
REMARK   10  A    between atoms: O_19  and  C_21 
REMARK   11  A    between atoms: O_19  and  P_27 
ROOT
HETATM    1  C           1     -20.822  -9.727  -1.256  0.00  0.00     0.189 C 
ENDROOT
BRANCH   1   2
HETATM    2  C           1     -21.371  -9.602   0.144  0.00  0.00     0.197 C 
HETATM    3  O           1     -20.794 -10.174   1.094  0.00  0.00    -0.646 OA
HETATM    4  O           1     -22.402  -8.927   0.354  0.00  0.00    -0.646 OA
ENDBRANCH   1   2
BRANCH   1   5
HETATM    5  C           1     -21.938  -9.481  -2.264  0.00  0.00     0.074 C 
BRANCH   5   6
HETATM    6  C           1     -21.564  -8.338  -3.155  0.00  0.00    -0.056 A 
HETATM    7  C           1     -21.216  -8.575  -4.485  0.00  0.00     0.010 A 
HETATM    8  C           1     -20.867  -7.510  -5.315  0.00  0.00     0.038 A 
HETATM    9  C           1     -20.864  -6.208  -4.815  0.00  0.00     0.081 A 
HETATM   10  C           1     -21.212  -5.970  -3.485  0.00  0.00     0.038 A 
HETATM   11  C           1     -21.561  -7.036  -2.655  0.00  0.00     0.010 A 
BRANCH   9  12
HETATM   12  O           1     -20.526  -5.173  -5.621  0.00  0.00    -0.247 OA
BRANCH  12  13
HETATM   13  P           1     -21.551  -4.764  -6.800  0.00  0.00     0.411 P 
HETATM   14  O           1     -21.377  -3.331  -7.129  0.00  0.00    -0.624 OA
HETATM   15  O           1     -21.273  -5.582  -8.002  0.00  0.00    -0.624 OA
BRANCH  13  16
HETATM   16  O           1     -23.067  -5.025  -6.310  0.00  0.00    -0.300 OA
HETATM   17  H           1     -23.230  -4.362  -5.660  0.00  0.00     0.223 HD
ENDBRANCH  13  16
ENDBRANCH  12  13
ENDBRANCH   9  12
ENDBRANCH   5   6
ENDBRANCH   1   5
BRANCH   1  18
HETATM   18  N           1     -20.284 -11.060  -1.448  0.00  0.00    -0.344 N 
HETATM   19  C           1     -18.939 -11.237  -1.621  0.00  0.00     0.249 C 
HETATM   20  O           1     -18.225 -11.415  -0.663  0.00  0.00    -0.271 OA
HETATM   21  H           1     -20.905 -11.859  -1.454  0.00  0.00     0.163 HD
BRANCH  19  22
HETATM   22  C           1     -18.346 -11.209  -3.008  0.00  0.00     0.283 C 
BRANCH  22  23
HETATM   23  C           1     -17.870  -9.798  -3.329  0.00  0.00     0.113 C 
BRANCH  23  24
HETATM   24  S           1     -16.098  -9.658  -2.964  0.00  0.00    -0.180 SA
HETATM   25  H           1     -16.237  -9.550  -1.630  0.00  0.00     0.101 HD
ENDBRANCH  23  24
ENDBRANCH  22  23
BRANCH  22  26
HETATM   26  N           1     -19.387 -11.624  -4.005  0.00  0.00    -0.066 N 
HETATM   27  H           1     -19.274 -12.638  -4.226  0.00  0.00     0.275 HD
HETATM   28  H           1     -20.338 -11.459  -3.604  0.00  0.00     0.275 HD
HETATM   29  H           1     -19.275 -11.062  -4.879  0.00  0.00     0.275 HD
ENDBRANCH  22  26
ENDBRANCH  19  22
ENDBRANCH   1  18
TORSDOF 11
ENDMDL
MODEL 9
REMARK VINA RESULT:      -5.8     14.909     17.001
REMARK  11 active torsions:
REMARK  status: ('A' for Active; 'I' for Inactive)
REMARK    1  A    between atoms: C_1  and  C_6 
REMARK    2  A    between atoms: C_5  and  C_18 
REMARK    3  A    between atoms: C_5  and  C_6 
REMARK    4  A    between atoms: C_5  and  N_13 
REMARK    5  A    between atoms: O_7  and  P_27 
REMARK    6  A    between atoms: S_10  and  C_11 
REMARK    7  A    between atoms: C_11  and  C_12 
REMARK    8  A    between atoms: C_12  and  C_26 
REMARK    9  A    between atoms: C_12  and  N_16 
REMARK       I    between atoms: N_13  and  C_26 
REMARK   10  A    between atoms: O_19  and  C_21 
REMARK   11  A    between atoms: O_19  and  P_27 
ROOT
HETATM    1  C           1     -20.535  -7.350  -4.521  0.00  0.00     0.189 C 
ENDROOT
BRANCH   1   2
HETATM    2  C           1     -20.610  -6.305  -5.608  0.00  0.00     0.197 C 
HETATM    3  O           1     -20.797  -6.650  -6.795  0.00  0.00    -0.646 OA
HETATM    4  O           1     -20.485  -5.095  -5.322  0.00  0.00    -0.646 OA
ENDBRANCH   1   2
BRANCH   1   5
HETATM    5  C           1     -20.334  -8.723  -5.149  0.00  0.00     0.074 C 
BRANCH   5   6
HETATM    6  C           1     -18.960  -9.222  -4.830  0.00  0.00    -0.056 A 
HETATM    7  C           1     -18.075  -9.538  -5.861  0.00  0.00     0.010 A 
HETATM    8  C           1     -16.795 -10.003  -5.563  0.00  0.00     0.038 A 
HETATM    9  C           1     -16.399 -10.155  -4.235  0.00  0.00     0.081 A 
HETATM   10  C           1     -17.284  -9.840  -3.203  0.00  0.00     0.038 A 
HETATM   11  C           1     -18.565  -9.374  -3.501  0.00  0.00     0.010 A 
BRANCH   9  12
HETATM   12  O           1     -15.155 -10.607  -3.945  0.00  0.00    -0.247 OA
BRANCH  12  13
HETATM   13  P           1     -14.796 -12.135  -4.327  0.00  0.00     0.411 P 
HETATM   14  O           1     -13.758 -12.643  -3.402  0.00  0.00    -0.624 OA
HETATM   15  O           1     -16.011 -12.972  -4.211  0.00  0.00    -0.624 OA
BRANCH  13  16
HETATM   16  O           1     -14.244 -12.195  -5.843  0.00  0.00    -0.300 OA
HETATM   17  H           1     -13.391 -12.590  -5.776  0.00  0.00     0.223 HD
ENDBRANCH  13  16
ENDBRANCH  12  13
ENDBRANCH   9  12
ENDBRANCH   5   6
ENDBRANCH   1   5
BRANCH   1  18
HETATM   18  N           1     -21.768  -7.343  -3.759  0.00  0.00    -0.344 N 
HETATM   19  C           1     -21.781  -6.855  -2.481  0.00  0.00     0.249 C 
HETATM   20  O           1     -22.007  -5.685  -2.284  0.00  0.00    -0.271 OA
HETATM   21  H           1     -22.620  -7.700  -4.172  0.00  0.00     0.163 HD
BRANCH  19  22
HETATM   22  C           1     -21.510  -7.777  -1.318  0.00  0.00     0.283 C 
BRANCH  22  23
HETATM   23  C           1     -21.858  -9.206  -1.711  0.00  0.00     0.113 C 
BRANCH  23  24
HETATM   24  S           1     -22.875  -9.961  -0.410  0.00  0.00    -0.180 SA
HETATM   25  H           1     -22.402 -11.210  -0.569  0.00  0.00     0.101 HD
ENDBRANCH  23  24
ENDBRANCH  22  23
BRANCH  22  26
HETATM   26  N           1     -22.349  -7.363  -0.145  0.00  0.00    -0.066 N 
HETATM   27  H           1     -23.312  -7.752  -0.251  0.00  0.00     0.275 HD
HETATM   28  H           1     -21.921  -7.728   0.735  0.00  0.00     0.275 HD
HETATM   29  H           1     -22.397  -6.320  -0.103  0.00  0.00     0.275 HD
ENDBRANCH  22  26
ENDBRANCH  19  22
ENDBRANCH   1  18
TORSDOF 11
ENDMDL
