MODEL 1
REMARK VINA RESULT:      -6.7      0.000      0.000
REMARK  8 active torsions:
REMARK  status: ('A' for Active; 'I' for Inactive)
REMARK    1  A    between atoms: C_1  and  C_2 
REMARK    2  A    between atoms: C_1  and  C_15 
REMARK    3  A    between atoms: C_2  and  C_3 
REMARK    4  A    between atoms: C_2  and  N_20 
REMARK       I    between atoms: C_3  and  N_5 
REMARK    5  A    between atoms: C_4  and  C_22 
REMARK    6  A    between atoms: N_5  and  C_22 
REMARK    7  A    between atoms: O_13  and  C_16 
REMARK    8  A    between atoms: C_16  and  C_22 
ROOT
HETATM    1  C           1     -22.219  -5.135  -6.738  0.00  0.00     0.278 C 
ENDROOT
BRANCH   1   2
HETATM    2  C           1     -21.664  -3.840  -7.314  0.00  0.00     0.081 C 
BRANCH   2   3
HETATM    3  C           1     -21.572  -3.955  -8.804  0.00  0.00    -0.056 A 
HETATM    4  C           1     -22.680  -3.653  -9.597  0.00  0.00     0.007 A 
HETATM    5  C           1     -22.594  -3.761 -10.985  0.00  0.00     0.001 A 
HETATM    6  C           1     -21.401  -4.171 -11.580  0.00  0.00     0.000 A 
HETATM    7  C           1     -20.294  -4.472 -10.788  0.00  0.00     0.001 A 
HETATM    8  C           1     -20.379  -4.365  -9.400  0.00  0.00     0.007 A 
ENDBRANCH   2   3
ENDBRANCH   1   2
BRANCH   1   9
HETATM    9  C           1     -21.452  -5.500  -5.490  0.00  0.00     0.249 C 
HETATM   10  N           1     -22.087  -6.136  -4.457  0.00  0.00    -0.343 N 
HETATM   11  H           1     -23.072  -6.362  -4.531  0.00  0.00     0.163 HD
HETATM   12  O           1     -20.277  -5.231  -5.402  0.00  0.00    -0.271 OA
BRANCH  10  13
HETATM   13  C           1     -21.351  -6.486  -3.259  0.00  0.00     0.209 C 
BRANCH  13  14
HETATM   14  C           1     -21.063  -7.967  -3.261  0.00  0.00     0.198 C 
HETATM   15  O           1     -21.823  -8.751  -3.868  0.00  0.00    -0.646 OA
HETATM   16  O           1     -20.063  -8.410  -2.655  0.00  0.00    -0.646 OA
ENDBRANCH  13  14
BRANCH  13  17
HETATM   17  C           1     -22.180  -6.132  -2.031  0.00  0.00     0.200 C 
BRANCH  17  18
HETATM   18  O           1     -22.243  -7.240  -1.174  0.00  0.00    -0.398 OA
HETATM   19  H           1     -23.005  -7.735  -1.421  0.00  0.00     0.209 HD
ENDBRANCH  17  18
ENDBRANCH  13  17
ENDBRANCH  10  13
ENDBRANCH   1   9
BRANCH   1  20
HETATM   20  N           1     -23.667  -4.949  -6.397  0.00  0.00    -0.066 N 
HETATM   21  H           1     -23.992  -4.022  -6.756  0.00  0.00     0.275 HD
HETATM   22  H           1     -23.789  -4.982  -5.360  0.00  0.00     0.275 HD
HETATM   23  H           1     -24.230  -5.711  -6.838  0.00  0.00     0.275 HD
ENDBRANCH   1  20
TORSDOF 8
ENDMDL
MODEL 2
REMARK VINA RESULT:      -6.6      3.216      7.144
REMARK  8 active torsions:
REMARK  status: ('A' for Active; 'I' for Inactive)
REMARK    1  A    between atoms: C_1  and  C_2 
REMARK    2  A    between atoms: C_1  and  C_15 
REMARK    3  A    between atoms: C_2  and  C_3 
REMARK    4  A    between atoms: C_2  and  N_20 
REMARK       I    between atoms: C_3  and  N_5 
REMARK    5  A    between atoms: C_4  and  C_22 
REMARK    6  A    between atoms: N_5  and  C_22 
REMARK    7  A    between atoms: O_13  and  C_16 
REMARK    8  A    between atoms: C_16  and  C_22 
ROOT
HETATM    1  C           1     -21.070  -5.668  -6.818  0.00  0.00     0.278 C 
ENDROOT
BRANCH   1   2
HETATM    2  C           1     -20.721  -5.248  -5.397  0.00  0.00     0.081 C 
BRANCH   2   3
HETATM    3  C           1     -21.068  -6.355  -4.450  0.00  0.00    -0.056 A 
HETATM    4  C           1     -21.287  -6.076  -3.101  0.00  0.00     0.007 A 
HETATM    5  C           1     -21.609  -7.107  -2.219  0.00  0.00     0.001 A 
HETATM    6  C           1     -21.712  -8.418  -2.686  0.00  0.00     0.000 A 
HETATM    7  C           1     -21.493  -8.697  -4.034  0.00  0.00     0.001 A 
HETATM    8  C           1     -21.170  -7.666  -4.916  0.00  0.00     0.007 A 
ENDBRANCH   2   3
ENDBRANCH   1   2
BRANCH   1   9
HETATM    9  C           1     -21.641  -4.488  -7.566  0.00  0.00     0.249 C 
HETATM   10  N           1     -22.298  -4.681  -8.753  0.00  0.00    -0.343 N 
HETATM   11  H           1     -22.400  -5.616  -9.128  0.00  0.00     0.163 HD
HETATM   12  O           1     -21.521  -3.373  -7.118  0.00  0.00    -0.271 OA
BRANCH  10  13
HETATM   13  C           1     -22.846  -3.547  -9.470  0.00  0.00     0.209 C 
BRANCH  13  14
HETATM   14  C           1     -24.326  -3.753  -9.678  0.00  0.00     0.198 C 
HETATM   15  O           1     -25.114  -2.790  -9.560  0.00  0.00    -0.646 OA
HETATM   16  O           1     -24.765  -4.887  -9.966  0.00  0.00    -0.646 OA
ENDBRANCH  13  14
BRANCH  13  17
HETATM   17  C           1     -22.157  -3.420 -10.822  0.00  0.00     0.200 C 
BRANCH  17  18
HETATM   18  O           1     -23.095  -3.035 -11.791  0.00  0.00    -0.398 OA
HETATM   19  H           1     -23.003  -2.105 -11.906  0.00  0.00     0.209 HD
ENDBRANCH  17  18
ENDBRANCH  13  17
ENDBRANCH  10  13
ENDBRANCH   1   9
BRANCH   1  20
HETATM   20  N           1     -19.832  -6.148  -7.515  0.00  0.00    -0.066 N 
HETATM   21  H           1     -18.991  -5.875  -6.957  0.00  0.00     0.275 HD
HETATM   22  H           1     -19.776  -5.715  -8.464  0.00  0.00     0.275 HD
HETATM   23  H           1     -19.866  -7.189  -7.608  0.00  0.00     0.275 HD
ENDBRANCH   1  20
TORSDOF 8
ENDMDL
MODEL 3
REMARK VINA RESULT:      -6.1      1.517      2.216
REMARK  8 active torsions:
REMARK  status: ('A' for Active; 'I' for Inactive)
REMARK    1  A    between atoms: C_1  and  C_2 
REMARK    2  A    between atoms: C_1  and  C_15 
REMARK    3  A    between atoms: C_2  and  C_3 
REMARK    4  A    between atoms: C_2  and  N_20 
REMARK       I    between atoms: C_3  and  N_5 
REMARK    5  A    between atoms: C_4  and  C_22 
REMARK    6  A    between atoms: N_5  and  C_22 
REMARK    7  A    between atoms: O_13  and  C_16 
REMARK    8  A    between atoms: C_16  and  C_22 
ROOT
HETATM    1  C           1     -20.931  -4.912  -6.408  0.00  0.00     0.278 C 
ENDROOT
BRANCH   1   2
HETATM    2  C           1     -20.606  -5.642  -7.705  0.00  0.00     0.081 C 
BRANCH   2   3
HETATM    3  C           1     -21.080  -4.827  -8.868  0.00  0.00    -0.056 A 
HETATM    4  C           1     -22.396  -4.366  -8.907  0.00  0.00     0.007 A 
HETATM    5  C           1     -22.837  -3.606  -9.991  0.00  0.00     0.001 A 
HETATM    6  C           1     -21.962  -3.309 -11.036  0.00  0.00     0.000 A 
HETATM    7  C           1     -20.647  -3.770 -10.997  0.00  0.00     0.001 A 
HETATM    8  C           1     -20.206  -4.529  -9.914  0.00  0.00     0.007 A 
ENDBRANCH   2   3
ENDBRANCH   1   2
BRANCH   1   9
HETATM    9  C           1     -21.662  -5.847  -5.475  0.00  0.00     0.249 C 
HETATM   10  N           1     -20.957  -6.637  -4.606  0.00  0.00    -0.343 N 
HETATM   11  H           1     -19.945  -6.592  -4.590  0.00  0.00     0.163 HD
HETATM   12  O           1     -22.868  -5.899  -5.494  0.00  0.00    -0.271 OA
BRANCH  10  13
HETATM   13  C           1     -21.658  -7.534  -3.710  0.00  0.00     0.209 C 
BRANCH  13  14
HETATM   14  C           1     -21.662  -6.952  -2.318  0.00  0.00     0.198 C 
HETATM   15  O           1     -21.041  -7.527  -1.398  0.00  0.00    -0.646 OA
HETATM   16  O           1     -22.287  -5.895  -2.084  0.00  0.00    -0.646 OA
ENDBRANCH  13  14
BRANCH  13  17
HETATM   17  C           1     -20.957  -8.886  -3.693  0.00  0.00     0.200 C 
BRANCH  17  18
HETATM   18  O           1     -19.568  -8.693  -3.705  0.00  0.00    -0.398 OA
HETATM   19  H           1     -19.419  -7.788  -3.921  0.00  0.00     0.209 HD
ENDBRANCH  17  18
ENDBRANCH  13  17
ENDBRANCH  10  13
ENDBRANCH   1   9
BRANCH   1  20
HETATM   20  N           1     -19.658  -4.455  -5.760  0.00  0.00    -0.066 N 
HETATM   21  H           1     -19.881  -3.969  -4.862  0.00  0.00     0.275 HD
HETATM   22  H           1     -19.159  -3.795  -6.399  0.00  0.00     0.275 HD
HETATM   23  H           1     -19.048  -5.282  -5.568  0.00  0.00     0.275 HD
ENDBRANCH   1  20
TORSDOF 8
ENDMDL
MODEL 4
REMARK VINA RESULT:      -6.1      2.423      7.470
REMARK  8 active torsions:
REMARK  status: ('A' for Active; 'I' for Inactive)
REMARK    1  A    between atoms: C_1  and  C_2 
REMARK    2  A    between atoms: C_1  and  C_15 
REMARK    3  A    between atoms: C_2  and  C_3 
REMARK    4  A    between atoms: C_2  and  N_20 
REMARK       I    between atoms: C_3  and  N_5 
REMARK    5  A    between atoms: C_4  and  C_22 
REMARK    6  A    between atoms: N_5  and  C_22 
REMARK    7  A    between atoms: O_13  and  C_16 
REMARK    8  A    between atoms: C_16  and  C_22 
ROOT
HETATM    1  C           1     -21.538  -7.909  -4.439  0.00  0.00     0.278 C 
ENDROOT
BRANCH   1   2
HETATM    2  C           1     -20.657  -8.108  -3.213  0.00  0.00     0.081 C 
BRANCH   2   3
HETATM    3  C           1     -21.520  -8.322  -2.008  0.00  0.00    -0.056 A 
HETATM    4  C           1     -21.947  -9.608  -1.675  0.00  0.00     0.007 A 
HETATM    5  C           1     -22.750  -9.806  -0.552  0.00  0.00     0.001 A 
HETATM    6  C           1     -23.127  -8.720   0.237  0.00  0.00     0.000 A 
HETATM    7  C           1     -22.701  -7.435  -0.096  0.00  0.00     0.001 A 
HETATM    8  C           1     -21.898  -7.236  -1.218  0.00  0.00     0.007 A 
ENDBRANCH   2   3
ENDBRANCH   1   2
BRANCH   1   9
HETATM    9  C           1     -21.338  -6.514  -4.980  0.00  0.00     0.249 C 
HETATM   10  N           1     -21.309  -6.303  -6.333  0.00  0.00    -0.343 N 
HETATM   11  H           1     -21.421  -7.083  -6.970  0.00  0.00     0.163 HD
HETATM   12  O           1     -21.205  -5.585  -4.221  0.00  0.00    -0.271 OA
BRANCH  10  13
HETATM   13  C           1     -21.117  -4.964  -6.854  0.00  0.00     0.209 C 
BRANCH  13  14
HETATM   14  C           1     -22.435  -4.426  -7.355  0.00  0.00     0.198 C 
HETATM   15  O           1     -23.483  -4.636  -6.707  0.00  0.00    -0.646 OA
HETATM   16  O           1     -22.479  -3.772  -8.419  0.00  0.00    -0.646 OA
ENDBRANCH  13  14
BRANCH  13  17
HETATM   17  C           1     -20.116  -5.003  -8.000  0.00  0.00     0.200 C 
BRANCH  17  18
HETATM   18  O           1     -19.636  -3.708  -8.246  0.00  0.00    -0.398 OA
HETATM   19  H           1     -20.280  -3.109  -7.910  0.00  0.00     0.209 HD
ENDBRANCH  17  18
ENDBRANCH  13  17
ENDBRANCH  10  13
ENDBRANCH   1   9
BRANCH   1  20
HETATM   20  N           1     -21.164  -8.911  -5.490  0.00  0.00    -0.066 N 
HETATM   21  H           1     -20.571  -9.659  -5.062  0.00  0.00     0.275 HD
HETATM   22  H           1     -20.628  -8.435  -6.251  0.00  0.00     0.275 HD
HETATM   23  H           1     -22.030  -9.338  -5.889  0.00  0.00     0.275 HD
ENDBRANCH   1  20
TORSDOF 8
ENDMDL
MODEL 5
REMARK VINA RESULT:      -5.9      2.518      3.795
REMARK  8 active torsions:
REMARK  status: ('A' for Active; 'I' for Inactive)
REMARK    1  A    between atoms: C_1  and  C_2 
REMARK    2  A    between atoms: C_1  and  C_15 
REMARK    3  A    between atoms: C_2  and  C_3 
REMARK    4  A    between atoms: C_2  and  N_20 
REMARK       I    between atoms: C_3  and  N_5 
REMARK    5  A    between atoms: C_4  and  C_22 
REMARK    6  A    between atoms: N_5  and  C_22 
REMARK    7  A    between atoms: O_13  and  C_16 
REMARK    8  A    between atoms: C_16  and  C_22 
ROOT
HETATM    1  C           1     -21.384  -7.232  -4.108  0.00  0.00     0.278 C 
ENDROOT
BRANCH   1   2
HETATM    2  C           1     -22.370  -6.413  -4.929  0.00  0.00     0.081 C 
BRANCH   2   3
HETATM    3  C           1     -21.620  -5.569  -5.914  0.00  0.00    -0.056 A 
HETATM    4  C           1     -20.225  -5.582  -5.923  0.00  0.00     0.007 A 
HETATM    5  C           1     -19.527  -4.796  -6.840  0.00  0.00     0.001 A 
HETATM    6  C           1     -20.224  -3.997  -7.746  0.00  0.00     0.000 A 
HETATM    7  C           1     -21.618  -3.984  -7.737  0.00  0.00     0.001 A 
HETATM    8  C           1     -22.316  -4.770  -6.820  0.00  0.00     0.007 A 
ENDBRANCH   2   3
ENDBRANCH   1   2
BRANCH   1   9
HETATM    9  C           1     -21.635  -6.995  -2.638  0.00  0.00     0.249 C 
HETATM   10  N           1     -21.466  -8.016  -1.741  0.00  0.00    -0.343 N 
HETATM   11  H           1     -21.172  -8.929  -2.064  0.00  0.00     0.163 HD
HETATM   12  O           1     -21.984  -5.905  -2.253  0.00  0.00    -0.271 OA
BRANCH  10  13
HETATM   13  C           1     -21.707  -7.788  -0.331  0.00  0.00     0.209 C 
BRANCH  13  14
HETATM   14  C           1     -21.050  -8.883   0.474  0.00  0.00     0.198 C 
HETATM   15  O           1     -20.682  -9.937  -0.088  0.00  0.00    -0.646 OA
HETATM   16  O           1     -20.876  -8.737   1.703  0.00  0.00    -0.646 OA
ENDBRANCH  13  14
BRANCH  13  17
HETATM   17  C           1     -23.206  -7.792  -0.064  0.00  0.00     0.200 C 
BRANCH  17  18
HETATM   18  O           1     -23.594  -9.053   0.412  0.00  0.00    -0.398 OA
HETATM   19  H           1     -23.797  -9.579  -0.342  0.00  0.00     0.209 HD
ENDBRANCH  17  18
ENDBRANCH  13  17
ENDBRANCH  10  13
ENDBRANCH   1   9
BRANCH   1  20
HETATM   20  N           1     -21.566  -8.688  -4.417  0.00  0.00    -0.066 N 
HETATM   21  H           1     -22.275  -8.796  -5.177  0.00  0.00     0.275 HD
HETATM   22  H           1     -21.895  -9.188  -3.560  0.00  0.00     0.275 HD
HETATM   23  H           1     -20.655  -9.095  -4.728  0.00  0.00     0.275 HD
ENDBRANCH   1  20
TORSDOF 8
ENDMDL
MODEL 6
REMARK VINA RESULT:      -5.8      2.046      2.782
REMARK  8 active torsions:
REMARK  status: ('A' for Active; 'I' for Inactive)
REMARK    1  A    between atoms: C_1  and  C_2 
REMARK    2  A    between atoms: C_1  and  C_15 
REMARK    3  A    between atoms: C_2  and  C_3 
REMARK    4  A    between atoms: C_2  and  N_20 
REMARK       I    between atoms: C_3  and  N_5 
REMARK    5  A    between atoms: C_4  and  C_22 
REMARK    6  A    between atoms: N_5  and  C_22 
REMARK    7  A    between atoms: O_13  and  C_16 
REMARK    8  A    between atoms: C_16  and  C_22 
ROOT
HETATM    1  C           1     -21.606  -5.127  -6.865  0.00  0.00     0.278 C 
ENDROOT
BRANCH   1   2
HETATM    2  C           1     -20.901  -5.593  -8.132  0.00  0.00     0.081 C 
BRANCH   2   3
HETATM    3  C           1     -21.313  -4.726  -9.281  0.00  0.00    -0.056 A 
HETATM    4  C           1     -20.351  -4.234 -10.163  0.00  0.00     0.007 A 
HETATM    5  C           1     -20.735  -3.426 -11.234  0.00  0.00     0.001 A 
HETATM    6  C           1     -22.080  -3.109 -11.421  0.00  0.00     0.000 A 
HETATM    7  C           1     -23.041  -3.600 -10.538  0.00  0.00     0.001 A 
HETATM    8  C           1     -22.658  -4.408  -9.468  0.00  0.00     0.007 A 
ENDBRANCH   2   3
ENDBRANCH   1   2
BRANCH   1   9
HETATM    9  C           1     -21.374  -6.130  -5.762  0.00  0.00     0.249 C 
HETATM   10  N           1     -20.647  -7.264  -6.009  0.00  0.00    -0.343 N 
HETATM   11  H           1     -20.265  -7.429  -6.932  0.00  0.00     0.163 HD
HETATM   12  O           1     -21.828  -5.932  -4.660  0.00  0.00    -0.271 OA
BRANCH  10  13
HETATM   13  C           1     -20.423  -8.227  -4.949  0.00  0.00     0.209 C 
BRANCH  13  14
HETATM   14  C           1     -19.034  -8.802  -5.078  0.00  0.00     0.198 C 
HETATM   15  O           1     -18.517  -8.941  -6.207  0.00  0.00    -0.646 OA
HETATM   16  O           1     -18.400  -9.139  -4.055  0.00  0.00    -0.646 OA
ENDBRANCH  13  14
BRANCH  13  17
HETATM   17  C           1     -21.448  -9.348  -5.057  0.00  0.00     0.200 C 
BRANCH  17  18
HETATM   18  O           1     -21.069 -10.233  -6.077  0.00  0.00    -0.398 OA
HETATM   19  H           1     -21.808 -10.316  -6.655  0.00  0.00     0.209 HD
ENDBRANCH  17  18
ENDBRANCH  13  17
ENDBRANCH  10  13
ENDBRANCH   1   9
BRANCH   1  20
HETATM   20  N           1     -21.058  -3.793  -6.452  0.00  0.00    -0.066 N 
HETATM   21  H           1     -21.447  -3.532  -5.517  0.00  0.00     0.275 HD
HETATM   22  H           1     -21.330  -3.071  -7.156  0.00  0.00     0.275 HD
HETATM   23  H           1     -20.016  -3.848  -6.394  0.00  0.00     0.275 HD
ENDBRANCH   1  20
TORSDOF 8
ENDMDL
MODEL 7
REMARK VINA RESULT:      -5.8      2.445      7.393
REMARK  8 active torsions:
REMARK  status: ('A' for Active; 'I' for Inactive)
REMARK    1  A    between atoms: C_1  and  C_2 
REMARK    2  A    between atoms: C_1  and  C_15 
REMARK    3  A    between atoms: C_2  and  C_3 
REMARK    4  A    between atoms: C_2  and  N_20 
REMARK       I    between atoms: C_3  and  N_5 
REMARK    5  A    between atoms: C_4  and  C_22 
REMARK    6  A    between atoms: N_5  and  C_22 
REMARK    7  A    between atoms: O_13  and  C_16 
REMARK    8  A    between atoms: C_16  and  C_22 
ROOT
HETATM    1  C           1     -21.311  -6.210  -2.893  0.00  0.00     0.278 C 
ENDROOT
BRANCH   1   2
HETATM    2  C           1     -20.656  -7.449  -2.298  0.00  0.00     0.081 C 
BRANCH   2   3
HETATM    3  C           1     -21.632  -8.150  -1.404  0.00  0.00    -0.056 A 
HETATM    4  C           1     -22.085  -9.428  -1.731  0.00  0.00     0.007 A 
HETATM    5  C           1     -22.994 -10.080  -0.898  0.00  0.00     0.001 A 
HETATM    6  C           1     -23.451  -9.454   0.261  0.00  0.00     0.000 A 
HETATM    7  C           1     -22.999  -8.176   0.588  0.00  0.00     0.001 A 
HETATM    8  C           1     -22.090  -7.524  -0.245  0.00  0.00     0.007 A 
ENDBRANCH   2   3
ENDBRANCH   1   2
BRANCH   1   9
HETATM    9  C           1     -21.555  -6.429  -4.366  0.00  0.00     0.249 C 
HETATM   10  N           1     -21.444  -5.381  -5.241  0.00  0.00    -0.343 N 
HETATM   11  H           1     -21.198  -4.460  -4.899  0.00  0.00     0.163 HD
HETATM   12  O           1     -21.847  -7.527  -4.774  0.00  0.00    -0.271 OA
BRANCH  10  13
HETATM   13  C           1     -21.678  -5.590  -6.656  0.00  0.00     0.209 C 
BRANCH  13  14
HETATM   14  C           1     -20.355  -5.674  -7.377  0.00  0.00     0.198 C 
HETATM   15  O           1     -20.003  -4.755  -8.147  0.00  0.00    -0.646 OA
HETATM   16  O           1     -19.610  -6.663  -7.204  0.00  0.00    -0.646 OA
ENDBRANCH  13  14
BRANCH  13  17
HETATM   17  C           1     -22.488  -4.428  -7.215  0.00  0.00     0.200 C 
BRANCH  17  18
HETATM   18  O           1     -23.790  -4.474  -6.697  0.00  0.00    -0.398 OA
HETATM   19  H           1     -23.733  -4.229  -5.789  0.00  0.00     0.209 HD
ENDBRANCH  17  18
ENDBRANCH  13  17
ENDBRANCH  10  13
ENDBRANCH   1   9
BRANCH   1  20
HETATM   20  N           1     -22.619  -5.958  -2.202  0.00  0.00    -0.066 N 
HETATM   21  H           1     -22.454  -5.843  -1.177  0.00  0.00     0.275 HD
HETATM   22  H           1     -23.260  -6.767  -2.363  0.00  0.00     0.275 HD
HETATM   23  H           1     -23.053  -5.088  -2.586  0.00  0.00     0.275 HD
ENDBRANCH   1  20
TORSDOF 8
ENDMDL
MODEL 8
REMARK VINA RESULT:      -5.7      3.718      7.105
REMARK  8 active torsions:
REMARK  status: ('A' for Active; 'I' for Inactive)
REMARK    1  A    between atoms: C_1  and  C_2 
REMARK    2  A    between atoms: C_1  and  C_15 
REMARK    3  A    between atoms: C_2  and  C_3 
REMARK    4  A    between atoms: C_2  and  N_20 
REMARK       I    between atoms: C_3  and  N_5 
REMARK    5  A    between atoms: C_4  and  C_22 
REMARK    6  A    between atoms: N_5  and  C_22 
REMARK    7  A    between atoms: O_13  and  C_16 
REMARK    8  A    between atoms: C_16  and  C_22 
ROOT
HETATM    1  C           1     -21.041  -5.045  -7.883  0.00  0.00     0.278 C 
ENDROOT
BRANCH   1   2
HETATM    2  C           1     -20.992  -4.655  -6.412  0.00  0.00     0.081 C 
BRANCH   2   3
HETATM    3  C           1     -21.088  -5.887  -5.565  0.00  0.00    -0.056 A 
HETATM    4  C           1     -21.086  -7.147  -6.165  0.00  0.00     0.007 A 
HETATM    5  C           1     -21.175  -8.294  -5.376  0.00  0.00     0.001 A 
HETATM    6  C           1     -21.268  -8.181  -3.989  0.00  0.00     0.000 A 
HETATM    7  C           1     -21.270  -6.922  -3.391  0.00  0.00     0.001 A 
HETATM    8  C           1     -21.181  -5.775  -4.178  0.00  0.00     0.007 A 
ENDBRANCH   2   3
ENDBRANCH   1   2
BRANCH   1   9
HETATM    9  C           1     -22.369  -4.631  -8.469  0.00  0.00     0.249 C 
HETATM   10  N           1     -22.494  -4.449  -9.820  0.00  0.00    -0.343 N 
HETATM   11  H           1     -21.696  -4.592 -10.426  0.00  0.00     0.163 HD
HETATM   12  O           1     -23.322  -4.461  -7.746  0.00  0.00    -0.271 OA
BRANCH  10  13
HETATM   13  C           1     -23.769  -4.051 -10.383  0.00  0.00     0.209 C 
BRANCH  13  14
HETATM   14  C           1     -23.535  -3.168 -11.584  0.00  0.00     0.198 C 
HETATM   15  O           1     -24.500  -2.793 -12.282  0.00  0.00    -0.646 OA
HETATM   16  O           1     -22.373  -2.813 -11.881  0.00  0.00    -0.646 OA
ENDBRANCH  13  14
BRANCH  13  17
HETATM   17  C           1     -24.569  -3.285  -9.338  0.00  0.00     0.200 C 
BRANCH  17  18
HETATM   18  O           1     -25.905  -3.185  -9.753  0.00  0.00    -0.398 OA
HETATM   19  H           1     -26.385  -3.855  -9.297  0.00  0.00     0.209 HD
ENDBRANCH  17  18
ENDBRANCH  13  17
ENDBRANCH  10  13
ENDBRANCH   1   9
BRANCH   1  20
HETATM   20  N           1     -19.933  -4.353  -8.620  0.00  0.00    -0.066 N 
HETATM   21  H           1     -19.472  -5.029  -9.269  0.00  0.00     0.275 HD
HETATM   22  H           1     -19.230  -3.994  -7.935  0.00  0.00     0.275 HD
HETATM   23  H           1     -20.325  -3.554  -9.168  0.00  0.00     0.275 HD
ENDBRANCH   1  20
TORSDOF 8
ENDMDL
MODEL 9
REMARK VINA RESULT:      -5.7      2.516      3.493
REMARK  8 active torsions:
REMARK  status: ('A' for Active; 'I' for Inactive)
REMARK    1  A    between atoms: C_1  and  C_2 
REMARK    2  A    between atoms: C_1  and  C_15 
REMARK    3  A    between atoms: C_2  and  C_3 
REMARK    4  A    between atoms: C_2  and  N_20 
REMARK       I    between atoms: C_3  and  N_5 
REMARK    5  A    between atoms: C_4  and  C_22 
REMARK    6  A    between atoms: N_5  and  C_22 
REMARK    7  A    between atoms: O_13  and  C_16 
REMARK    8  A    between atoms: C_16  and  C_22 
ROOT
HETATM    1  C           1     -20.671  -7.702  -4.592  0.00  0.00     0.278 C 
ENDROOT
BRANCH   1   2
HETATM    2  C           1     -21.684  -6.575  -4.739  0.00  0.00     0.081 C 
BRANCH   2   3
HETATM    3  C           1     -21.261  -5.666  -5.852  0.00  0.00    -0.056 A 
HETATM    4  C           1     -22.222  -4.985  -6.599  0.00  0.00     0.007 A 
HETATM    5  C           1     -21.828  -4.138  -7.636  0.00  0.00     0.001 A 
HETATM    6  C           1     -20.474  -3.974  -7.925  0.00  0.00     0.000 A 
HETATM    7  C           1     -19.514  -4.655  -7.179  0.00  0.00     0.001 A 
HETATM    8  C           1     -19.907  -5.502  -6.142  0.00  0.00     0.007 A 
ENDBRANCH   2   3
ENDBRANCH   1   2
BRANCH   1   9
HETATM    9  C           1     -20.608  -8.135  -3.148  0.00  0.00     0.249 C 
HETATM   10  N           1     -21.697  -7.969  -2.334  0.00  0.00    -0.343 N 
HETATM   11  H           1     -22.545  -7.556  -2.703  0.00  0.00     0.163 HD
HETATM   12  O           1     -19.597  -8.630  -2.709  0.00  0.00    -0.271 OA
BRANCH  10  13
HETATM   13  C           1     -21.637  -8.385  -0.947  0.00  0.00     0.209 C 
BRANCH  13  14
HETATM   14  C           1     -22.147  -9.800  -0.825  0.00  0.00     0.198 C 
HETATM   15  O           1     -22.933 -10.257  -1.681  0.00  0.00    -0.646 OA
HETATM   16  O           1     -21.785 -10.514   0.135  0.00  0.00    -0.646 OA
ENDBRANCH  13  14
BRANCH  13  17
HETATM   17  C           1     -22.499  -7.459  -0.101  0.00  0.00     0.200 C 
BRANCH  17  18
HETATM   18  O           1     -23.540  -8.194   0.485  0.00  0.00    -0.398 OA
HETATM   19  H           1     -23.377  -8.207   1.413  0.00  0.00     0.209 HD
ENDBRANCH  17  18
ENDBRANCH  13  17
ENDBRANCH  10  13
ENDBRANCH   1   9
BRANCH   1  20
HETATM   20  N           1     -21.090  -8.864  -5.444  0.00  0.00    -0.066 N 
HETATM   21  H           1     -21.926  -9.323  -5.017  0.00  0.00     0.275 HD
HETATM   22  H           1     -20.307  -9.553  -5.503  0.00  0.00     0.275 HD
HETATM   23  H           1     -21.328  -8.524  -6.403  0.00  0.00     0.275 HD
ENDBRANCH   1  20
TORSDOF 8
ENDMDL
