MODEL 1
REMARK VINA RESULT:      -6.8      0.000      0.000
REMARK  5 active torsions:
REMARK  status: ('A' for Active; 'I' for Inactive)
REMARK    1  A    between atoms: C_7  and  C_8 
REMARK    2  A    between atoms: C_8  and  C_9 
REMARK    3  A    between atoms: C_9  and  C_10 
REMARK    4  A    between atoms: C_9  and  N_13 
REMARK       I    between atoms: C_10  and  N_14 
REMARK    5  A    between atoms: C_20  and  C_22 
ROOT
HETATM    1  C           1     -20.752  -8.693  -4.287  0.00  0.00     0.279 C 
ENDROOT
BRANCH   1   2
HETATM    2  C           1     -19.974  -8.822  -2.984  0.00  0.00     0.081 C 
BRANCH   2   3
HETATM    3  C           1     -20.863  -8.462  -1.833  0.00  0.00    -0.056 A 
HETATM    4  C           1     -21.599  -7.278  -1.865  0.00  0.00     0.007 A 
HETATM    5  C           1     -22.427  -6.942  -0.794  0.00  0.00     0.001 A 
HETATM    6  C           1     -22.518  -7.792   0.309  0.00  0.00     0.000 A 
HETATM    7  C           1     -21.782  -8.976   0.341  0.00  0.00     0.001 A 
HETATM    8  C           1     -20.954  -9.312  -0.730  0.00  0.00     0.007 A 
ENDBRANCH   2   3
ENDBRANCH   1   2
BRANCH   1   9
HETATM    9  C           1     -19.871  -8.063  -5.339  0.00  0.00     0.251 C 
HETATM   10  N           1     -20.179  -6.827  -5.839  0.00  0.00    -0.336 N 
HETATM   11  C           1     -19.905  -6.317  -7.180  0.00  0.00     0.127 C 
HETATM   12  C           1     -20.853  -5.731  -5.150  0.00  0.00     0.188 C 
HETATM   13  C           1     -19.472  -4.881  -6.940  0.00  0.00     0.022 C 
HETATM   14  C           1     -20.092  -4.496  -5.601  0.00  0.00     0.038 C 
HETATM   15  O           1     -18.895  -8.651  -5.738  0.00  0.00    -0.271 OA
BRANCH  12  16
HETATM   16  C           1     -22.302  -5.648  -5.559  0.00  0.00     0.196 C 
HETATM   17  O           1     -22.655  -4.845  -6.450  0.00  0.00    -0.646 OA
HETATM   18  O           1     -23.150  -6.381  -5.008  0.00  0.00    -0.646 OA
ENDBRANCH  12  16
ENDBRANCH   1   9
BRANCH   1  19
HETATM   19  N           1     -21.185 -10.053  -4.747  0.00  0.00    -0.066 N 
HETATM   20  H           1     -20.346 -10.606  -5.037  0.00  0.00     0.275 HD
HETATM   21  H           1     -21.836  -9.955  -5.559  0.00  0.00     0.275 HD
HETATM   22  H           1     -21.673 -10.546  -3.966  0.00  0.00     0.275 HD
ENDBRANCH   1  19
TORSDOF 5
ENDMDL
MODEL 2
REMARK VINA RESULT:      -6.6      2.032      6.403
REMARK  5 active torsions:
REMARK  status: ('A' for Active; 'I' for Inactive)
REMARK    1  A    between atoms: C_7  and  C_8 
REMARK    2  A    between atoms: C_8  and  C_9 
REMARK    3  A    between atoms: C_9  and  C_10 
REMARK    4  A    between atoms: C_9  and  N_13 
REMARK       I    between atoms: C_10  and  N_14 
REMARK    5  A    between atoms: C_20  and  C_22 
ROOT
HETATM    1  C           1     -20.385  -6.314  -5.662  0.00  0.00     0.279 C 
ENDROOT
BRANCH   1   2
HETATM    2  C           1     -20.476  -4.805  -5.848  0.00  0.00     0.081 C 
BRANCH   2   3
HETATM    3  C           1     -20.873  -4.498  -7.259  0.00  0.00    -0.056 A 
HETATM    4  C           1     -19.927  -4.568  -8.280  0.00  0.00     0.007 A 
HETATM    5  C           1     -20.297  -4.282  -9.595  0.00  0.00     0.001 A 
HETATM    6  C           1     -21.613  -3.926  -9.886  0.00  0.00     0.000 A 
HETATM    7  C           1     -22.560  -3.856  -8.864  0.00  0.00     0.001 A 
HETATM    8  C           1     -22.190  -4.142  -7.550  0.00  0.00     0.007 A 
ENDBRANCH   2   3
ENDBRANCH   1   2
BRANCH   1   9
HETATM    9  C           1     -20.931  -6.688  -4.305  0.00  0.00     0.251 C 
HETATM   10  N           1     -20.635  -7.908  -3.761  0.00  0.00    -0.336 N 
HETATM   11  C           1     -21.464  -8.705  -2.860  0.00  0.00     0.127 C 
HETATM   12  C           1     -19.423  -8.698  -3.954  0.00  0.00     0.188 C 
HETATM   13  C           1     -20.473  -9.263  -1.853  0.00  0.00     0.022 C 
HETATM   14  C           1     -19.128  -9.254  -2.572  0.00  0.00     0.038 C 
HETATM   15  O           1     -21.630  -5.910  -3.701  0.00  0.00    -0.271 OA
BRANCH  12  16
HETATM   16  C           1     -19.659  -9.814  -4.942  0.00  0.00     0.196 C 
HETATM   17  O           1     -18.918 -10.820  -4.937  0.00  0.00    -0.646 OA
HETATM   18  O           1     -20.595  -9.731  -5.765  0.00  0.00    -0.646 OA
ENDBRANCH  12  16
ENDBRANCH   1   9
BRANCH   1  19
HETATM   19  N           1     -21.189  -6.997  -6.729  0.00  0.00    -0.066 N 
HETATM   20  H           1     -21.145  -6.437  -7.610  0.00  0.00     0.275 HD
HETATM   21  H           1     -22.183  -7.079  -6.416  0.00  0.00     0.275 HD
HETATM   22  H           1     -20.799  -7.951  -6.902  0.00  0.00     0.275 HD
ENDBRANCH   1  19
TORSDOF 5
ENDMDL
MODEL 3
REMARK VINA RESULT:      -6.4     18.605     20.250
REMARK  5 active torsions:
REMARK  status: ('A' for Active; 'I' for Inactive)
REMARK    1  A    between atoms: C_7  and  C_8 
REMARK    2  A    between atoms: C_8  and  C_9 
REMARK    3  A    between atoms: C_9  and  C_10 
REMARK    4  A    between atoms: C_9  and  N_13 
REMARK       I    between atoms: C_10  and  N_14 
REMARK    5  A    between atoms: C_20  and  C_22 
ROOT
HETATM    1  C           1     -14.556  10.074   5.817  0.00  0.00     0.279 C 
ENDROOT
BRANCH   1   2
HETATM    2  C           1     -13.567   9.064   5.248  0.00  0.00     0.081 C 
BRANCH   2   3
HETATM    3  C           1     -13.779   8.936   3.770  0.00  0.00    -0.056 A 
HETATM    4  C           1     -13.136   9.812   2.896  0.00  0.00     0.007 A 
HETATM    5  C           1     -13.333   9.694   1.520  0.00  0.00     0.001 A 
HETATM    6  C           1     -14.173   8.699   1.020  0.00  0.00     0.000 A 
HETATM    7  C           1     -14.815   7.822   1.894  0.00  0.00     0.001 A 
HETATM    8  C           1     -14.619   7.941   3.270  0.00  0.00     0.007 A 
ENDBRANCH   2   3
ENDBRANCH   1   2
BRANCH   1   9
HETATM    9  C           1     -15.813   9.358   6.249  0.00  0.00     0.251 C 
HETATM   10  N           1     -17.014   9.680   5.679  0.00  0.00    -0.336 N 
HETATM   11  C           1     -18.337   9.619   6.296  0.00  0.00     0.127 C 
HETATM   12  C           1     -17.255  10.160   4.321  0.00  0.00     0.188 C 
HETATM   13  C           1     -19.226   9.072   5.193  0.00  0.00     0.022 C 
HETATM   14  C           1     -18.512   9.424   3.893  0.00  0.00     0.038 C 
HETATM   15  O           1     -15.757   8.502   7.099  0.00  0.00    -0.271 OA
BRANCH  12  16
HETATM   16  C           1     -17.476  11.652   4.310  0.00  0.00     0.196 C 
HETATM   17  O           1     -18.456  12.134   3.700  0.00  0.00    -0.646 OA
HETATM   18  O           1     -16.680  12.407   4.908  0.00  0.00    -0.646 OA
ENDBRANCH  12  16
ENDBRANCH   1   9
BRANCH   1  19
HETATM   19  N           1     -13.941  10.762   6.999  0.00  0.00    -0.066 N 
HETATM   20  H           1     -14.689  11.007   7.687  0.00  0.00     0.275 HD
HETATM   21  H           1     -13.459  11.633   6.682  0.00  0.00     0.275 HD
HETATM   22  H           1     -13.247  10.125   7.451  0.00  0.00     0.275 HD
ENDBRANCH   1  19
TORSDOF 5
ENDMDL
MODEL 4
REMARK VINA RESULT:      -6.4      3.101      4.749
REMARK  5 active torsions:
REMARK  status: ('A' for Active; 'I' for Inactive)
REMARK    1  A    between atoms: C_7  and  C_8 
REMARK    2  A    between atoms: C_8  and  C_9 
REMARK    3  A    between atoms: C_9  and  C_10 
REMARK    4  A    between atoms: C_9  and  N_13 
REMARK       I    between atoms: C_10  and  N_14 
REMARK    5  A    between atoms: C_20  and  C_22 
ROOT
HETATM    1  C           1     -21.930  -8.896  -0.430  0.00  0.00     0.279 C 
ENDROOT
BRANCH   1   2
HETATM    2  C           1     -23.264  -9.533  -0.062  0.00  0.00     0.081 C 
BRANCH   2   3
HETATM    3  C           1     -23.302 -10.942  -0.569  0.00  0.00    -0.056 A 
HETATM    4  C           1     -23.016 -11.208  -1.908  0.00  0.00     0.007 A 
HETATM    5  C           1     -23.051 -12.520  -2.381  0.00  0.00     0.001 A 
HETATM    6  C           1     -23.373 -13.564  -1.515  0.00  0.00     0.000 A 
HETATM    7  C           1     -23.659 -13.298  -0.176  0.00  0.00     0.001 A 
HETATM    8  C           1     -23.624 -11.987   0.297  0.00  0.00     0.007 A 
ENDBRANCH   2   3
ENDBRANCH   1   2
BRANCH   1   9
HETATM    9  C           1     -22.177  -7.607  -1.174  0.00  0.00     0.251 C 
HETATM   10  N           1     -21.628  -7.416  -2.413  0.00  0.00    -0.336 N 
HETATM   11  C           1     -21.207  -6.153  -3.015  0.00  0.00     0.127 C 
HETATM   12  C           1     -21.333  -8.430  -3.422  0.00  0.00     0.188 C 
HETATM   13  C           1     -21.656  -6.274  -4.461  0.00  0.00     0.022 C 
HETATM   14  C           1     -21.744  -7.772  -4.728  0.00  0.00     0.038 C 
HETATM   15  O           1     -22.859  -6.744  -0.676  0.00  0.00    -0.271 OA
BRANCH  12  16
HETATM   16  C           1     -19.863  -8.769  -3.430  0.00  0.00     0.196 C 
HETATM   17  O           1     -19.222  -8.744  -4.503  0.00  0.00    -0.646 OA
HETATM   18  O           1     -19.287  -9.077  -2.365  0.00  0.00    -0.646 OA
ENDBRANCH  12  16
ENDBRANCH   1   9
BRANCH   1  19
HETATM   19  N           1     -21.153  -8.610   0.821  0.00  0.00    -0.066 N 
HETATM   20  H           1     -21.812  -8.365   1.593  0.00  0.00     0.275 HD
HETATM   21  H           1     -20.503  -7.809   0.649  0.00  0.00     0.275 HD
HETATM   22  H           1     -20.600  -9.455   1.089  0.00  0.00     0.275 HD
ENDBRANCH   1  19
TORSDOF 5
ENDMDL
MODEL 5
REMARK VINA RESULT:      -6.4      2.480      6.151
REMARK  5 active torsions:
REMARK  status: ('A' for Active; 'I' for Inactive)
REMARK    1  A    between atoms: C_7  and  C_8 
REMARK    2  A    between atoms: C_8  and  C_9 
REMARK    3  A    between atoms: C_9  and  C_10 
REMARK    4  A    between atoms: C_9  and  N_13 
REMARK       I    between atoms: C_10  and  N_14 
REMARK    5  A    between atoms: C_20  and  C_22 
ROOT
HETATM    1  C           1     -20.417  -7.399  -5.081  0.00  0.00     0.279 C 
ENDROOT
BRANCH   1   2
HETATM    2  C           1     -20.995  -5.998  -4.926  0.00  0.00     0.081 C 
BRANCH   2   3
HETATM    3  C           1     -20.852  -5.253  -6.218  0.00  0.00    -0.056 A 
HETATM    4  C           1     -21.986  -4.800  -6.890  0.00  0.00     0.007 A 
HETATM    5  C           1     -21.854  -4.106  -8.093  0.00  0.00     0.001 A 
HETATM    6  C           1     -20.586  -3.866  -8.623  0.00  0.00     0.000 A 
HETATM    7  C           1     -19.452  -4.319  -7.950  0.00  0.00     0.001 A 
HETATM    8  C           1     -19.584  -5.013  -6.747  0.00  0.00     0.007 A 
ENDBRANCH   2   3
ENDBRANCH   1   2
BRANCH   1   9
HETATM    9  C           1     -20.468  -8.114  -3.753  0.00  0.00     0.251 C 
HETATM   10  N           1     -19.640  -9.177  -3.516  0.00  0.00    -0.336 N 
HETATM   11  C           1     -19.900 -10.335  -2.664  0.00  0.00     0.127 C 
HETATM   12  C           1     -18.303  -9.402  -4.058  0.00  0.00     0.188 C 
HETATM   13  C           1     -18.573 -10.576  -1.965  0.00  0.00     0.022 C 
HETATM   14  C           1     -17.522  -9.958  -2.880  0.00  0.00     0.038 C 
HETATM   15  O           1     -21.242  -7.749  -2.901  0.00  0.00    -0.271 OA
BRANCH  12  16
HETATM   16  C           1     -18.343 -10.395  -5.193  0.00  0.00     0.196 C 
HETATM   17  O           1     -19.194 -10.273  -6.101  0.00  0.00    -0.646 OA
HETATM   18  O           1     -17.526 -11.340  -5.226  0.00  0.00    -0.646 OA
ENDBRANCH  12  16
ENDBRANCH   1   9
BRANCH   1  19
HETATM   19  N           1     -21.222  -8.162  -6.091  0.00  0.00    -0.066 N 
HETATM   20  H           1     -20.604  -8.453  -6.882  0.00  0.00     0.275 HD
HETATM   21  H           1     -21.991  -7.554  -6.454  0.00  0.00     0.275 HD
HETATM   22  H           1     -21.633  -9.010  -5.640  0.00  0.00     0.275 HD
ENDBRANCH   1  19
TORSDOF 5
ENDMDL
MODEL 6
REMARK VINA RESULT:      -6.4      1.446      2.165
REMARK  5 active torsions:
REMARK  status: ('A' for Active; 'I' for Inactive)
REMARK    1  A    between atoms: C_7  and  C_8 
REMARK    2  A    between atoms: C_8  and  C_9 
REMARK    3  A    between atoms: C_9  and  C_10 
REMARK    4  A    between atoms: C_9  and  N_13 
REMARK       I    between atoms: C_10  and  N_14 
REMARK    5  A    between atoms: C_20  and  C_22 
ROOT
HETATM    1  C           1     -21.558  -6.791  -4.802  0.00  0.00     0.279 C 
ENDROOT
BRANCH   1   2
HETATM    2  C           1     -20.994  -6.068  -3.586  0.00  0.00     0.081 C 
BRANCH   2   3
HETATM    3  C           1     -21.270  -6.872  -2.354  0.00  0.00    -0.056 A 
HETATM    4  C           1     -20.439  -7.941  -2.019  0.00  0.00     0.007 A 
HETATM    5  C           1     -20.696  -8.692  -0.871  0.00  0.00     0.001 A 
HETATM    6  C           1     -21.785  -8.372  -0.059  0.00  0.00     0.000 A 
HETATM    7  C           1     -22.615  -7.303  -0.394  0.00  0.00     0.001 A 
HETATM    8  C           1     -22.358  -6.553  -1.542  0.00  0.00     0.007 A 
ENDBRANCH   2   3
ENDBRANCH   1   2
BRANCH   1   9
HETATM    9  C           1     -20.589  -6.670  -5.954  0.00  0.00     0.251 C 
HETATM   10  N           1     -20.779  -5.709  -6.910  0.00  0.00    -0.336 N 
HETATM   11  C           1     -20.413  -5.776  -8.322  0.00  0.00     0.127 C 
HETATM   12  C           1     -21.391  -4.395  -6.741  0.00  0.00     0.188 C 
HETATM   13  C           1     -19.879  -4.386  -8.624  0.00  0.00     0.022 C 
HETATM   14  C           1     -20.519  -3.478  -7.580  0.00  0.00     0.038 C 
HETATM   15  O           1     -19.648  -7.422  -6.031  0.00  0.00    -0.271 OA
BRANCH  12  16
HETATM   16  C           1     -22.813  -4.394  -7.247  0.00  0.00     0.196 C 
HETATM   17  O           1     -23.736  -4.818  -6.517  0.00  0.00    -0.646 OA
HETATM   18  O           1     -23.068  -3.972  -8.394  0.00  0.00    -0.646 OA
ENDBRANCH  12  16
ENDBRANCH   1   9
BRANCH   1  19
HETATM   19  N           1     -21.762  -8.240  -4.471  0.00  0.00    -0.066 N 
HETATM   20  H           1     -20.939  -8.792  -4.803  0.00  0.00     0.275 HD
HETATM   21  H           1     -22.628  -8.585  -4.943  0.00  0.00     0.275 HD
HETATM   22  H           1     -21.861  -8.350  -3.437  0.00  0.00     0.275 HD
ENDBRANCH   1  19
TORSDOF 5
ENDMDL
MODEL 7
REMARK VINA RESULT:      -6.3      3.458      5.375
REMARK  5 active torsions:
REMARK  status: ('A' for Active; 'I' for Inactive)
REMARK    1  A    between atoms: C_7  and  C_8 
REMARK    2  A    between atoms: C_8  and  C_9 
REMARK    3  A    between atoms: C_9  and  C_10 
REMARK    4  A    between atoms: C_9  and  N_13 
REMARK       I    between atoms: C_10  and  N_14 
REMARK    5  A    between atoms: C_20  and  C_22 
ROOT
HETATM    1  C           1     -20.817  -4.805  -7.397  0.00  0.00     0.279 C 
ENDROOT
BRANCH   1   2
HETATM    2  C           1     -20.475  -4.721  -5.915  0.00  0.00     0.081 C 
BRANCH   2   3
HETATM    3  C           1     -20.820  -6.017  -5.249  0.00  0.00    -0.056 A 
HETATM    4  C           1     -20.699  -7.216  -5.951  0.00  0.00     0.007 A 
HETATM    5  C           1     -21.021  -8.424  -5.331  0.00  0.00     0.001 A 
HETATM    6  C           1     -21.465  -8.431  -4.008  0.00  0.00     0.000 A 
HETATM    7  C           1     -21.586  -7.232  -3.306  0.00  0.00     0.001 A 
HETATM    8  C           1     -21.264  -6.024  -3.926  0.00  0.00     0.007 A 
ENDBRANCH   2   3
ENDBRANCH   1   2
BRANCH   1   9
HETATM    9  C           1     -22.260  -4.416  -7.604  0.00  0.00     0.251 C 
HETATM   10  N           1     -22.731  -4.176  -8.866  0.00  0.00    -0.336 N 
HETATM   11  C           1     -23.792  -3.252  -9.260  0.00  0.00     0.127 C 
HETATM   12  C           1     -22.281  -4.786 -10.114  0.00  0.00     0.188 C 
HETATM   13  C           1     -24.561  -4.016 -10.324  0.00  0.00     0.022 C 
HETATM   14  C           1     -23.568  -5.029 -10.883  0.00  0.00     0.038 C 
HETATM   15  O           1     -22.999  -4.316  -6.655  0.00  0.00    -0.271 OA
BRANCH  12  16
HETATM   16  C           1     -21.370  -3.852 -10.872  0.00  0.00     0.196 C 
HETATM   17  O           1     -21.829  -2.802 -11.373  0.00  0.00    -0.646 OA
HETATM   18  O           1     -20.159  -4.128 -11.000  0.00  0.00    -0.646 OA
ENDBRANCH  12  16
ENDBRANCH   1   9
BRANCH   1  19
HETATM   19  N           1     -19.932  -3.869  -8.167  0.00  0.00    -0.066 N 
HETATM   20  H           1     -20.474  -3.016  -8.431  0.00  0.00     0.275 HD
HETATM   21  H           1     -19.590  -4.347  -9.031  0.00  0.00     0.275 HD
HETATM   22  H           1     -19.117  -3.594  -7.575  0.00  0.00     0.275 HD
ENDBRANCH   1  19
TORSDOF 5
ENDMDL
MODEL 8
REMARK VINA RESULT:      -6.2      3.195      6.190
REMARK  5 active torsions:
REMARK  status: ('A' for Active; 'I' for Inactive)
REMARK    1  A    between atoms: C_7  and  C_8 
REMARK    2  A    between atoms: C_8  and  C_9 
REMARK    3  A    between atoms: C_9  and  C_10 
REMARK    4  A    between atoms: C_9  and  N_13 
REMARK       I    between atoms: C_10  and  N_14 
REMARK    5  A    between atoms: C_20  and  C_22 
ROOT
HETATM    1  C           1     -20.717  -9.361  -3.296  0.00  0.00     0.279 C 
ENDROOT
BRANCH   1   2
HETATM    2  C           1     -19.916  -8.751  -4.439  0.00  0.00     0.081 C 
BRANCH   2   3
HETATM    3  C           1     -18.502  -9.242  -4.375  0.00  0.00    -0.056 A 
HETATM    4  C           1     -17.827  -9.577  -5.549  0.00  0.00     0.007 A 
HETATM    5  C           1     -16.511 -10.034  -5.490  0.00  0.00     0.001 A 
HETATM    6  C           1     -15.870 -10.157  -4.257  0.00  0.00     0.000 A 
HETATM    7  C           1     -16.545  -9.822  -3.084  0.00  0.00     0.001 A 
HETATM    8  C           1     -17.862  -9.364  -3.142  0.00  0.00     0.007 A 
ENDBRANCH   2   3
ENDBRANCH   1   2
BRANCH   1   9
HETATM    9  C           1     -21.161  -8.268  -2.354  0.00  0.00     0.251 C 
HETATM   10  N           1     -21.602  -8.585  -1.098  0.00  0.00    -0.336 N 
HETATM   11  C           1     -22.595  -7.873  -0.298  0.00  0.00     0.127 C 
HETATM   12  C           1     -21.183  -9.708  -0.265  0.00  0.00     0.188 C 
HETATM   13  C           1     -22.020  -7.905   1.107  0.00  0.00     0.022 C 
HETATM   14  C           1     -21.087  -9.111   1.128  0.00  0.00     0.038 C 
HETATM   15  O           1     -21.128  -7.115  -2.710  0.00  0.00    -0.271 OA
BRANCH  12  16
HETATM   16  C           1     -22.205 -10.818  -0.304  0.00  0.00     0.196 C 
HETATM   17  O           1     -22.198 -11.705   0.577  0.00  0.00    -0.646 OA
HETATM   18  O           1     -23.057 -10.850  -1.217  0.00  0.00    -0.646 OA
ENDBRANCH  12  16
ENDBRANCH   1   9
BRANCH   1  19
HETATM   19  N           1     -21.922 -10.063  -3.850  0.00  0.00    -0.066 N 
HETATM   20  H           1     -22.758  -9.831  -3.269  0.00  0.00     0.275 HD
HETATM   21  H           1     -21.760 -11.095  -3.834  0.00  0.00     0.275 HD
HETATM   22  H           1     -22.085  -9.751  -4.834  0.00  0.00     0.275 HD
ENDBRANCH   1  19
TORSDOF 5
ENDMDL
MODEL 9
REMARK VINA RESULT:      -6.1      3.401      5.049
REMARK  5 active torsions:
REMARK  status: ('A' for Active; 'I' for Inactive)
REMARK    1  A    between atoms: C_7  and  C_8 
REMARK    2  A    between atoms: C_8  and  C_9 
REMARK    3  A    between atoms: C_9  and  C_10 
REMARK    4  A    between atoms: C_9  and  N_13 
REMARK       I    between atoms: C_10  and  N_14 
REMARK    5  A    between atoms: C_20  and  C_22 
ROOT
HETATM    1  C           1     -20.297 -10.474  -3.399  0.00  0.00     0.279 C 
ENDROOT
BRANCH   1   2
HETATM    2  C           1     -21.548 -10.254  -2.557  0.00  0.00     0.081 C 
BRANCH   2   3
HETATM    3  C           1     -21.722  -8.790  -2.293  0.00  0.00    -0.056 A 
HETATM    4  C           1     -21.471  -7.865  -3.306  0.00  0.00     0.007 A 
HETATM    5  C           1     -21.632  -6.501  -3.061  0.00  0.00     0.001 A 
HETATM    6  C           1     -22.044  -6.064  -1.802  0.00  0.00     0.000 A 
HETATM    7  C           1     -22.295  -6.989  -0.789  0.00  0.00     0.001 A 
HETATM    8  C           1     -22.134  -8.353  -1.034  0.00  0.00     0.007 A 
ENDBRANCH   2   3
ENDBRANCH   1   2
BRANCH   1   9
HETATM    9  C           1     -19.186 -10.996  -2.521  0.00  0.00     0.251 C 
HETATM   10  N           1     -17.880 -10.799  -2.880  0.00  0.00    -0.336 N 
HETATM   11  C           1     -16.739 -11.663  -2.593  0.00  0.00     0.127 C 
HETATM   12  C           1     -17.324  -9.678  -3.633  0.00  0.00     0.188 C 
HETATM   13  C           1     -15.625 -10.690  -2.246  0.00  0.00     0.022 C 
HETATM   14  C           1     -16.013  -9.382  -2.927  0.00  0.00     0.038 C 
HETATM   15  O           1     -19.450 -11.589  -1.503  0.00  0.00    -0.271 OA
BRANCH  12  16
HETATM   16  C           1     -17.084 -10.064  -5.072  0.00  0.00     0.196 C 
HETATM   17  O           1     -18.003 -10.586  -5.740  0.00  0.00    -0.646 OA
HETATM   18  O           1     -15.968  -9.863  -5.594  0.00  0.00    -0.646 OA
ENDBRANCH  12  16
ENDBRANCH   1   9
BRANCH   1  19
HETATM   19  N           1     -20.592 -11.472  -4.479  0.00  0.00    -0.066 N 
HETATM   20  H           1     -20.869 -12.382  -4.046  0.00  0.00     0.275 HD
HETATM   21  H           1     -19.738 -11.610  -5.066  0.00  0.00     0.275 HD
HETATM   22  H           1     -21.372 -11.119  -5.077  0.00  0.00     0.275 HD
ENDBRANCH   1  19
TORSDOF 5
ENDMDL
