MODEL 1
REMARK VINA RESULT:      -9.3      0.000      0.000
REMARK  11 active torsions:
REMARK  status: ('A' for Active; 'I' for Inactive)
REMARK    1  A    between atoms: O_2  and  P_32 
REMARK    2  A    between atoms: C_3  and  C_6 
REMARK       I    between atoms: C_4  and  N_5 
REMARK    3  A    between atoms: C_4  and  C_18 
REMARK    4  A    between atoms: N_5  and  C_7 
REMARK    5  A    between atoms: C_6  and  C_7 
REMARK    6  A    between atoms: C_7  and  C_13 
REMARK    7  A    between atoms: C_9  and  O_16 
REMARK    8  A    between atoms: O_16  and  P_32 
REMARK    9  A    between atoms: C_18  and  C_24 
REMARK   10  A    between atoms: C_18  and  N_19 
REMARK   11  A    between atoms: C_23  and  C_24 
ROOT
HETATM    1  C           1     -21.570  -5.491  -6.614  0.00  0.00     0.189 C 
ENDROOT
BRANCH   1   2
HETATM    2  N           1     -22.192  -5.696  -5.320  0.00  0.00    -0.344 N 
HETATM    3  C           1     -21.518  -6.369  -4.336  0.00  0.00     0.249 C 
HETATM    4  O           1     -20.815  -5.763  -3.563  0.00  0.00    -0.271 OA
HETATM    5  H           1     -23.124  -5.343  -5.144  0.00  0.00     0.163 HD
BRANCH   3   6
HETATM    6  C           1     -21.654  -7.868  -4.217  0.00  0.00     0.278 C 
BRANCH   6   7
HETATM    7  C           1     -20.806  -8.364  -3.054  0.00  0.00     0.081 C 
BRANCH   7   8
HETATM    8  C           1     -21.689  -8.658  -1.881  0.00  0.00    -0.056 A 
HETATM    9  C           1     -21.964  -7.660  -0.947  0.00  0.00     0.007 A 
HETATM   10  C           1     -22.787  -7.935   0.145  0.00  0.00     0.001 A 
HETATM   11  C           1     -23.335  -9.208   0.303  0.00  0.00     0.000 A 
HETATM   12  C           1     -23.060 -10.206  -0.631  0.00  0.00     0.001 A 
HETATM   13  C           1     -22.237  -9.932  -1.724  0.00  0.00     0.007 A 
ENDBRANCH   7   8
ENDBRANCH   6   7
BRANCH   6  14
HETATM   14  N           1     -21.186  -8.513  -5.488  0.00  0.00    -0.066 N 
HETATM   15  H           1     -22.010  -8.881  -6.015  0.00  0.00     0.275 HD
HETATM   16  H           1     -20.684  -7.807  -6.073  0.00  0.00     0.275 HD
HETATM   17  H           1     -20.537  -9.300  -5.260  0.00  0.00     0.275 HD
ENDBRANCH   6  14
ENDBRANCH   3   6
ENDBRANCH   1   2
BRANCH   1  18
HETATM   18  C           1     -21.931  -4.107  -7.136  0.00  0.00     0.074 C 
BRANCH  18  19
HETATM   19  C           1     -22.379  -4.211  -8.560  0.00  0.00    -0.056 A 
HETATM   20  C           1     -23.738  -4.138  -8.870  0.00  0.00     0.010 A 
HETATM   21  C           1     -24.156  -4.236 -10.198  0.00  0.00     0.038 A 
HETATM   22  C           1     -23.217  -4.406 -11.215  0.00  0.00     0.081 A 
HETATM   23  C           1     -21.859  -4.480 -10.904  0.00  0.00     0.038 A 
HETATM   24  C           1     -21.440  -4.383  -9.577  0.00  0.00     0.010 A 
BRANCH  22  25
HETATM   25  O           1     -23.623  -4.502 -12.503  0.00  0.00    -0.247 OA
BRANCH  25  26
HETATM   26  P           1     -23.841  -3.133 -13.333  0.00  0.00     0.411 P 
HETATM   27  O           1     -25.228  -2.654 -13.140  0.00  0.00    -0.624 OA
HETATM   28  O           1     -22.893  -2.106 -12.849  0.00  0.00    -0.624 OA
BRANCH  26  29
HETATM   29  O           1     -23.581  -3.410 -14.903  0.00  0.00    -0.300 OA
HETATM   30  H           1     -24.325  -3.910 -15.189  0.00  0.00     0.223 HD
ENDBRANCH  26  29
ENDBRANCH  25  26
ENDBRANCH  22  25
ENDBRANCH  18  19
ENDBRANCH   1  18
BRANCH   1  31
HETATM   31  C           1     -20.072  -5.602  -6.474  0.00  0.00     0.197 C 
HETATM   32  O           1     -19.409  -4.630  -6.049  0.00  0.00    -0.646 OA
HETATM   33  O           1     -19.492  -6.664  -6.785  0.00  0.00    -0.646 OA
ENDBRANCH   1  31
TORSDOF 11
ENDMDL
MODEL 2
REMARK VINA RESULT:      -8.9      1.596      2.421
REMARK  11 active torsions:
REMARK  status: ('A' for Active; 'I' for Inactive)
REMARK    1  A    between atoms: O_2  and  P_32 
REMARK    2  A    between atoms: C_3  and  C_6 
REMARK       I    between atoms: C_4  and  N_5 
REMARK    3  A    between atoms: C_4  and  C_18 
REMARK    4  A    between atoms: N_5  and  C_7 
REMARK    5  A    between atoms: C_6  and  C_7 
REMARK    6  A    between atoms: C_7  and  C_13 
REMARK    7  A    between atoms: C_9  and  O_16 
REMARK    8  A    between atoms: O_16  and  P_32 
REMARK    9  A    between atoms: C_18  and  C_24 
REMARK   10  A    between atoms: C_18  and  N_19 
REMARK   11  A    between atoms: C_23  and  C_24 
ROOT
HETATM    1  C           1     -21.666  -6.777  -5.595  0.00  0.00     0.189 C 
ENDROOT
BRANCH   1   2
HETATM    2  N           1     -22.292  -6.737  -4.288  0.00  0.00    -0.344 N 
HETATM    3  C           1     -21.519  -6.765  -3.158  0.00  0.00     0.249 C 
HETATM    4  O           1     -21.130  -5.732  -2.667  0.00  0.00    -0.271 OA
HETATM    5  H           1     -23.300  -6.689  -4.210  0.00  0.00     0.163 HD
BRANCH   3   6
HETATM    6  C           1     -21.154  -8.085  -2.525  0.00  0.00     0.278 C 
BRANCH   6   7
HETATM    7  C           1     -21.838  -8.205  -1.170  0.00  0.00     0.081 C 
BRANCH   7   8
HETATM    8  C           1     -22.584  -9.501  -1.100  0.00  0.00    -0.056 A 
HETATM    9  C           1     -22.447 -10.442  -2.121  0.00  0.00     0.007 A 
HETATM   10  C           1     -23.143 -11.649  -2.055  0.00  0.00     0.001 A 
HETATM   11  C           1     -23.976 -11.916  -0.968  0.00  0.00     0.000 A 
HETATM   12  C           1     -24.113 -10.976   0.052  0.00  0.00     0.001 A 
HETATM   13  C           1     -23.417  -9.768  -0.013  0.00  0.00     0.007 A 
ENDBRANCH   7   8
ENDBRANCH   6   7
BRANCH   6  14
HETATM   14  N           1     -19.667  -8.156  -2.342  0.00  0.00    -0.066 N 
HETATM   15  H           1     -19.242  -8.674  -3.144  0.00  0.00     0.275 HD
HETATM   16  H           1     -19.274  -7.188  -2.306  0.00  0.00     0.275 HD
HETATM   17  H           1     -19.449  -8.653  -1.449  0.00  0.00     0.275 HD
ENDBRANCH   6  14
ENDBRANCH   3   6
ENDBRANCH   1   2
BRANCH   1  18
HETATM   18  C           1     -20.844  -5.513  -5.803  0.00  0.00     0.074 C 
BRANCH  18  19
HETATM   19  C           1     -21.154  -4.929  -7.146  0.00  0.00    -0.056 A 
HETATM   20  C           1     -22.353  -4.244  -7.347  0.00  0.00     0.010 A 
HETATM   21  C           1     -22.642  -3.700  -8.599  0.00  0.00     0.038 A 
HETATM   22  C           1     -21.735  -3.840  -9.648  0.00  0.00     0.081 A 
HETATM   23  C           1     -20.537  -4.525  -9.446  0.00  0.00     0.038 A 
HETATM   24  C           1     -20.246  -5.070  -8.195  0.00  0.00     0.010 A 
BRANCH  22  25
HETATM   25  O           1     -22.016  -3.312 -10.863  0.00  0.00    -0.247 OA
BRANCH  25  26
HETATM   26  P           1     -23.351  -3.818 -11.619  0.00  0.00     0.411 P 
HETATM   27  O           1     -23.640  -5.216 -11.228  0.00  0.00    -0.624 OA
HETATM   28  O           1     -24.491  -2.954 -11.241  0.00  0.00    -0.624 OA
BRANCH  26  29
HETATM   29  O           1     -23.124  -3.742 -13.217  0.00  0.00    -0.300 OA
HETATM   30  H           1     -22.196  -3.633 -13.326  0.00  0.00     0.223 HD
ENDBRANCH  26  29
ENDBRANCH  25  26
ENDBRANCH  22  25
ENDBRANCH  18  19
ENDBRANCH   1  18
BRANCH   1  31
HETATM   31  C           1     -20.766  -7.984  -5.684  0.00  0.00     0.197 C 
HETATM   32  O           1     -19.524  -7.844  -5.638  0.00  0.00    -0.646 OA
HETATM   33  O           1     -21.261  -9.125  -5.806  0.00  0.00    -0.646 OA
ENDBRANCH   1  31
TORSDOF 11
ENDMDL
MODEL 3
REMARK VINA RESULT:      -8.4      4.427      6.177
REMARK  11 active torsions:
REMARK  status: ('A' for Active; 'I' for Inactive)
REMARK    1  A    between atoms: O_2  and  P_32 
REMARK    2  A    between atoms: C_3  and  C_6 
REMARK       I    between atoms: C_4  and  N_5 
REMARK    3  A    between atoms: C_4  and  C_18 
REMARK    4  A    between atoms: N_5  and  C_7 
REMARK    5  A    between atoms: C_6  and  C_7 
REMARK    6  A    between atoms: C_7  and  C_13 
REMARK    7  A    between atoms: C_9  and  O_16 
REMARK    8  A    between atoms: O_16  and  P_32 
REMARK    9  A    between atoms: C_18  and  C_24 
REMARK   10  A    between atoms: C_18  and  N_19 
REMARK   11  A    between atoms: C_23  and  C_24 
ROOT
HETATM    1  C           1     -19.311 -10.514  -2.874  0.00  0.00     0.189 C 
ENDROOT
BRANCH   1   2
HETATM    2  N           1     -19.640 -11.677  -2.074  0.00  0.00    -0.344 N 
HETATM    3  C           1     -20.748 -12.423  -2.375  0.00  0.00     0.249 C 
HETATM    4  O           1     -20.659 -13.353  -3.142  0.00  0.00    -0.271 OA
HETATM    5  H           1     -19.052 -11.937  -1.293  0.00  0.00     0.163 HD
BRANCH   3   6
HETATM    6  C           1     -22.079 -12.086  -1.750  0.00  0.00     0.278 C 
BRANCH   6   7
HETATM    7  C           1     -21.927 -12.011  -0.237  0.00  0.00     0.081 C 
BRANCH   7   8
HETATM    8  C           1     -21.980 -10.580   0.199  0.00  0.00    -0.056 A 
HETATM    9  C           1     -20.965 -10.056   1.000  0.00  0.00     0.007 A 
HETATM   10  C           1     -21.015  -8.723   1.407  0.00  0.00     0.001 A 
HETATM   11  C           1     -22.080  -7.913   1.012  0.00  0.00     0.000 A 
HETATM   12  C           1     -23.094  -8.435   0.211  0.00  0.00     0.001 A 
HETATM   13  C           1     -23.045  -9.769  -0.195  0.00  0.00     0.007 A 
ENDBRANCH   7   8
ENDBRANCH   6   7
BRANCH   6  14
HETATM   14  N           1     -23.077 -13.151  -2.099  0.00  0.00    -0.066 N 
HETATM   15  H           1     -23.429 -12.993  -3.070  0.00  0.00     0.275 HD
HETATM   16  H           1     -22.621 -14.089  -2.041  0.00  0.00     0.275 HD
HETATM   17  H           1     -23.877 -13.112  -1.427  0.00  0.00     0.275 HD
ENDBRANCH   6  14
ENDBRANCH   3   6
ENDBRANCH   1   2
BRANCH   1  18
HETATM   18  C           1     -19.717  -9.252  -2.126  0.00  0.00     0.074 C 
BRANCH  18  19
HETATM   19  C           1     -20.444  -8.331  -3.056  0.00  0.00    -0.056 A 
HETATM   20  C           1     -21.034  -7.167  -2.563  0.00  0.00     0.010 A 
HETATM   21  C           1     -21.712  -6.309  -3.429  0.00  0.00     0.038 A 
HETATM   22  C           1     -21.800  -6.614  -4.787  0.00  0.00     0.081 A 
HETATM   23  C           1     -21.211  -7.779  -5.279  0.00  0.00     0.038 A 
HETATM   24  C           1     -20.533  -8.637  -4.414  0.00  0.00     0.010 A 
BRANCH  22  25
HETATM   25  O           1     -22.459  -5.781  -5.628  0.00  0.00    -0.247 OA
BRANCH  25  26
HETATM   26  P           1     -21.591  -4.947  -6.704  0.00  0.00     0.411 P 
HETATM   27  O           1     -20.377  -4.410  -6.049  0.00  0.00    -0.624 OA
HETATM   28  O           1     -21.197  -5.837  -7.818  0.00  0.00    -0.624 OA
BRANCH  26  29
HETATM   29  O           1     -22.478  -3.725  -7.278  0.00  0.00    -0.300 OA
HETATM   30  H           1     -23.345  -3.875  -6.944  0.00  0.00     0.223 HD
ENDBRANCH  26  29
ENDBRANCH  25  26
ENDBRANCH  22  25
ENDBRANCH  18  19
ENDBRANCH   1  18
BRANCH   1  31
HETATM   31  C           1     -17.825 -10.488  -3.136  0.00  0.00     0.197 C 
HETATM   32  O           1     -17.132  -9.534  -2.719  0.00  0.00    -0.646 OA
HETATM   33  O           1     -17.286 -11.420  -3.770  0.00  0.00    -0.646 OA
ENDBRANCH   1  31
TORSDOF 11
ENDMDL
MODEL 4
REMARK VINA RESULT:      -8.0      4.544     10.049
REMARK  11 active torsions:
REMARK  status: ('A' for Active; 'I' for Inactive)
REMARK    1  A    between atoms: O_2  and  P_32 
REMARK    2  A    between atoms: C_3  and  C_6 
REMARK       I    between atoms: C_4  and  N_5 
REMARK    3  A    between atoms: C_4  and  C_18 
REMARK    4  A    between atoms: N_5  and  C_7 
REMARK    5  A    between atoms: C_6  and  C_7 
REMARK    6  A    between atoms: C_7  and  C_13 
REMARK    7  A    between atoms: C_9  and  O_16 
REMARK    8  A    between atoms: O_16  and  P_32 
REMARK    9  A    between atoms: C_18  and  C_24 
REMARK   10  A    between atoms: C_18  and  N_19 
REMARK   11  A    between atoms: C_23  and  C_24 
ROOT
HETATM    1  C           1     -21.091  -7.199  -5.847  0.00  0.00     0.189 C 
ENDROOT
BRANCH   1   2
HETATM    2  N           1     -20.459  -6.739  -7.068  0.00  0.00    -0.344 N 
HETATM    3  C           1     -20.229  -5.403  -7.259  0.00  0.00     0.249 C 
HETATM    4  O           1     -19.187  -4.912  -6.894  0.00  0.00    -0.271 OA
HETATM    5  H           1     -20.189  -7.406  -7.780  0.00  0.00     0.163 HD
BRANCH   3   6
HETATM    6  C           1     -21.276  -4.544  -7.925  0.00  0.00     0.278 C 
BRANCH   6   7
HETATM    7  C           1     -20.770  -4.089  -9.287  0.00  0.00     0.081 C 
BRANCH   7   8
HETATM    8  C           1     -21.934  -3.756 -10.167  0.00  0.00    -0.056 A 
HETATM    9  C           1     -21.733  -3.052 -11.354  0.00  0.00     0.007 A 
HETATM   10  C           1     -22.818  -2.743 -12.174  0.00  0.00     0.001 A 
HETATM   11  C           1     -24.105  -3.137 -11.806  0.00  0.00     0.000 A 
HETATM   12  C           1     -24.307  -3.841 -10.620  0.00  0.00     0.001 A 
HETATM   13  C           1     -23.221  -4.151  -9.799  0.00  0.00     0.007 A 
ENDBRANCH   7   8
ENDBRANCH   6   7
BRANCH   6  14
HETATM   14  N           1     -21.553  -3.343  -7.069  0.00  0.00    -0.066 N 
HETATM   15  H           1     -20.791  -3.237  -6.361  0.00  0.00     0.275 HD
HETATM   16  H           1     -21.592  -2.488  -7.669  0.00  0.00     0.275 HD
HETATM   17  H           1     -22.468  -3.467  -6.581  0.00  0.00     0.275 HD
ENDBRANCH   6  14
ENDBRANCH   3   6
ENDBRANCH   1   2
BRANCH   1  18
HETATM   18  C           1     -20.033  -7.763  -4.909  0.00  0.00     0.074 C 
BRANCH  18  19
HETATM   19  C           1     -20.699  -8.514  -3.798  0.00  0.00    -0.056 A 
HETATM   20  C           1     -20.483  -8.134  -2.473  0.00  0.00     0.010 A 
HETATM   21  C           1     -21.102  -8.834  -1.438  0.00  0.00     0.038 A 
HETATM   22  C           1     -21.938  -9.914  -1.726  0.00  0.00     0.081 A 
HETATM   23  C           1     -22.152 -10.293  -3.051  0.00  0.00     0.038 A 
HETATM   24  C           1     -21.533  -9.593  -4.087  0.00  0.00     0.010 A 
BRANCH  22  25
HETATM   25  O           1     -22.539 -10.593  -0.721  0.00  0.00    -0.247 OA
BRANCH  25  26
HETATM   26  P           1     -21.637 -11.608   0.154  0.00  0.00     0.411 P 
HETATM   27  O           1     -20.892 -10.845   1.181  0.00  0.00    -0.624 OA
HETATM   28  O           1     -22.511 -12.601   0.816  0.00  0.00    -0.624 OA
BRANCH  26  29
HETATM   29  O           1     -20.592 -12.370  -0.814  0.00  0.00    -0.300 OA
HETATM   30  H           1     -20.689 -13.283  -0.606  0.00  0.00     0.223 HD
ENDBRANCH  26  29
ENDBRANCH  25  26
ENDBRANCH  22  25
ENDBRANCH  18  19
ENDBRANCH   1  18
BRANCH   1  31
HETATM   31  C           1     -21.792  -6.042  -5.178  0.00  0.00     0.197 C 
HETATM   32  O           1     -21.159  -5.289  -4.405  0.00  0.00    -0.646 OA
HETATM   33  O           1     -23.006  -5.836  -5.394  0.00  0.00    -0.646 OA
ENDBRANCH   1  31
TORSDOF 11
ENDMDL
MODEL 5
REMARK VINA RESULT:      -7.8      4.815     10.175
REMARK  11 active torsions:
REMARK  status: ('A' for Active; 'I' for Inactive)
REMARK    1  A    between atoms: O_2  and  P_32 
REMARK    2  A    between atoms: C_3  and  C_6 
REMARK       I    between atoms: C_4  and  N_5 
REMARK    3  A    between atoms: C_4  and  C_18 
REMARK    4  A    between atoms: N_5  and  C_7 
REMARK    5  A    between atoms: C_6  and  C_7 
REMARK    6  A    between atoms: C_7  and  C_13 
REMARK    7  A    between atoms: C_9  and  O_16 
REMARK    8  A    between atoms: O_16  and  P_32 
REMARK    9  A    between atoms: C_18  and  C_24 
REMARK   10  A    between atoms: C_18  and  N_19 
REMARK   11  A    between atoms: C_23  and  C_24 
ROOT
HETATM    1  C           1     -21.761  -7.745  -5.061  0.00  0.00     0.189 C 
ENDROOT
BRANCH   1   2
HETATM    2  N           1     -21.294  -7.463  -6.405  0.00  0.00    -0.344 N 
HETATM    3  C           1     -20.228  -6.625  -6.597  0.00  0.00     0.249 C 
HETATM    4  O           1     -19.106  -7.073  -6.628  0.00  0.00    -0.271 OA
HETATM    5  H           1     -21.756  -7.884  -7.201  0.00  0.00     0.163 HD
BRANCH   3   6
HETATM    6  C           1     -20.454  -5.143  -6.771  0.00  0.00     0.278 C 
BRANCH   6   7
HETATM    7  C           1     -19.694  -4.653  -7.996  0.00  0.00     0.081 C 
BRANCH   7   8
HETATM    8  C           1     -20.663  -4.352  -9.097  0.00  0.00    -0.056 A 
HETATM    9  C           1     -21.984  -4.025  -8.794  0.00  0.00     0.007 A 
HETATM   10  C           1     -22.886  -3.743  -9.820  0.00  0.00     0.001 A 
HETATM   11  C           1     -22.467  -3.789 -11.150  0.00  0.00     0.000 A 
HETATM   12  C           1     -21.146  -4.116 -11.453  0.00  0.00     0.001 A 
HETATM   13  C           1     -20.243  -4.397 -10.427  0.00  0.00     0.007 A 
ENDBRANCH   7   8
ENDBRANCH   6   7
BRANCH   6  14
HETATM   14  N           1     -19.960  -4.418  -5.554  0.00  0.00    -0.066 N 
HETATM   15  H           1     -20.768  -4.191  -4.933  0.00  0.00     0.275 HD
HETATM   16  H           1     -19.283  -5.024  -5.038  0.00  0.00     0.275 HD
HETATM   17  H           1     -19.483  -3.535  -5.845  0.00  0.00     0.275 HD
ENDBRANCH   6  14
ENDBRANCH   3   6
ENDBRANCH   1   2
BRANCH   1  18
HETATM   18  C           1     -20.583  -8.161  -4.192  0.00  0.00     0.074 C 
BRANCH  18  19
HETATM   19  C           1     -21.073  -8.999  -3.053  0.00  0.00    -0.056 A 
HETATM   20  C           1     -21.942 -10.064  -3.295  0.00  0.00     0.010 A 
HETATM   21  C           1     -22.399 -10.845  -2.233  0.00  0.00     0.038 A 
HETATM   22  C           1     -21.989 -10.563  -0.930  0.00  0.00     0.081 A 
HETATM   23  C           1     -21.121  -9.497  -0.689  0.00  0.00     0.038 A 
HETATM   24  C           1     -20.664  -8.716  -1.750  0.00  0.00     0.010 A 
BRANCH  22  25
HETATM   25  O           1     -22.434 -11.321   0.100  0.00  0.00    -0.247 OA
BRANCH  25  26
HETATM   26  P           1     -21.810 -12.799   0.279  0.00  0.00     0.411 P 
HETATM   27  O           1     -22.025 -13.261   1.668  0.00  0.00    -0.624 OA
HETATM   28  O           1     -22.473 -13.732  -0.660  0.00  0.00    -0.624 OA
BRANCH  26  29
HETATM   29  O           1     -20.226 -12.755  -0.036  0.00  0.00    -0.300 OA
HETATM   30  H           1     -20.129 -13.198  -0.861  0.00  0.00     0.223 HD
ENDBRANCH  26  29
ENDBRANCH  25  26
ENDBRANCH  22  25
ENDBRANCH  18  19
ENDBRANCH   1  18
BRANCH   1  31
HETATM   31  C           1     -22.402  -6.508  -4.482  0.00  0.00     0.197 C 
HETATM   32  O           1     -23.459  -6.060  -4.979  0.00  0.00    -0.646 OA
HETATM   33  O           1     -21.878  -5.930  -3.507  0.00  0.00    -0.646 OA
ENDBRANCH   1  31
TORSDOF 11
ENDMDL
MODEL 6
REMARK VINA RESULT:      -7.6      6.354      8.467
REMARK  11 active torsions:
REMARK  status: ('A' for Active; 'I' for Inactive)
REMARK    1  A    between atoms: O_2  and  P_32 
REMARK    2  A    between atoms: C_3  and  C_6 
REMARK       I    between atoms: C_4  and  N_5 
REMARK    3  A    between atoms: C_4  and  C_18 
REMARK    4  A    between atoms: N_5  and  C_7 
REMARK    5  A    between atoms: C_6  and  C_7 
REMARK    6  A    between atoms: C_7  and  C_13 
REMARK    7  A    between atoms: C_9  and  O_16 
REMARK    8  A    between atoms: O_16  and  P_32 
REMARK    9  A    between atoms: C_18  and  C_24 
REMARK   10  A    between atoms: C_18  and  N_19 
REMARK   11  A    between atoms: C_23  and  C_24 
ROOT
HETATM    1  C           1     -21.274  -7.753  -2.308  0.00  0.00     0.189 C 
ENDROOT
BRANCH   1   2
HETATM    2  N           1     -22.087  -8.453  -1.333  0.00  0.00    -0.344 N 
HETATM    3  C           1     -21.530  -8.883  -0.159  0.00  0.00     0.249 C 
HETATM    4  O           1     -21.532  -8.161   0.810  0.00  0.00    -0.271 OA
HETATM    5  H           1     -23.067  -8.625  -1.521  0.00  0.00     0.163 HD
BRANCH   3   6
HETATM    6  C           1     -20.916 -10.258  -0.073  0.00  0.00     0.278 C 
BRANCH   6   7
HETATM    7  C           1     -21.947 -11.303  -0.474  0.00  0.00     0.081 C 
BRANCH   7   8
HETATM    8  C           1     -21.665 -11.775  -1.867  0.00  0.00    -0.056 A 
HETATM    9  C           1     -22.663 -11.716  -2.839  0.00  0.00     0.007 A 
HETATM   10  C           1     -22.398 -12.156  -4.137  0.00  0.00     0.001 A 
HETATM   11  C           1     -21.137 -12.655  -4.461  0.00  0.00     0.000 A 
HETATM   12  C           1     -20.139 -12.714  -3.489  0.00  0.00     0.001 A 
HETATM   13  C           1     -20.403 -12.274  -2.191  0.00  0.00     0.007 A 
ENDBRANCH   7   8
ENDBRANCH   6   7
BRANCH   6  14
HETATM   14  N           1     -20.466 -10.516   1.335  0.00  0.00    -0.066 N 
HETATM   15  H           1     -20.322  -9.605   1.826  0.00  0.00     0.275 HD
HETATM   16  H           1     -21.194 -11.071   1.838  0.00  0.00     0.275 HD
HETATM   17  H           1     -19.569 -11.052   1.322  0.00  0.00     0.275 HD
ENDBRANCH   6  14
ENDBRANCH   3   6
ENDBRANCH   1   2
BRANCH   1  18
HETATM   18  C           1     -21.196  -8.573  -3.588  0.00  0.00     0.074 C 
BRANCH  18  19
HETATM   19  C           1     -19.780  -8.994  -3.828  0.00  0.00    -0.056 A 
HETATM   20  C           1     -18.887  -9.076  -2.759  0.00  0.00     0.010 A 
HETATM   21  C           1     -17.566  -9.467  -2.983  0.00  0.00     0.038 A 
HETATM   22  C           1     -17.139  -9.776  -4.274  0.00  0.00     0.081 A 
HETATM   23  C           1     -18.033  -9.693  -5.342  0.00  0.00     0.038 A 
HETATM   24  C           1     -19.353  -9.302  -5.119  0.00  0.00     0.010 A 
BRANCH  22  25
HETATM   25  O           1     -15.857 -10.156  -4.492  0.00  0.00    -0.247 OA
BRANCH  25  26
HETATM   26  P           1     -15.572 -11.710  -4.826  0.00  0.00     0.411 P 
HETATM   27  O           1     -14.243 -12.092  -4.299  0.00  0.00    -0.624 OA
HETATM   28  O           1     -16.614 -12.550  -4.194  0.00  0.00    -0.624 OA
BRANCH  26  29
HETATM   29  O           1     -15.601 -11.929  -6.426  0.00  0.00    -0.300 OA
HETATM   30  H           1     -15.490 -11.068  -6.792  0.00  0.00     0.223 HD
ENDBRANCH  26  29
ENDBRANCH  25  26
ENDBRANCH  22  25
ENDBRANCH  18  19
ENDBRANCH   1  18
BRANCH   1  31
HETATM   31  C           1     -21.893  -6.410  -2.607  0.00  0.00     0.197 C 
HETATM   32  O           1     -22.402  -5.736  -1.685  0.00  0.00    -0.646 OA
HETATM   33  O           1     -21.898  -5.970  -3.777  0.00  0.00    -0.646 OA
ENDBRANCH   1  31
TORSDOF 11
ENDMDL
MODEL 7
REMARK VINA RESULT:      -7.5      4.674      8.958
REMARK  11 active torsions:
REMARK  status: ('A' for Active; 'I' for Inactive)
REMARK    1  A    between atoms: O_2  and  P_32 
REMARK    2  A    between atoms: C_3  and  C_6 
REMARK       I    between atoms: C_4  and  N_5 
REMARK    3  A    between atoms: C_4  and  C_18 
REMARK    4  A    between atoms: N_5  and  C_7 
REMARK    5  A    between atoms: C_6  and  C_7 
REMARK    6  A    between atoms: C_7  and  C_13 
REMARK    7  A    between atoms: C_9  and  O_16 
REMARK    8  A    between atoms: O_16  and  P_32 
REMARK    9  A    between atoms: C_18  and  C_24 
REMARK   10  A    between atoms: C_18  and  N_19 
REMARK   11  A    between atoms: C_23  and  C_24 
ROOT
HETATM    1  C           1     -21.069  -7.352  -5.523  0.00  0.00     0.189 C 
ENDROOT
BRANCH   1   2
HETATM    2  N           1     -20.225  -6.736  -6.528  0.00  0.00    -0.344 N 
HETATM    3  C           1     -20.243  -5.378  -6.698  0.00  0.00     0.249 C 
HETATM    4  O           1     -19.482  -4.680  -6.068  0.00  0.00    -0.271 OA
HETATM    5  H           1     -19.623  -7.310  -7.104  0.00  0.00     0.163 HD
BRANCH   3   6
HETATM    6  C           1     -21.211  -4.750  -7.670  0.00  0.00     0.278 C 
BRANCH   6   7
HETATM    7  C           1     -20.494  -4.450  -8.980  0.00  0.00     0.081 C 
BRANCH   7   8
HETATM    8  C           1     -21.503  -4.249 -10.067  0.00  0.00    -0.056 A 
HETATM    9  C           1     -21.174  -3.493 -11.193  0.00  0.00     0.007 A 
HETATM   10  C           1     -22.115  -3.306 -12.206  0.00  0.00     0.001 A 
HETATM   11  C           1     -23.384  -3.875 -12.093  0.00  0.00     0.000 A 
HETATM   12  C           1     -23.713  -4.630 -10.968  0.00  0.00     0.001 A 
HETATM   13  C           1     -22.772  -4.817  -9.954  0.00  0.00     0.007 A 
ENDBRANCH   7   8
ENDBRANCH   6   7
BRANCH   6  14
HETATM   14  N           1     -21.744  -3.474  -7.089  0.00  0.00    -0.066 N 
HETATM   15  H           1     -21.502  -2.677  -7.720  0.00  0.00     0.275 HD
HETATM   16  H           1     -22.783  -3.541  -6.995  0.00  0.00     0.275 HD
HETATM   17  H           1     -21.320  -3.317  -6.147  0.00  0.00     0.275 HD
ENDBRANCH   6  14
ENDBRANCH   3   6
ENDBRANCH   1   2
BRANCH   1  18
HETATM   18  C           1     -20.199  -8.038  -4.480  0.00  0.00     0.074 C 
BRANCH  18  19
HETATM   19  C           1     -19.717  -9.351  -5.016  0.00  0.00    -0.056 A 
HETATM   20  C           1     -18.359  -9.543  -5.273  0.00  0.00     0.010 A 
HETATM   21  C           1     -17.911 -10.766  -5.772  0.00  0.00     0.038 A 
HETATM   22  C           1     -18.819 -11.796  -6.015  0.00  0.00     0.081 A 
HETATM   23  C           1     -20.176 -11.603  -5.759  0.00  0.00     0.038 A 
HETATM   24  C           1     -20.625 -10.381  -5.259  0.00  0.00     0.010 A 
BRANCH  22  25
HETATM   25  O           1     -18.383 -12.983  -6.501  0.00  0.00    -0.247 OA
BRANCH  25  26
HETATM   26  P           1     -18.738 -13.352  -8.033  0.00  0.00     0.411 P 
HETATM   27  O           1     -20.049 -14.036  -8.084  0.00  0.00    -0.624 OA
HETATM   28  O           1     -18.796 -12.112  -8.839  0.00  0.00    -0.624 OA
BRANCH  26  29
HETATM   29  O           1     -17.597 -14.328  -8.628  0.00  0.00    -0.300 OA
HETATM   30  H           1     -17.757 -15.164  -8.226  0.00  0.00     0.223 HD
ENDBRANCH  26  29
ENDBRANCH  25  26
ENDBRANCH  22  25
ENDBRANCH  18  19
ENDBRANCH   1  18
BRANCH   1  31
HETATM   31  C           1     -21.912  -6.292  -4.857  0.00  0.00     0.197 C 
HETATM   32  O           1     -23.012  -5.963  -5.353  0.00  0.00    -0.646 OA
HETATM   33  O           1     -21.511  -5.742  -3.809  0.00  0.00    -0.646 OA
ENDBRANCH   1  31
TORSDOF 11
ENDMDL
MODEL 8
REMARK VINA RESULT:      -7.3     12.967     15.302
REMARK  11 active torsions:
REMARK  status: ('A' for Active; 'I' for Inactive)
REMARK    1  A    between atoms: O_2  and  P_32 
REMARK    2  A    between atoms: C_3  and  C_6 
REMARK       I    between atoms: C_4  and  N_5 
REMARK    3  A    between atoms: C_4  and  C_18 
REMARK    4  A    between atoms: N_5  and  C_7 
REMARK    5  A    between atoms: C_6  and  C_7 
REMARK    6  A    between atoms: C_7  and  C_13 
REMARK    7  A    between atoms: C_9  and  O_16 
REMARK    8  A    between atoms: O_16  and  P_32 
REMARK    9  A    between atoms: C_18  and  C_24 
REMARK   10  A    between atoms: C_18  and  N_19 
REMARK   11  A    between atoms: C_23  and  C_24 
ROOT
HETATM    1  C           1     -35.136  -1.267 -15.950  0.00  0.00     0.189 C 
ENDROOT
BRANCH   1   2
HETATM    2  N           1     -35.432  -1.940 -14.701  0.00  0.00    -0.344 N 
HETATM    3  C           1     -35.777  -1.210 -13.595  0.00  0.00     0.249 C 
HETATM    4  O           1     -36.938  -0.952 -13.380  0.00  0.00    -0.271 OA
HETATM    5  H           1     -35.383  -2.950 -14.645  0.00  0.00     0.163 HD
BRANCH   3   6
HETATM    6  C           1     -34.708  -0.728 -12.645  0.00  0.00     0.278 C 
BRANCH   6   7
HETATM    7  C           1     -34.936  -1.341 -11.270  0.00  0.00     0.081 C 
BRANCH   7   8
HETATM    8  C           1     -34.482  -2.767 -11.277  0.00  0.00    -0.056 A 
HETATM    9  C           1     -33.182  -3.083 -11.672  0.00  0.00     0.007 A 
HETATM   10  C           1     -32.759  -4.412 -11.678  0.00  0.00     0.001 A 
HETATM   11  C           1     -33.636  -5.425 -11.288  0.00  0.00     0.000 A 
HETATM   12  C           1     -34.935  -5.110 -10.893  0.00  0.00     0.001 A 
HETATM   13  C           1     -35.358  -3.780 -10.887  0.00  0.00     0.007 A 
ENDBRANCH   7   8
ENDBRANCH   6   7
BRANCH   6  14
HETATM   14  N           1     -34.771   0.767 -12.542  0.00  0.00    -0.066 N 
HETATM   15  H           1     -34.477   1.063 -11.584  0.00  0.00     0.275 HD
HETATM   16  H           1     -34.130   1.192 -13.250  0.00  0.00     0.275 HD
HETATM   17  H           1     -35.749   1.088 -12.723  0.00  0.00     0.275 HD
ENDBRANCH   6  14
ENDBRANCH   3   6
ENDBRANCH   1   2
BRANCH   1  18
HETATM   18  C           1     -35.021  -2.296 -17.066  0.00  0.00     0.074 C 
BRANCH  18  19
HETATM   19  C           1     -33.807  -3.143 -16.842  0.00  0.00    -0.056 A 
HETATM   20  C           1     -33.793  -4.082 -15.811  0.00  0.00     0.010 A 
HETATM   21  C           1     -32.661  -4.871 -15.602  0.00  0.00     0.038 A 
HETATM   22  C           1     -31.544  -4.721 -16.424  0.00  0.00     0.081 A 
HETATM   23  C           1     -31.559  -3.781 -17.454  0.00  0.00     0.038 A 
HETATM   24  C           1     -32.690  -2.992 -17.664  0.00  0.00     0.010 A 
BRANCH  22  25
HETATM   25  O           1     -30.446  -5.487 -16.221  0.00  0.00    -0.247 OA
BRANCH  25  26
HETATM   26  P           1     -30.013  -6.518 -17.386  0.00  0.00     0.411 P 
HETATM   27  O           1     -31.212  -7.222 -17.892  0.00  0.00    -0.624 OA
HETATM   28  O           1     -29.376  -5.772 -18.494  0.00  0.00    -0.624 OA
BRANCH  26  29
HETATM   29  O           1     -28.967  -7.594 -16.790  0.00  0.00    -0.300 OA
HETATM   30  H           1     -28.651  -8.068 -17.540  0.00  0.00     0.223 HD
ENDBRANCH  26  29
ENDBRANCH  25  26
ENDBRANCH  22  25
ENDBRANCH  18  19
ENDBRANCH   1  18
BRANCH   1  31
HETATM   31  C           1     -36.245  -0.296 -16.273  0.00  0.00     0.197 C 
HETATM   32  O           1     -36.097   0.923 -16.040  0.00  0.00    -0.646 OA
HETATM   33  O           1     -37.313  -0.710 -16.773  0.00  0.00    -0.646 OA
ENDBRANCH   1  31
TORSDOF 11
ENDMDL
MODEL 9
REMARK VINA RESULT:      -7.3      4.817      9.745
REMARK  11 active torsions:
REMARK  status: ('A' for Active; 'I' for Inactive)
REMARK    1  A    between atoms: O_2  and  P_32 
REMARK    2  A    between atoms: C_3  and  C_6 
REMARK       I    between atoms: C_4  and  N_5 
REMARK    3  A    between atoms: C_4  and  C_18 
REMARK    4  A    between atoms: N_5  and  C_7 
REMARK    5  A    between atoms: C_6  and  C_7 
REMARK    6  A    between atoms: C_7  and  C_13 
REMARK    7  A    between atoms: C_9  and  O_16 
REMARK    8  A    between atoms: O_16  and  P_32 
REMARK    9  A    between atoms: C_18  and  C_24 
REMARK   10  A    between atoms: C_18  and  N_19 
REMARK   11  A    between atoms: C_23  and  C_24 
ROOT
HETATM    1  C           1     -21.284  -7.506  -5.695  0.00  0.00     0.189 C 
ENDROOT
BRANCH   1   2
HETATM    2  N           1     -20.447  -6.793  -6.640  0.00  0.00    -0.344 N 
HETATM    3  C           1     -20.627  -5.451  -6.837  0.00  0.00     0.249 C 
HETATM    4  O           1     -20.018  -4.655  -6.162  0.00  0.00    -0.271 OA
HETATM    5  H           1     -19.730  -7.289  -7.155  0.00  0.00     0.163 HD
BRANCH   3   6
HETATM    6  C           1     -21.584  -4.964  -7.897  0.00  0.00     0.278 C 
BRANCH   6   7
HETATM    7  C           1     -20.800  -4.341  -9.044  0.00  0.00     0.081 C 
BRANCH   7   8
HETATM    8  C           1     -21.707  -4.137 -10.217  0.00  0.00    -0.056 A 
HETATM    9  C           1     -22.923  -4.817 -10.286  0.00  0.00     0.007 A 
HETATM   10  C           1     -23.768  -4.626 -11.379  0.00  0.00     0.001 A 
HETATM   11  C           1     -23.397  -3.754 -12.403  0.00  0.00     0.000 A 
HETATM   12  C           1     -22.182  -3.074 -12.335  0.00  0.00     0.001 A 
HETATM   13  C           1     -21.337  -3.265 -11.241  0.00  0.00     0.007 A 
ENDBRANCH   7   8
ENDBRANCH   6   7
BRANCH   6  14
HETATM   14  N           1     -22.503  -3.937  -7.304  0.00  0.00    -0.066 N 
HETATM   15  H           1     -22.393  -3.034  -7.818  0.00  0.00     0.275 HD
HETATM   16  H           1     -23.492  -4.265  -7.385  0.00  0.00     0.275 HD
HETATM   17  H           1     -22.264  -3.797  -6.297  0.00  0.00     0.275 HD
ENDBRANCH   6  14
ENDBRANCH   3   6
ENDBRANCH   1   2
BRANCH   1  18
HETATM   18  C           1     -20.432  -8.482  -4.897  0.00  0.00     0.074 C 
BRANCH  18  19
HETATM   19  C           1     -21.115  -9.813  -4.840  0.00  0.00    -0.056 A 
HETATM   20  C           1     -20.912 -10.744  -5.859  0.00  0.00     0.010 A 
HETATM   21  C           1     -21.549 -11.984  -5.806  0.00  0.00     0.038 A 
HETATM   22  C           1     -22.388 -12.294  -4.736  0.00  0.00     0.081 A 
HETATM   23  C           1     -22.590 -11.362  -3.718  0.00  0.00     0.038 A 
HETATM   24  C           1     -21.954 -10.122  -3.770  0.00  0.00     0.010 A 
BRANCH  22  25
HETATM   25  O           1     -23.006 -13.497  -4.685  0.00  0.00    -0.247 OA
BRANCH  25  26
HETATM   26  P           1     -22.428 -14.605  -3.662  0.00  0.00     0.411 P 
HETATM   27  O           1     -20.955 -14.488  -3.589  0.00  0.00    -0.624 OA
HETATM   28  O           1     -23.008 -14.386  -2.318  0.00  0.00    -0.624 OA
BRANCH  26  29
HETATM   29  O           1     -22.826 -16.080  -4.186  0.00  0.00    -0.300 OA
HETATM   30  H           1     -22.260 -16.238  -4.921  0.00  0.00     0.223 HD
ENDBRANCH  26  29
ENDBRANCH  25  26
ENDBRANCH  22  25
ENDBRANCH  18  19
ENDBRANCH   1  18
BRANCH   1  31
HETATM   31  C           1     -21.934  -6.520  -4.756  0.00  0.00     0.197 C 
HETATM   32  O           1     -23.073  -6.070  -5.011  0.00  0.00    -0.646 OA
HETATM   33  O           1     -21.334  -6.151  -3.724  0.00  0.00    -0.646 OA
ENDBRANCH   1  31
TORSDOF 11
ENDMDL
