MODEL 1
REMARK VINA RESULT:      -7.4      0.000      0.000
REMARK  12 active torsions:
REMARK  status: ('A' for Active; 'I' for Inactive)
REMARK    1  A    between atoms: C_2  and  C_3 
REMARK    2  A    between atoms: C_2  and  S_11 
REMARK    3  A    between atoms: C_3  and  C_18 
REMARK    4  A    between atoms: C_5  and  C_26 
REMARK    5  A    between atoms: O_6  and  P_9 
REMARK    6  A    between atoms: P_9  and  O_22 
REMARK    7  A    between atoms: C_12  and  C_25 
REMARK    8  A    between atoms: C_18  and  C_27 
REMARK    9  A    between atoms: C_18  and  N_30 
REMARK   10  A    between atoms: O_22  and  C_29 
REMARK   11  A    between atoms: N_23  and  C_25 
REMARK       I    between atoms: N_23  and  C_27 
REMARK   12  A    between atoms: C_25  and  C_26 
ROOT
HETATM    1  C           1     -21.656  -6.810  -5.370  0.00  0.00     0.189 C 
ENDROOT
BRANCH   1   2
HETATM    2  C           1     -20.892  -8.080  -5.089  0.00  0.00     0.197 C 
HETATM    3  O           1     -19.656  -8.038  -4.899  0.00  0.00    -0.646 OA
HETATM    4  O           1     -21.492  -9.175  -5.045  0.00  0.00    -0.646 OA
ENDBRANCH   1   2
BRANCH   1   5
HETATM    5  N           1     -22.390  -6.415  -4.183  0.00  0.00    -0.344 N 
HETATM    6  H           1     -23.378  -6.204  -4.245  0.00  0.00     0.163 HD
HETATM    7  C           1     -21.746  -6.328  -2.979  0.00  0.00     0.249 C 
HETATM    8  O           1     -21.235  -5.286  -2.641  0.00  0.00    -0.271 OA
BRANCH   7   9
HETATM    9  C           1     -21.673  -7.532  -2.073  0.00  0.00     0.275 C 
BRANCH   9  10
HETATM   10  C           1     -22.374  -7.222  -0.757  0.00  0.00     0.053 C 
BRANCH  10  11
HETATM   11  C           1     -22.099  -8.339   0.242  0.00  0.00     0.076 C 
BRANCH  11  12
HETATM   12  S           1     -22.975  -9.842  -0.273  0.00  0.00    -0.173 SA
HETATM   13  C           1     -21.717 -11.015   0.307  0.00  0.00     0.089 C 
ENDBRANCH  11  12
ENDBRANCH  10  11
ENDBRANCH   9  10
BRANCH   9  14
HETATM   14  N           1     -20.237  -7.870  -1.806  0.00  0.00    -0.066 N 
HETATM   15  H           1     -19.707  -6.995  -1.591  0.00  0.00     0.275 HD
HETATM   16  H           1     -20.178  -8.522  -0.992  0.00  0.00     0.275 HD
HETATM   17  H           1     -19.823  -8.328  -2.650  0.00  0.00     0.275 HD
ENDBRANCH   9  14
ENDBRANCH   7   9
ENDBRANCH   1   5
BRANCH   1  18
HETATM   18  C           1     -20.683  -5.706  -5.757  0.00  0.00     0.074 C 
BRANCH  18  19
HETATM   19  C           1     -21.127  -5.073  -7.039  0.00  0.00    -0.056 A 
HETATM   20  C           1     -22.399  -4.508  -7.133  0.00  0.00     0.010 A 
HETATM   21  C           1     -22.813  -3.918  -8.327  0.00  0.00     0.038 A 
HETATM   22  C           1     -21.957  -3.895  -9.428  0.00  0.00     0.081 A 
HETATM   23  C           1     -20.686  -4.461  -9.334  0.00  0.00     0.038 A 
HETATM   24  C           1     -20.271  -5.050  -8.140  0.00  0.00     0.010 A 
BRANCH  22  25
HETATM   25  O           1     -22.359  -3.323 -10.588  0.00  0.00    -0.247 OA
BRANCH  25  26
HETATM   26  P           1     -23.629  -3.967 -11.351  0.00  0.00     0.411 P 
HETATM   27  O           1     -24.844  -3.183 -11.035  0.00  0.00    -0.624 OA
HETATM   28  O           1     -23.814  -5.365 -10.904  0.00  0.00    -0.624 OA
BRANCH  26  29
HETATM   29  O           1     -23.370  -3.939 -12.944  0.00  0.00    -0.300 OA
HETATM   30  H           1     -23.513  -4.824 -13.230  0.00  0.00     0.223 HD
ENDBRANCH  26  29
ENDBRANCH  25  26
ENDBRANCH  22  25
ENDBRANCH  18  19
ENDBRANCH   1  18
TORSDOF 12
ENDMDL
MODEL 2
REMARK VINA RESULT:      -7.3      1.879      2.755
REMARK  12 active torsions:
REMARK  status: ('A' for Active; 'I' for Inactive)
REMARK    1  A    between atoms: C_2  and  C_3 
REMARK    2  A    between atoms: C_2  and  S_11 
REMARK    3  A    between atoms: C_3  and  C_18 
REMARK    4  A    between atoms: C_5  and  C_26 
REMARK    5  A    between atoms: O_6  and  P_9 
REMARK    6  A    between atoms: P_9  and  O_22 
REMARK    7  A    between atoms: C_12  and  C_25 
REMARK    8  A    between atoms: C_18  and  C_27 
REMARK    9  A    between atoms: C_18  and  N_30 
REMARK   10  A    between atoms: O_22  and  C_29 
REMARK   11  A    between atoms: N_23  and  C_25 
REMARK       I    between atoms: N_23  and  C_27 
REMARK   12  A    between atoms: C_25  and  C_26 
ROOT
HETATM    1  C           1     -21.189  -6.073  -7.147  0.00  0.00     0.189 C 
ENDROOT
BRANCH   1   2
HETATM    2  C           1     -19.710  -5.984  -6.867  0.00  0.00     0.197 C 
HETATM    3  O           1     -19.174  -4.870  -6.677  0.00  0.00    -0.646 OA
HETATM    4  O           1     -19.017  -7.024  -6.825  0.00  0.00    -0.646 OA
ENDBRANCH   1   2
BRANCH   1   5
HETATM    5  N           1     -21.811  -6.958  -6.181  0.00  0.00    -0.344 N 
HETATM    6  H           1     -21.874  -7.951  -6.371  0.00  0.00     0.163 HD
HETATM    7  C           1     -22.312  -6.452  -5.012  0.00  0.00     0.249 C 
HETATM    8  O           1     -23.460  -6.081  -4.958  0.00  0.00    -0.271 OA
BRANCH   7   9
HETATM    9  C           1     -21.430  -6.356  -3.792  0.00  0.00     0.275 C 
BRANCH   9  10
HETATM   10  C           1     -20.700  -7.677  -3.587  0.00  0.00     0.053 C 
BRANCH  10  11
HETATM   11  C           1     -21.659  -8.701  -2.995  0.00  0.00     0.076 C 
BRANCH  11  12
HETATM   12  S           1     -20.789  -9.700  -1.753  0.00  0.00    -0.173 SA
HETATM   13  C           1     -21.112  -8.596  -0.349  0.00  0.00     0.089 C 
ENDBRANCH  11  12
ENDBRANCH  10  11
ENDBRANCH   9  10
BRANCH   9  14
HETATM   14  N           1     -22.273  -6.060  -2.588  0.00  0.00    -0.066 N 
HETATM   15  H           1     -22.721  -5.122  -2.699  0.00  0.00     0.275 HD
HETATM   16  H           1     -23.014  -6.790  -2.494  0.00  0.00     0.275 HD
HETATM   17  H           1     -21.673  -6.060  -1.732  0.00  0.00     0.275 HD
ENDBRANCH   9  14
ENDBRANCH   7   9
ENDBRANCH   1   5
BRANCH   1  18
HETATM   18  C           1     -21.811  -4.688  -7.040  0.00  0.00     0.074 C 
BRANCH  18  19
HETATM   19  C           1     -22.100  -4.162  -8.411  0.00  0.00    -0.056 A 
HETATM   20  C           1     -21.085  -4.116  -9.368  0.00  0.00     0.010 A 
HETATM   21  C           1     -21.354  -3.625 -10.646  0.00  0.00     0.038 A 
HETATM   22  C           1     -22.636  -3.179 -10.967  0.00  0.00     0.081 A 
HETATM   23  C           1     -23.650  -3.225 -10.010  0.00  0.00     0.038 A 
HETATM   24  C           1     -23.382  -3.716  -8.732  0.00  0.00     0.010 A 
BRANCH  22  25
HETATM   25  O           1     -22.897  -2.703 -12.208  0.00  0.00    -0.247 OA
BRANCH  25  26
HETATM   26  P           1     -23.946  -3.517 -13.127  0.00  0.00     0.411 P 
HETATM   27  O           1     -23.636  -3.281 -14.555  0.00  0.00    -0.624 OA
HETATM   28  O           1     -25.320  -3.050 -12.837  0.00  0.00    -0.624 OA
BRANCH  26  29
HETATM   29  O           1     -23.832  -5.094 -12.806  0.00  0.00    -0.300 OA
HETATM   30  H           1     -23.245  -5.152 -12.072  0.00  0.00     0.223 HD
ENDBRANCH  26  29
ENDBRANCH  25  26
ENDBRANCH  22  25
ENDBRANCH  18  19
ENDBRANCH   1  18
TORSDOF 12
ENDMDL
MODEL 3
REMARK VINA RESULT:      -7.3      1.862      2.711
REMARK  12 active torsions:
REMARK  status: ('A' for Active; 'I' for Inactive)
REMARK    1  A    between atoms: C_2  and  C_3 
REMARK    2  A    between atoms: C_2  and  S_11 
REMARK    3  A    between atoms: C_3  and  C_18 
REMARK    4  A    between atoms: C_5  and  C_26 
REMARK    5  A    between atoms: O_6  and  P_9 
REMARK    6  A    between atoms: P_9  and  O_22 
REMARK    7  A    between atoms: C_12  and  C_25 
REMARK    8  A    between atoms: C_18  and  C_27 
REMARK    9  A    between atoms: C_18  and  N_30 
REMARK   10  A    between atoms: O_22  and  C_29 
REMARK   11  A    between atoms: N_23  and  C_25 
REMARK       I    between atoms: N_23  and  C_27 
REMARK   12  A    between atoms: C_25  and  C_26 
ROOT
HETATM    1  C           1     -21.582  -5.558  -6.615  0.00  0.00     0.189 C 
ENDROOT
BRANCH   1   2
HETATM    2  C           1     -20.089  -5.598  -6.402  0.00  0.00     0.197 C 
HETATM    3  O           1     -19.499  -4.608  -5.916  0.00  0.00    -0.646 OA
HETATM    4  O           1     -19.440  -6.620  -6.713  0.00  0.00    -0.646 OA
ENDBRANCH   1   2
BRANCH   1   5
HETATM    5  N           1     -22.256  -5.857  -5.366  0.00  0.00    -0.344 N 
HETATM    6  H           1     -23.209  -5.552  -5.219  0.00  0.00     0.163 HD
HETATM    7  C           1     -21.602  -6.554  -4.386  0.00  0.00     0.249 C 
HETATM    8  O           1     -20.963  -5.962  -3.549  0.00  0.00    -0.271 OA
BRANCH   7   9
HETATM    9  C           1     -21.678  -8.061  -4.352  0.00  0.00     0.275 C 
BRANCH   9  10
HETATM   10  C           1     -20.808  -8.588  -3.218  0.00  0.00     0.053 C 
BRANCH  10  11
HETATM   11  C           1     -21.693  -9.208  -2.145  0.00  0.00     0.076 C 
BRANCH  11  12
HETATM   12  S           1     -21.570  -8.233  -0.619  0.00  0.00    -0.173 SA
HETATM   13  C           1     -21.245  -9.635   0.487  0.00  0.00     0.089 C 
ENDBRANCH  11  12
ENDBRANCH  10  11
ENDBRANCH   9  10
BRANCH   9  14
HETATM   14  N           1     -21.189  -8.615  -5.656  0.00  0.00    -0.066 N 
HETATM   15  H           1     -20.264  -8.189  -5.891  0.00  0.00     0.275 HD
HETATM   16  H           1     -21.085  -9.652  -5.576  0.00  0.00     0.275 HD
HETATM   17  H           1     -21.877  -8.391  -6.410  0.00  0.00     0.275 HD
ENDBRANCH   9  14
ENDBRANCH   7   9
ENDBRANCH   1   5
BRANCH   1  18
HETATM   18  C           1     -21.990  -4.171  -7.091  0.00  0.00     0.074 C 
BRANCH  18  19
HETATM   19  C           1     -22.450  -4.246  -8.514  0.00  0.00    -0.056 A 
HETATM   20  C           1     -21.520  -4.428  -9.538  0.00  0.00     0.010 A 
HETATM   21  C           1     -21.949  -4.498 -10.864  0.00  0.00     0.038 A 
HETATM   22  C           1     -23.306  -4.385 -11.166  0.00  0.00     0.081 A 
HETATM   23  C           1     -24.235  -4.203 -10.142  0.00  0.00     0.038 A 
HETATM   24  C           1     -23.807  -4.133  -8.816  0.00  0.00     0.010 A 
BRANCH  22  25
HETATM   25  O           1     -23.722  -4.453 -12.453  0.00  0.00    -0.247 OA
BRANCH  25  26
HETATM   26  P           1     -23.845  -3.074 -13.284  0.00  0.00     0.411 P 
HETATM   27  O           1     -22.849  -2.103 -12.780  0.00  0.00    -0.624 OA
HETATM   28  O           1     -25.205  -2.517 -13.115  0.00  0.00    -0.624 OA
BRANCH  26  29
HETATM   29  O           1     -23.570  -3.362 -14.849  0.00  0.00    -0.300 OA
HETATM   30  H           1     -23.501  -4.299 -14.916  0.00  0.00     0.223 HD
ENDBRANCH  26  29
ENDBRANCH  25  26
ENDBRANCH  22  25
ENDBRANCH  18  19
ENDBRANCH   1  18
TORSDOF 12
ENDMDL
MODEL 4
REMARK VINA RESULT:      -6.7      1.249      2.020
REMARK  12 active torsions:
REMARK  status: ('A' for Active; 'I' for Inactive)
REMARK    1  A    between atoms: C_2  and  C_3 
REMARK    2  A    between atoms: C_2  and  S_11 
REMARK    3  A    between atoms: C_3  and  C_18 
REMARK    4  A    between atoms: C_5  and  C_26 
REMARK    5  A    between atoms: O_6  and  P_9 
REMARK    6  A    between atoms: P_9  and  O_22 
REMARK    7  A    between atoms: C_12  and  C_25 
REMARK    8  A    between atoms: C_18  and  C_27 
REMARK    9  A    between atoms: C_18  and  N_30 
REMARK   10  A    between atoms: O_22  and  C_29 
REMARK   11  A    between atoms: N_23  and  C_25 
REMARK       I    between atoms: N_23  and  C_27 
REMARK   12  A    between atoms: C_25  and  C_26 
ROOT
HETATM    1  C           1     -21.311  -7.685  -5.667  0.00  0.00     0.189 C 
ENDROOT
BRANCH   1   2
HETATM    2  C           1     -20.403  -8.889  -5.628  0.00  0.00     0.197 C 
HETATM    3  O           1     -20.889 -10.041  -5.663  0.00  0.00    -0.646 OA
HETATM    4  O           1     -19.165  -8.736  -5.559  0.00  0.00    -0.646 OA
ENDBRANCH   1   2
BRANCH   1   5
HETATM    5  N           1     -22.063  -7.607  -4.430  0.00  0.00    -0.344 N 
HETATM    6  H           1     -23.061  -7.775  -4.432  0.00  0.00     0.163 HD
HETATM    7  C           1     -21.423  -7.306  -3.258  0.00  0.00     0.249 C 
HETATM    8  O           1     -21.312  -6.154  -2.910  0.00  0.00    -0.271 OA
BRANCH   7   9
HETATM    9  C           1     -20.855  -8.411  -2.402  0.00  0.00     0.275 C 
BRANCH   9  10
HETATM   10  C           1     -21.865  -9.546  -2.302  0.00  0.00     0.053 C 
BRANCH  10  11
HETATM   11  C           1     -21.149 -10.830  -1.902  0.00  0.00     0.076 C 
BRANCH  11  12
HETATM   12  S           1     -21.927 -11.520  -0.414  0.00  0.00    -0.173 SA
HETATM   13  C           1     -23.342 -10.383  -0.384  0.00  0.00     0.089 C 
ENDBRANCH  11  12
ENDBRANCH  10  11
ENDBRANCH   9  10
BRANCH   9  14
HETATM   14  N           1     -20.562  -7.880  -1.031  0.00  0.00    -0.066 N 
HETATM   15  H           1     -19.862  -8.498  -0.561  0.00  0.00     0.275 HD
HETATM   16  H           1     -20.176  -6.912  -1.107  0.00  0.00     0.275 HD
HETATM   17  H           1     -21.442  -7.861  -0.468  0.00  0.00     0.275 HD
ENDBRANCH   9  14
ENDBRANCH   7   9
ENDBRANCH   1   5
BRANCH   1  18
HETATM   18  C           1     -20.476  -6.424  -5.834  0.00  0.00     0.074 C 
BRANCH  18  19
HETATM   19  C           1     -21.103  -5.541  -6.868  0.00  0.00    -0.056 A 
HETATM   20  C           1     -20.413  -5.244  -8.043  0.00  0.00     0.010 A 
HETATM   21  C           1     -20.998  -4.421  -9.006  0.00  0.00     0.038 A 
HETATM   22  C           1     -22.271  -3.894  -8.794  0.00  0.00     0.081 A 
HETATM   23  C           1     -22.961  -4.191  -7.618  0.00  0.00     0.038 A 
HETATM   24  C           1     -22.377  -5.014  -6.655  0.00  0.00     0.010 A 
BRANCH  22  25
HETATM   25  O           1     -22.839  -3.096  -9.729  0.00  0.00    -0.247 OA
BRANCH  25  26
HETATM   26  P           1     -24.150  -3.641 -10.497  0.00  0.00     0.411 P 
HETATM   27  O           1     -24.020  -5.098 -10.723  0.00  0.00    -0.624 OA
HETATM   28  O           1     -24.281  -2.950 -11.799  0.00  0.00    -0.624 OA
BRANCH  26  29
HETATM   29  O           1     -25.459  -3.352  -9.598  0.00  0.00    -0.300 OA
HETATM   30  H           1     -25.242  -2.591  -9.088  0.00  0.00     0.223 HD
ENDBRANCH  26  29
ENDBRANCH  25  26
ENDBRANCH  22  25
ENDBRANCH  18  19
ENDBRANCH   1  18
TORSDOF 12
ENDMDL
MODEL 5
REMARK VINA RESULT:      -6.4      2.473      3.053
REMARK  12 active torsions:
REMARK  status: ('A' for Active; 'I' for Inactive)
REMARK    1  A    between atoms: C_2  and  C_3 
REMARK    2  A    between atoms: C_2  and  S_11 
REMARK    3  A    between atoms: C_3  and  C_18 
REMARK    4  A    between atoms: C_5  and  C_26 
REMARK    5  A    between atoms: O_6  and  P_9 
REMARK    6  A    between atoms: P_9  and  O_22 
REMARK    7  A    between atoms: C_12  and  C_25 
REMARK    8  A    between atoms: C_18  and  C_27 
REMARK    9  A    between atoms: C_18  and  N_30 
REMARK   10  A    between atoms: O_22  and  C_29 
REMARK   11  A    between atoms: N_23  and  C_25 
REMARK       I    between atoms: N_23  and  C_27 
REMARK   12  A    between atoms: C_25  and  C_26 
ROOT
HETATM    1  C           1     -21.607  -5.790  -6.816  0.00  0.00     0.189 C 
ENDROOT
BRANCH   1   2
HETATM    2  C           1     -20.122  -5.661  -6.588  0.00  0.00     0.197 C 
HETATM    3  O           1     -19.672  -4.705  -5.919  0.00  0.00    -0.646 OA
HETATM    4  O           1     -19.339  -6.508  -7.068  0.00  0.00    -0.646 OA
ENDBRANCH   1   2
BRANCH   1   5
HETATM    5  N           1     -22.212  -6.470  -5.687  0.00  0.00    -0.344 N 
HETATM    6  H           1     -23.201  -6.362  -5.501  0.00  0.00     0.163 HD
HETATM    7  C           1     -21.445  -7.261  -4.874  0.00  0.00     0.249 C 
HETATM    8  O           1     -20.901  -6.782  -3.907  0.00  0.00    -0.271 OA
BRANCH   7   9
HETATM    9  C           1     -21.279  -8.727  -5.185  0.00  0.00     0.275 C 
BRANCH   9  10
HETATM   10  C           1     -21.719  -9.555  -3.985  0.00  0.00     0.053 C 
BRANCH  10  11
HETATM   11  C           1     -21.006 -10.901  -4.006  0.00  0.00     0.076 C 
BRANCH  11  12
HETATM   12  S           1     -21.949 -12.070  -5.025  0.00  0.00    -0.173 SA
HETATM   13  C           1     -22.489 -13.135  -3.657  0.00  0.00     0.089 C 
ENDBRANCH  11  12
ENDBRANCH  10  11
ENDBRANCH   9  10
BRANCH   9  14
HETATM   14  N           1     -19.838  -9.013  -5.487  0.00  0.00    -0.066 N 
HETATM   15  H           1     -19.670 -10.044  -5.440  0.00  0.00     0.275 HD
HETATM   16  H           1     -19.608  -8.666  -6.446  0.00  0.00     0.275 HD
HETATM   17  H           1     -19.232  -8.530  -4.787  0.00  0.00     0.275 HD
ENDBRANCH   9  14
ENDBRANCH   7   9
ENDBRANCH   1   5
BRANCH   1  18
HETATM   18  C           1     -22.222  -4.405  -6.963  0.00  0.00     0.074 C 
BRANCH  18  19
HETATM   19  C           1     -22.280  -4.035  -8.412  0.00  0.00    -0.056 A 
HETATM   20  C           1     -23.490  -3.634  -8.980  0.00  0.00     0.010 A 
HETATM   21  C           1     -23.544  -3.289 -10.331  0.00  0.00     0.038 A 
HETATM   22  C           1     -22.391  -3.345 -11.113  0.00  0.00     0.081 A 
HETATM   23  C           1     -21.182  -3.745 -10.544  0.00  0.00     0.038 A 
HETATM   24  C           1     -21.127  -4.091  -9.194  0.00  0.00     0.010 A 
BRANCH  22  25
HETATM   25  O           1     -22.444  -3.009 -12.424  0.00  0.00    -0.247 OA
BRANCH  25  26
HETATM   26  P           1     -23.745  -3.459 -13.270  0.00  0.00     0.411 P 
HETATM   27  O           1     -23.517  -3.189 -14.706  0.00  0.00    -0.624 OA
HETATM   28  O           1     -24.923  -2.694 -12.805  0.00  0.00    -0.624 OA
BRANCH  26  29
HETATM   29  O           1     -24.006  -5.038 -13.055  0.00  0.00    -0.300 OA
HETATM   30  H           1     -24.292  -5.354 -13.894  0.00  0.00     0.223 HD
ENDBRANCH  26  29
ENDBRANCH  25  26
ENDBRANCH  22  25
ENDBRANCH  18  19
ENDBRANCH   1  18
TORSDOF 12
ENDMDL
MODEL 6
REMARK VINA RESULT:      -6.4      4.909      9.026
REMARK  12 active torsions:
REMARK  status: ('A' for Active; 'I' for Inactive)
REMARK    1  A    between atoms: C_2  and  C_3 
REMARK    2  A    between atoms: C_2  and  S_11 
REMARK    3  A    between atoms: C_3  and  C_18 
REMARK    4  A    between atoms: C_5  and  C_26 
REMARK    5  A    between atoms: O_6  and  P_9 
REMARK    6  A    between atoms: P_9  and  O_22 
REMARK    7  A    between atoms: C_12  and  C_25 
REMARK    8  A    between atoms: C_18  and  C_27 
REMARK    9  A    between atoms: C_18  and  N_30 
REMARK   10  A    between atoms: O_22  and  C_29 
REMARK   11  A    between atoms: N_23  and  C_25 
REMARK       I    between atoms: N_23  and  C_27 
REMARK   12  A    between atoms: C_25  and  C_26 
ROOT
HETATM    1  C           1     -21.081  -7.013  -5.975  0.00  0.00     0.189 C 
ENDROOT
BRANCH   1   2
HETATM    2  C           1     -21.824  -6.174  -4.965  0.00  0.00     0.197 C 
HETATM    3  O           1     -21.196  -5.579  -4.062  0.00  0.00    -0.646 OA
HETATM    4  O           1     -23.069  -6.075  -5.028  0.00  0.00    -0.646 OA
ENDBRANCH   1   2
BRANCH   1   5
HETATM    5  N           1     -20.587  -6.160  -7.039  0.00  0.00    -0.344 N 
HETATM    6  H           1     -19.803  -6.460  -7.605  0.00  0.00     0.163 HD
HETATM    7  C           1     -21.181  -4.951  -7.279  0.00  0.00     0.249 C 
HETATM    8  O           1     -20.783  -3.960  -6.712  0.00  0.00    -0.271 OA
BRANCH   7   9
HETATM    9  C           1     -22.332  -4.854  -8.249  0.00  0.00     0.275 C 
BRANCH   9  10
HETATM   10  C           1     -21.916  -4.012  -9.449  0.00  0.00     0.053 C 
BRANCH  10  11
HETATM   11  C           1     -22.822  -4.330 -10.631  0.00  0.00     0.076 C 
BRANCH  11  12
HETATM   12  S           1     -22.695  -3.005 -11.866  0.00  0.00    -0.173 SA
HETATM   13  C           1     -24.426  -3.072 -12.408  0.00  0.00     0.089 C 
ENDBRANCH  11  12
ENDBRANCH  10  11
ENDBRANCH   9  10
BRANCH   9  14
HETATM   14  N           1     -23.505  -4.212  -7.571  0.00  0.00    -0.066 N 
HETATM   15  H           1     -24.196  -3.901  -8.290  0.00  0.00     0.275 HD
HETATM   16  H           1     -23.956  -4.902  -6.929  0.00  0.00     0.275 HD
HETATM   17  H           1     -23.180  -3.385  -7.020  0.00  0.00     0.275 HD
ENDBRANCH   9  14
ENDBRANCH   7   9
ENDBRANCH   1   5
BRANCH   1  18
HETATM   18  C           1     -19.910  -7.708  -5.296  0.00  0.00     0.074 C 
BRANCH  18  19
HETATM   19  C           1     -20.426  -8.724  -4.326  0.00  0.00    -0.056 A 
HETATM   20  C           1     -21.570  -9.462  -4.631  0.00  0.00     0.010 A 
HETATM   21  C           1     -22.051 -10.409  -3.727  0.00  0.00     0.038 A 
HETATM   22  C           1     -21.390 -10.617  -2.517  0.00  0.00     0.081 A 
HETATM   23  C           1     -20.246  -9.880  -2.212  0.00  0.00     0.038 A 
HETATM   24  C           1     -19.765  -8.933  -3.116  0.00  0.00     0.010 A 
BRANCH  22  25
HETATM   25  O           1     -21.857 -11.537  -1.639  0.00  0.00    -0.247 OA
BRANCH  25  26
HETATM   26  P           1     -22.490 -11.007  -0.251  0.00  0.00     0.411 P 
HETATM   27  O           1     -21.442 -10.984   0.793  0.00  0.00    -0.624 OA
HETATM   28  O           1     -23.584 -11.912   0.168  0.00  0.00    -0.624 OA
BRANCH  26  29
HETATM   29  O           1     -23.073  -9.517  -0.460  0.00  0.00    -0.300 OA
HETATM   30  H           1     -23.530  -9.319   0.339  0.00  0.00     0.223 HD
ENDBRANCH  26  29
ENDBRANCH  25  26
ENDBRANCH  22  25
ENDBRANCH  18  19
ENDBRANCH   1  18
TORSDOF 12
ENDMDL
MODEL 7
REMARK VINA RESULT:      -6.3      2.907      4.271
REMARK  12 active torsions:
REMARK  status: ('A' for Active; 'I' for Inactive)
REMARK    1  A    between atoms: C_2  and  C_3 
REMARK    2  A    between atoms: C_2  and  S_11 
REMARK    3  A    between atoms: C_3  and  C_18 
REMARK    4  A    between atoms: C_5  and  C_26 
REMARK    5  A    between atoms: O_6  and  P_9 
REMARK    6  A    between atoms: P_9  and  O_22 
REMARK    7  A    between atoms: C_12  and  C_25 
REMARK    8  A    between atoms: C_18  and  C_27 
REMARK    9  A    between atoms: C_18  and  N_30 
REMARK   10  A    between atoms: O_22  and  C_29 
REMARK   11  A    between atoms: N_23  and  C_25 
REMARK       I    between atoms: N_23  and  C_27 
REMARK   12  A    between atoms: C_25  and  C_26 
ROOT
HETATM    1  C           1     -21.252  -7.504  -3.792  0.00  0.00     0.189 C 
ENDROOT
BRANCH   1   2
HETATM    2  C           1     -21.530  -6.828  -2.472  0.00  0.00     0.197 C 
HETATM    3  O           1     -22.372  -5.906  -2.405  0.00  0.00    -0.646 OA
HETATM    4  O           1     -20.916  -7.188  -1.444  0.00  0.00    -0.646 OA
ENDBRANCH   1   2
BRANCH   1   5
HETATM    5  N           1     -21.239  -8.942  -3.604  0.00  0.00    -0.344 N 
HETATM    6  H           1     -22.105  -9.440  -3.443  0.00  0.00     0.163 HD
HETATM    7  C           1     -20.054  -9.626  -3.646  0.00  0.00     0.249 C 
HETATM    8  O           1     -19.418  -9.793  -2.633  0.00  0.00    -0.271 OA
BRANCH   7   9
HETATM    9  C           1     -19.543 -10.172  -4.957  0.00  0.00     0.275 C 
BRANCH   9  10
HETATM   10  C           1     -18.434  -9.271  -5.484  0.00  0.00     0.053 C 
BRANCH  10  11
HETATM   11  C           1     -17.259 -10.126  -5.940  0.00  0.00     0.076 C 
BRANCH  11  12
HETATM   12  S           1     -16.699 -11.170  -4.565  0.00  0.00    -0.173 SA
HETATM   13  C           1     -16.002  -9.825  -3.565  0.00  0.00     0.089 C 
ENDBRANCH  11  12
ENDBRANCH  10  11
ENDBRANCH   9  10
BRANCH   9  14
HETATM   14  N           1     -20.665 -10.217  -5.950  0.00  0.00    -0.066 N 
HETATM   15  H           1     -20.451  -9.575  -6.747  0.00  0.00     0.275 HD
HETATM   16  H           1     -20.774 -11.193  -6.308  0.00  0.00     0.275 HD
HETATM   17  H           1     -21.553  -9.914  -5.489  0.00  0.00     0.275 HD
ENDBRANCH   9  14
ENDBRANCH   7   9
ENDBRANCH   1   5
BRANCH   1  18
HETATM   18  C           1     -22.339  -7.133  -4.791  0.00  0.00     0.074 C 
BRANCH  18  19
HETATM   19  C           1     -21.764  -6.242  -5.848  0.00  0.00    -0.056 A 
HETATM   20  C           1     -22.493  -5.144  -6.306  0.00  0.00     0.010 A 
HETATM   21  C           1     -21.957  -4.314  -7.291  0.00  0.00     0.038 A 
HETATM   22  C           1     -20.694  -4.582  -7.819  0.00  0.00     0.081 A 
HETATM   23  C           1     -19.966  -5.680  -7.360  0.00  0.00     0.038 A 
HETATM   24  C           1     -20.501  -6.510  -6.376  0.00  0.00     0.010 A 
BRANCH  22  25
HETATM   25  O           1     -20.174  -3.776  -8.775  0.00  0.00    -0.247 OA
BRANCH  25  26
HETATM   26  P           1     -20.537  -4.096 -10.316  0.00  0.00     0.411 P 
HETATM   27  O           1     -19.615  -5.130 -10.835  0.00  0.00    -0.624 OA
HETATM   28  O           1     -20.397  -2.862 -11.121  0.00  0.00    -0.624 OA
BRANCH  26  29
HETATM   29  O           1     -22.056  -4.633 -10.410  0.00  0.00    -0.300 OA
HETATM   30  H           1     -22.123  -5.294  -9.743  0.00  0.00     0.223 HD
ENDBRANCH  26  29
ENDBRANCH  25  26
ENDBRANCH  22  25
ENDBRANCH  18  19
ENDBRANCH   1  18
TORSDOF 12
ENDMDL
MODEL 8
REMARK VINA RESULT:      -6.3      2.743      4.093
REMARK  12 active torsions:
REMARK  status: ('A' for Active; 'I' for Inactive)
REMARK    1  A    between atoms: C_2  and  C_3 
REMARK    2  A    between atoms: C_2  and  S_11 
REMARK    3  A    between atoms: C_3  and  C_18 
REMARK    4  A    between atoms: C_5  and  C_26 
REMARK    5  A    between atoms: O_6  and  P_9 
REMARK    6  A    between atoms: P_9  and  O_22 
REMARK    7  A    between atoms: C_12  and  C_25 
REMARK    8  A    between atoms: C_18  and  C_27 
REMARK    9  A    between atoms: C_18  and  N_30 
REMARK   10  A    between atoms: O_22  and  C_29 
REMARK   11  A    between atoms: N_23  and  C_25 
REMARK       I    between atoms: N_23  and  C_27 
REMARK   12  A    between atoms: C_25  and  C_26 
ROOT
HETATM    1  C           1     -20.804  -7.493  -3.729  0.00  0.00     0.189 C 
ENDROOT
BRANCH   1   2
HETATM    2  C           1     -21.394  -6.883  -2.481  0.00  0.00     0.197 C 
HETATM    3  O           1     -22.089  -5.846  -2.559  0.00  0.00    -0.646 OA
HETATM    4  O           1     -21.189  -7.414  -1.368  0.00  0.00    -0.646 OA
ENDBRANCH   1   2
BRANCH   1   5
HETATM    5  N           1     -20.377  -8.850  -3.447  0.00  0.00    -0.344 N 
HETATM    6  H           1     -20.958  -9.457  -2.883  0.00  0.00     0.163 HD
HETATM    7  C           1     -19.188  -9.310  -3.946  0.00  0.00     0.249 C 
HETATM    8  O           1     -18.173  -9.180  -3.303  0.00  0.00    -0.271 OA
BRANCH   7   9
HETATM    9  C           1     -19.144  -9.979  -5.297  0.00  0.00     0.275 C 
BRANCH   9  10
HETATM   10  C           1     -18.622 -11.401  -5.144  0.00  0.00     0.053 C 
BRANCH  10  11
HETATM   11  C           1     -19.772 -12.386  -5.309  0.00  0.00     0.076 C 
BRANCH  11  12
HETATM   12  S           1     -21.205 -11.531  -6.021  0.00  0.00    -0.173 SA
HETATM   13  C           1     -22.338 -11.856  -4.640  0.00  0.00     0.089 C 
ENDBRANCH  11  12
ENDBRANCH  10  11
ENDBRANCH   9  10
BRANCH   9  14
HETATM   14  N           1     -18.235  -9.208  -6.207  0.00  0.00    -0.066 N 
HETATM   15  H           1     -18.609  -8.240  -6.334  0.00  0.00     0.275 HD
HETATM   16  H           1     -17.281  -9.159  -5.785  0.00  0.00     0.275 HD
HETATM   17  H           1     -18.183  -9.686  -7.135  0.00  0.00     0.275 HD
ENDBRANCH   9  14
ENDBRANCH   7   9
ENDBRANCH   1   5
BRANCH   1  18
HETATM   18  C           1     -21.853  -7.510  -4.831  0.00  0.00     0.074 C 
BRANCH  18  19
HETATM   19  C           1     -21.501  -6.493  -5.872  0.00  0.00    -0.056 A 
HETATM   20  C           1     -20.221  -6.478  -6.426  0.00  0.00     0.010 A 
HETATM   21  C           1     -19.893  -5.530  -7.396  0.00  0.00     0.038 A 
HETATM   22  C           1     -20.844  -4.598  -7.811  0.00  0.00     0.081 A 
HETATM   23  C           1     -22.124  -4.614  -7.257  0.00  0.00     0.038 A 
HETATM   24  C           1     -22.452  -5.561  -6.287  0.00  0.00     0.010 A 
BRANCH  22  25
HETATM   25  O           1     -20.525  -3.678  -8.753  0.00  0.00    -0.247 OA
BRANCH  25  26
HETATM   26  P           1     -20.688  -4.095 -10.305  0.00  0.00     0.411 P 
HETATM   27  O           1     -22.068  -4.570 -10.547  0.00  0.00    -0.624 OA
HETATM   28  O           1     -19.731  -5.176 -10.628  0.00  0.00    -0.624 OA
BRANCH  26  29
HETATM   29  O           1     -20.389  -2.813 -11.240  0.00  0.00    -0.300 OA
HETATM   30  H           1     -20.905  -2.951 -12.015  0.00  0.00     0.223 HD
ENDBRANCH  26  29
ENDBRANCH  25  26
ENDBRANCH  22  25
ENDBRANCH  18  19
ENDBRANCH   1  18
TORSDOF 12
ENDMDL
MODEL 9
REMARK VINA RESULT:      -6.2      3.289      4.943
REMARK  12 active torsions:
REMARK  status: ('A' for Active; 'I' for Inactive)
REMARK    1  A    between atoms: C_2  and  C_3 
REMARK    2  A    between atoms: C_2  and  S_11 
REMARK    3  A    between atoms: C_3  and  C_18 
REMARK    4  A    between atoms: C_5  and  C_26 
REMARK    5  A    between atoms: O_6  and  P_9 
REMARK    6  A    between atoms: P_9  and  O_22 
REMARK    7  A    between atoms: C_12  and  C_25 
REMARK    8  A    between atoms: C_18  and  C_27 
REMARK    9  A    between atoms: C_18  and  N_30 
REMARK   10  A    between atoms: O_22  and  C_29 
REMARK   11  A    between atoms: N_23  and  C_25 
REMARK       I    between atoms: N_23  and  C_27 
REMARK   12  A    between atoms: C_25  and  C_26 
ROOT
HETATM    1  C           1     -21.416  -7.430  -1.531  0.00  0.00     0.189 C 
ENDROOT
BRANCH   1   2
HETATM    2  C           1     -22.091  -7.692  -0.208  0.00  0.00     0.197 C 
HETATM    3  O           1     -21.436  -8.167   0.746  0.00  0.00    -0.646 OA
HETATM    4  O           1     -23.306  -7.437  -0.064  0.00  0.00    -0.646 OA
ENDBRANCH   1   2
BRANCH   1   5
HETATM    5  N           1     -21.265  -8.679  -2.252  0.00  0.00    -0.344 N 
HETATM    6  H           1     -22.053  -9.073  -2.751  0.00  0.00     0.163 HD
HETATM    7  C           1     -20.058  -9.324  -2.260  0.00  0.00     0.249 C 
HETATM    8  O           1     -19.804 -10.139  -1.404  0.00  0.00    -0.271 OA
BRANCH   7   9
HETATM    9  C           1     -19.045  -9.018  -3.335  0.00  0.00     0.275 C 
BRANCH   9  10
HETATM   10  C           1     -19.407  -9.777  -4.605  0.00  0.00     0.053 C 
BRANCH  10  11
HETATM   11  C           1     -18.231  -9.738  -5.573  0.00  0.00     0.076 C 
BRANCH  11  12
HETATM   12  S           1     -18.066 -11.349  -6.391  0.00  0.00    -0.173 SA
HETATM   13  C           1     -16.712 -11.963  -5.349  0.00  0.00     0.089 C 
ENDBRANCH  11  12
ENDBRANCH  10  11
ENDBRANCH   9  10
BRANCH   9  14
HETATM   14  N           1     -17.683  -9.440  -2.872  0.00  0.00    -0.066 N 
HETATM   15  H           1     -16.957  -8.858  -3.348  0.00  0.00     0.275 HD
HETATM   16  H           1     -17.611  -9.310  -1.838  0.00  0.00     0.275 HD
HETATM   17  H           1     -17.530 -10.447  -3.108  0.00  0.00     0.275 HD
ENDBRANCH   9  14
ENDBRANCH   7   9
ENDBRANCH   1   5
BRANCH   1  18
HETATM   18  C           1     -22.263  -6.468  -2.352  0.00  0.00     0.074 C 
BRANCH  18  19
HETATM   19  C           1     -21.694  -6.354  -3.732  0.00  0.00    -0.056 A 
HETATM   20  C           1     -22.164  -7.185  -4.750  0.00  0.00     0.010 A 
HETATM   21  C           1     -21.634  -7.079  -6.037  0.00  0.00     0.038 A 
HETATM   22  C           1     -20.634  -6.144  -6.305  0.00  0.00     0.081 A 
HETATM   23  C           1     -20.165  -5.314  -5.286  0.00  0.00     0.038 A 
HETATM   24  C           1     -20.694  -5.420  -4.001  0.00  0.00     0.010 A 
BRANCH  22  25
HETATM   25  O           1     -20.120  -6.041  -7.554  0.00  0.00    -0.247 OA
BRANCH  25  26
HETATM   26  P           1     -20.431  -4.697  -8.393  0.00  0.00     0.411 P 
HETATM   27  O           1     -20.320  -4.983  -9.841  0.00  0.00    -0.624 OA
HETATM   28  O           1     -19.457  -3.648  -8.022  0.00  0.00    -0.624 OA
BRANCH  26  29
HETATM   29  O           1     -21.926  -4.188  -8.059  0.00  0.00    -0.300 OA
HETATM   30  H           1     -22.359  -4.139  -8.894  0.00  0.00     0.223 HD
ENDBRANCH  26  29
ENDBRANCH  25  26
ENDBRANCH  22  25
ENDBRANCH  18  19
ENDBRANCH   1  18
TORSDOF 12
ENDMDL
