MODEL 1
REMARK VINA RESULT:      -7.2      0.000      0.000
REMARK  11 active torsions:
REMARK  status: ('A' for Active; 'I' for Inactive)
REMARK    1  A    between atoms: C_2  and  C_9 
REMARK    2  A    between atoms: C_5  and  C_9 
REMARK    3  A    between atoms: C_5  and  C_28 
REMARK    4  A    between atoms: O_6  and  C_12 
REMARK    5  A    between atoms: O_6  and  P_7 
REMARK    6  A    between atoms: P_7  and  O_19 
REMARK    7  A    between atoms: C_8  and  C_24 
REMARK    8  A    between atoms: C_8  and  C_11 
REMARK    9  A    between atoms: C_8  and  N_16 
REMARK   10  A    between atoms: C_9  and  N_14 
REMARK   11  A    between atoms: C_11  and  O_15 
REMARK       I    between atoms: N_14  and  C_24 
ROOT
HETATM    1  C           1     -21.625  -6.643  -5.736  0.00  0.00     0.189 C 
ENDROOT
BRANCH   1   2
HETATM    2  C           1     -20.851  -7.936  -5.659  0.00  0.00     0.197 C 
HETATM    3  O           1     -21.455  -9.030  -5.712  0.00  0.00    -0.646 OA
HETATM    4  O           1     -19.607  -7.915  -5.544  0.00  0.00    -0.646 OA
ENDBRANCH   1   2
BRANCH   1   5
HETATM    5  C           1     -20.681  -5.507  -6.106  0.00  0.00     0.074 C 
BRANCH   5   6
HETATM    6  C           1     -21.123  -4.890  -7.396  0.00  0.00    -0.056 A 
HETATM    7  C           1     -22.371  -4.273  -7.482  0.00  0.00     0.010 A 
HETATM    8  C           1     -22.783  -3.697  -8.684  0.00  0.00     0.038 A 
HETATM    9  C           1     -21.947  -3.738  -9.800  0.00  0.00     0.081 A 
HETATM   10  C           1     -20.699  -4.354  -9.713  0.00  0.00     0.038 A 
HETATM   11  C           1     -20.287  -4.929  -8.511  0.00  0.00     0.010 A 
BRANCH   9  12
HETATM   12  O           1     -22.347  -3.178 -10.966  0.00  0.00    -0.247 OA
BRANCH  12  13
HETATM   13  P           1     -23.592  -3.852 -11.743  0.00  0.00     0.411 P 
HETATM   14  O           1     -23.721  -5.268 -11.334  0.00  0.00    -0.624 OA
HETATM   15  O           1     -24.837  -3.126 -11.407  0.00  0.00    -0.624 OA
BRANCH  13  16
HETATM   16  O           1     -23.337  -3.773 -13.336  0.00  0.00    -0.300 OA
HETATM   17  H           1     -22.807  -3.004 -13.461  0.00  0.00     0.223 HD
ENDBRANCH  13  16
ENDBRANCH  12  13
ENDBRANCH   9  12
ENDBRANCH   5   6
ENDBRANCH   1   5
BRANCH   1  18
HETATM   18  N           1     -22.233  -6.366  -4.449  0.00  0.00    -0.344 N 
HETATM   19  C           1     -21.488  -6.462  -3.305  0.00  0.00     0.251 C 
HETATM   20  O           1     -20.891  -5.498  -2.890  0.00  0.00    -0.271 OA
HETATM   21  H           1     -23.208  -6.101  -4.397  0.00  0.00     0.163 HD
BRANCH  19  22
HETATM   22  C           1     -21.412  -7.773  -2.561  0.00  0.00     0.297 C 
BRANCH  22  23
HETATM   23  C           1     -22.066  -7.621  -1.194  0.00  0.00     0.206 C 
BRANCH  23  24
HETATM   24  O           1     -22.735  -6.391  -1.129  0.00  0.00    -0.398 OA
HETATM   25  H           1     -23.647  -6.566  -1.288  0.00  0.00     0.209 HD
ENDBRANCH  23  24
ENDBRANCH  22  23
BRANCH  22  26
HETATM   26  N           1     -19.974  -8.164  -2.386  0.00  0.00    -0.064 N 
HETATM   27  H           1     -19.863  -8.693  -1.491  0.00  0.00     0.275 HD
HETATM   28  H           1     -19.678  -8.768  -3.185  0.00  0.00     0.275 HD
HETATM   29  H           1     -19.380  -7.305  -2.358  0.00  0.00     0.275 HD
ENDBRANCH  22  26
ENDBRANCH  19  22
ENDBRANCH   1  18
TORSDOF 11
ENDMDL
MODEL 2
REMARK VINA RESULT:      -6.9      1.883      2.907
REMARK  11 active torsions:
REMARK  status: ('A' for Active; 'I' for Inactive)
REMARK    1  A    between atoms: C_2  and  C_9 
REMARK    2  A    between atoms: C_5  and  C_9 
REMARK    3  A    between atoms: C_5  and  C_28 
REMARK    4  A    between atoms: O_6  and  C_12 
REMARK    5  A    between atoms: O_6  and  P_7 
REMARK    6  A    between atoms: P_7  and  O_19 
REMARK    7  A    between atoms: C_8  and  C_24 
REMARK    8  A    between atoms: C_8  and  C_11 
REMARK    9  A    between atoms: C_8  and  N_16 
REMARK   10  A    between atoms: C_9  and  N_14 
REMARK   11  A    between atoms: C_11  and  O_15 
REMARK       I    between atoms: N_14  and  C_24 
ROOT
HETATM    1  C           1     -20.052  -5.879  -7.378  0.00  0.00     0.189 C 
ENDROOT
BRANCH   1   2
HETATM    2  C           1     -19.388  -4.658  -6.790  0.00  0.00     0.197 C 
HETATM    3  O           1     -18.380  -4.168  -7.344  0.00  0.00    -0.646 OA
HETATM    4  O           1     -19.846  -4.137  -5.751  0.00  0.00    -0.646 OA
ENDBRANCH   1   2
BRANCH   1   5
HETATM    5  C           1     -21.554  -5.644  -7.477  0.00  0.00     0.074 C 
BRANCH   5   6
HETATM    6  C           1     -21.855  -4.846  -8.706  0.00  0.00    -0.056 A 
HETATM    7  C           1     -23.051  -4.134  -8.799  0.00  0.00     0.010 A 
HETATM    8  C           1     -23.333  -3.389  -9.945  0.00  0.00     0.038 A 
HETATM    9  C           1     -22.417  -3.356 -10.997  0.00  0.00     0.081 A 
HETATM   10  C           1     -21.221  -4.067 -10.903  0.00  0.00     0.038 A 
HETATM   11  C           1     -20.940  -4.811  -9.758  0.00  0.00     0.010 A 
BRANCH   9  12
HETATM   12  O           1     -22.690  -2.632 -12.109  0.00  0.00    -0.247 OA
BRANCH  12  13
HETATM   13  P           1     -23.779  -3.218 -13.147  0.00  0.00     0.411 P 
HETATM   14  O           1     -25.109  -2.642 -12.845  0.00  0.00    -0.624 OA
HETATM   15  O           1     -23.389  -2.859 -14.529  0.00  0.00    -0.624 OA
BRANCH  13  16
HETATM   16  O           1     -23.844  -4.826 -13.007  0.00  0.00    -0.300 OA
HETATM   17  H           1     -24.354  -5.115 -13.745  0.00  0.00     0.223 HD
ENDBRANCH  13  16
ENDBRANCH  12  13
ENDBRANCH   9  12
ENDBRANCH   5   6
ENDBRANCH   1   5
BRANCH   1  18
HETATM   18  N           1     -19.798  -7.025  -6.527  0.00  0.00    -0.344 N 
HETATM   19  C           1     -20.772  -7.479  -5.681  0.00  0.00     0.251 C 
HETATM   20  O           1     -21.558  -8.316  -6.057  0.00  0.00    -0.271 OA
HETATM   21  H           1     -18.899  -7.489  -6.559  0.00  0.00     0.163 HD
BRANCH  19  22
HETATM   22  C           1     -20.867  -6.935  -4.276  0.00  0.00     0.297 C 
BRANCH  22  23
HETATM   23  C           1     -20.631  -8.060  -3.277  0.00  0.00     0.206 C 
BRANCH  23  24
HETATM   24  O           1     -19.798  -9.030  -3.852  0.00  0.00    -0.398 OA
HETATM   25  H           1     -18.995  -8.597  -4.088  0.00  0.00     0.209 HD
ENDBRANCH  23  24
ENDBRANCH  22  23
BRANCH  22  26
HETATM   26  N           1     -22.233  -6.352  -4.058  0.00  0.00    -0.064 N 
HETATM   27  H           1     -22.253  -5.844  -3.145  0.00  0.00     0.275 HD
HETATM   28  H           1     -22.454  -5.686  -4.831  0.00  0.00     0.275 HD
HETATM   29  H           1     -22.941  -7.120  -4.046  0.00  0.00     0.275 HD
ENDBRANCH  22  26
ENDBRANCH  19  22
ENDBRANCH   1  18
TORSDOF 11
ENDMDL
MODEL 3
REMARK VINA RESULT:      -6.8      1.463      2.088
REMARK  11 active torsions:
REMARK  status: ('A' for Active; 'I' for Inactive)
REMARK    1  A    between atoms: C_2  and  C_9 
REMARK    2  A    between atoms: C_5  and  C_9 
REMARK    3  A    between atoms: C_5  and  C_28 
REMARK    4  A    between atoms: O_6  and  C_12 
REMARK    5  A    between atoms: O_6  and  P_7 
REMARK    6  A    between atoms: P_7  and  O_19 
REMARK    7  A    between atoms: C_8  and  C_24 
REMARK    8  A    between atoms: C_8  and  C_11 
REMARK    9  A    between atoms: C_8  and  N_16 
REMARK   10  A    between atoms: C_9  and  N_14 
REMARK   11  A    between atoms: C_11  and  O_15 
REMARK       I    between atoms: N_14  and  C_24 
ROOT
HETATM    1  C           1     -20.610  -7.487  -5.740  0.00  0.00     0.189 C 
ENDROOT
BRANCH   1   2
HETATM    2  C           1     -19.352  -8.272  -5.462  0.00  0.00     0.197 C 
HETATM    3  O           1     -19.117  -8.687  -4.306  0.00  0.00    -0.646 OA
HETATM    4  O           1     -18.545  -8.509  -6.386  0.00  0.00    -0.646 OA
ENDBRANCH   1   2
BRANCH   1   5
HETATM    5  C           1     -20.310  -5.996  -5.646  0.00  0.00     0.074 C 
BRANCH   5   6
HETATM    6  C           1     -20.803  -5.309  -6.880  0.00  0.00    -0.056 A 
HETATM    7  C           1     -20.071  -5.392  -8.064  0.00  0.00     0.010 A 
HETATM    8  C           1     -20.530  -4.751  -9.215  0.00  0.00     0.038 A 
HETATM    9  C           1     -21.722  -4.026  -9.181  0.00  0.00     0.081 A 
HETATM   10  C           1     -22.454  -3.944  -7.997  0.00  0.00     0.038 A 
HETATM   11  C           1     -21.994  -4.585  -6.847  0.00  0.00     0.010 A 
BRANCH   9  12
HETATM   12  O           1     -22.168  -3.405 -10.299  0.00  0.00    -0.247 OA
BRANCH  12  13
HETATM   13  P           1     -23.568  -3.899 -10.935  0.00  0.00     0.411 P 
HETATM   14  O           1     -23.532  -3.723 -12.404  0.00  0.00    -0.624 OA
HETATM   15  O           1     -23.779  -5.329 -10.615  0.00  0.00    -0.624 OA
BRANCH  13  16
HETATM   16  O           1     -24.777  -3.025 -10.317  0.00  0.00    -0.300 OA
HETATM   17  H           1     -25.563  -3.427 -10.647  0.00  0.00     0.223 HD
ENDBRANCH  13  16
ENDBRANCH  12  13
ENDBRANCH   9  12
ENDBRANCH   5   6
ENDBRANCH   1   5
BRANCH   1  18
HETATM   18  N           1     -21.624  -7.838  -4.766  0.00  0.00    -0.344 N 
HETATM   19  C           1     -22.115  -6.885  -3.914  0.00  0.00     0.251 C 
HETATM   20  O           1     -23.078  -6.229  -4.231  0.00  0.00    -0.271 OA
HETATM   21  H           1     -21.970  -8.787  -4.715  0.00  0.00     0.163 HD
BRANCH  19  22
HETATM   22  C           1     -21.452  -6.654  -2.578  0.00  0.00     0.297 C 
BRANCH  22  23
HETATM   23  C           1     -21.450  -7.949  -1.779  0.00  0.00     0.206 C 
BRANCH  23  24
HETATM   24  O           1     -20.172  -8.525  -1.822  0.00  0.00    -0.398 OA
HETATM   25  H           1     -19.814  -8.334  -2.672  0.00  0.00     0.209 HD
ENDBRANCH  23  24
ENDBRANCH  22  23
BRANCH  22  26
HETATM   26  N           1     -22.209  -5.602  -1.822  0.00  0.00    -0.064 N 
HETATM   27  H           1     -22.060  -5.734  -0.796  0.00  0.00     0.275 HD
HETATM   28  H           1     -21.867  -4.656  -2.103  0.00  0.00     0.275 HD
HETATM   29  H           1     -23.228  -5.683  -2.038  0.00  0.00     0.275 HD
ENDBRANCH  22  26
ENDBRANCH  19  22
ENDBRANCH   1  18
TORSDOF 11
ENDMDL
MODEL 4
REMARK VINA RESULT:      -6.3      3.650      7.936
REMARK  11 active torsions:
REMARK  status: ('A' for Active; 'I' for Inactive)
REMARK    1  A    between atoms: C_2  and  C_9 
REMARK    2  A    between atoms: C_5  and  C_9 
REMARK    3  A    between atoms: C_5  and  C_28 
REMARK    4  A    between atoms: O_6  and  C_12 
REMARK    5  A    between atoms: O_6  and  P_7 
REMARK    6  A    between atoms: P_7  and  O_19 
REMARK    7  A    between atoms: C_8  and  C_24 
REMARK    8  A    between atoms: C_8  and  C_11 
REMARK    9  A    between atoms: C_8  and  N_16 
REMARK   10  A    between atoms: C_9  and  N_14 
REMARK   11  A    between atoms: C_11  and  O_15 
REMARK       I    between atoms: N_14  and  C_24 
ROOT
HETATM    1  C           1     -20.729  -4.864  -6.597  0.00  0.00     0.189 C 
ENDROOT
BRANCH   1   2
HETATM    2  C           1     -19.810  -4.841  -7.794  0.00  0.00     0.197 C 
HETATM    3  O           1     -19.025  -3.883  -7.961  0.00  0.00    -0.646 OA
HETATM    4  O           1     -19.833  -5.781  -8.617  0.00  0.00    -0.646 OA
ENDBRANCH   1   2
BRANCH   1   5
HETATM    5  C           1     -21.380  -6.236  -6.481  0.00  0.00     0.074 C 
BRANCH   5   6
HETATM    6  C           1     -21.198  -6.760  -5.092  0.00  0.00    -0.056 A 
HETATM    7  C           1     -20.933  -8.114  -4.886  0.00  0.00     0.010 A 
HETATM    8  C           1     -20.763  -8.603  -3.590  0.00  0.00     0.038 A 
HETATM    9  C           1     -20.858  -7.737  -2.500  0.00  0.00     0.081 A 
HETATM   10  C           1     -21.122  -6.383  -2.706  0.00  0.00     0.038 A 
HETATM   11  C           1     -21.292  -5.895  -4.002  0.00  0.00     0.010 A 
BRANCH   9  12
HETATM   12  O           1     -20.693  -8.211  -1.242  0.00  0.00    -0.247 OA
BRANCH  12  13
HETATM   13  P           1     -22.009  -8.424  -0.332  0.00  0.00     0.411 P 
HETATM   14  O           1     -22.753  -9.611  -0.810  0.00  0.00    -0.624 OA
HETATM   15  O           1     -21.609  -8.628   1.078  0.00  0.00    -0.624 OA
BRANCH  13  16
HETATM   16  O           1     -22.954  -7.118  -0.440  0.00  0.00    -0.300 OA
HETATM   17  H           1     -23.816  -7.454  -0.616  0.00  0.00     0.223 HD
ENDBRANCH  13  16
ENDBRANCH  12  13
ENDBRANCH   9  12
ENDBRANCH   5   6
ENDBRANCH   1   5
BRANCH   1  18
HETATM   18  N           1     -21.757  -3.854  -6.758  0.00  0.00    -0.344 N 
HETATM   19  C           1     -22.883  -4.133  -7.484  0.00  0.00     0.251 C 
HETATM   20  O           1     -23.854  -4.600  -6.939  0.00  0.00    -0.271 OA
HETATM   21  H           1     -21.642  -2.943  -6.333  0.00  0.00     0.163 HD
BRANCH  19  22
HETATM   22  C           1     -22.913  -3.856  -8.968  0.00  0.00     0.297 C 
BRANCH  22  23
HETATM   23  C           1     -24.299  -3.371  -9.368  0.00  0.00     0.206 C 
BRANCH  23  24
HETATM   24  O           1     -25.129  -4.475  -9.614  0.00  0.00    -0.398 OA
HETATM   25  H           1     -26.009  -4.146  -9.684  0.00  0.00     0.209 HD
ENDBRANCH  23  24
ENDBRANCH  22  23
BRANCH  22  26
HETATM   26  N           1     -22.589  -5.116  -9.716  0.00  0.00    -0.064 N 
HETATM   27  H           1     -22.611  -4.927 -10.744  0.00  0.00     0.275 HD
HETATM   28  H           1     -21.637  -5.448  -9.444  0.00  0.00     0.275 HD
HETATM   29  H           1     -23.295  -5.851  -9.482  0.00  0.00     0.275 HD
ENDBRANCH  22  26
ENDBRANCH  19  22
ENDBRANCH   1  18
TORSDOF 11
ENDMDL
MODEL 5
REMARK VINA RESULT:      -6.2      2.204      3.448
REMARK  11 active torsions:
REMARK  status: ('A' for Active; 'I' for Inactive)
REMARK    1  A    between atoms: C_2  and  C_9 
REMARK    2  A    between atoms: C_5  and  C_9 
REMARK    3  A    between atoms: C_5  and  C_28 
REMARK    4  A    between atoms: O_6  and  C_12 
REMARK    5  A    between atoms: O_6  and  P_7 
REMARK    6  A    between atoms: P_7  and  O_19 
REMARK    7  A    between atoms: C_8  and  C_24 
REMARK    8  A    between atoms: C_8  and  C_11 
REMARK    9  A    between atoms: C_8  and  N_16 
REMARK   10  A    between atoms: C_9  and  N_14 
REMARK   11  A    between atoms: C_11  and  O_15 
REMARK       I    between atoms: N_14  and  C_24 
ROOT
HETATM    1  C           1     -20.909  -7.134  -3.787  0.00  0.00     0.189 C 
ENDROOT
BRANCH   1   2
HETATM    2  C           1     -21.593  -6.809  -2.483  0.00  0.00     0.197 C 
HETATM    3  O           1     -21.284  -7.431  -1.443  0.00  0.00    -0.646 OA
HETATM    4  O           1     -22.468  -5.918  -2.440  0.00  0.00    -0.646 OA
ENDBRANCH   1   2
BRANCH   1   5
HETATM    5  C           1     -21.942  -7.178  -4.906  0.00  0.00     0.074 C 
BRANCH   5   6
HETATM    6  C           1     -21.549  -6.221  -5.987  0.00  0.00    -0.056 A 
HETATM    7  C           1     -20.280  -6.299  -6.561  0.00  0.00     0.010 A 
HETATM    8  C           1     -19.914  -5.407  -7.569  0.00  0.00     0.038 A 
HETATM    9  C           1     -20.817  -4.436  -8.003  0.00  0.00     0.081 A 
HETATM   10  C           1     -22.086  -4.358  -7.429  0.00  0.00     0.038 A 
HETATM   11  C           1     -22.452  -5.251  -6.422  0.00  0.00     0.010 A 
BRANCH   9  12
HETATM   12  O           1     -20.461  -3.570  -8.982  0.00  0.00    -0.247 OA
BRANCH  12  13
HETATM   13  P           1     -20.669  -4.032 -10.515  0.00  0.00     0.411 P 
HETATM   14  O           1     -19.656  -5.053 -10.864  0.00  0.00    -0.624 OA
HETATM   15  O           1     -22.023  -4.605 -10.681  0.00  0.00    -0.624 OA
BRANCH  13  16
HETATM   16  O           1     -20.502  -2.754 -11.488  0.00  0.00    -0.300 OA
HETATM   17  H           1     -20.048  -2.110 -10.971  0.00  0.00     0.223 HD
ENDBRANCH  13  16
ENDBRANCH  12  13
ENDBRANCH   9  12
ENDBRANCH   5   6
ENDBRANCH   1   5
BRANCH   1  18
HETATM   18  N           1     -20.256  -8.424  -3.682  0.00  0.00    -0.344 N 
HETATM   19  C           1     -20.723  -9.489  -4.403  0.00  0.00     0.251 C 
HETATM   20  O           1     -20.295  -9.703  -5.513  0.00  0.00    -0.271 OA
HETATM   21  H           1     -19.454  -8.537  -3.075  0.00  0.00     0.163 HD
BRANCH  19  22
HETATM   22  C           1     -21.774 -10.398  -3.814  0.00  0.00     0.297 C 
BRANCH  22  23
HETATM   23  C           1     -21.258 -10.996  -2.512  0.00  0.00     0.206 C 
BRANCH  23  24
HETATM   24  O           1     -21.604 -10.159  -1.442  0.00  0.00    -0.398 OA
HETATM   25  H           1     -21.314  -9.292  -1.667  0.00  0.00     0.209 HD
ENDBRANCH  23  24
ENDBRANCH  22  23
BRANCH  22  26
HETATM   26  N           1     -22.080 -11.502  -4.783  0.00  0.00    -0.064 N 
HETATM   27  H           1     -21.718 -12.407  -4.406  0.00  0.00     0.275 HD
HETATM   28  H           1     -23.113 -11.569  -4.919  0.00  0.00     0.275 HD
HETATM   29  H           1     -21.620 -11.298  -5.699  0.00  0.00     0.275 HD
ENDBRANCH  22  26
ENDBRANCH  19  22
ENDBRANCH   1  18
TORSDOF 11
ENDMDL
MODEL 6
REMARK VINA RESULT:      -6.1      2.264      3.849
REMARK  11 active torsions:
REMARK  status: ('A' for Active; 'I' for Inactive)
REMARK    1  A    between atoms: C_2  and  C_9 
REMARK    2  A    between atoms: C_5  and  C_9 
REMARK    3  A    between atoms: C_5  and  C_28 
REMARK    4  A    between atoms: O_6  and  C_12 
REMARK    5  A    between atoms: O_6  and  P_7 
REMARK    6  A    between atoms: P_7  and  O_19 
REMARK    7  A    between atoms: C_8  and  C_24 
REMARK    8  A    between atoms: C_8  and  C_11 
REMARK    9  A    between atoms: C_8  and  N_16 
REMARK   10  A    between atoms: C_9  and  N_14 
REMARK   11  A    between atoms: C_11  and  O_15 
REMARK       I    between atoms: N_14  and  C_24 
ROOT
HETATM    1  C           1     -20.958  -7.409  -3.672  0.00  0.00     0.189 C 
ENDROOT
BRANCH   1   2
HETATM    2  C           1     -21.559  -6.909  -2.382  0.00  0.00     0.197 C 
HETATM    3  O           1     -21.279  -7.472  -1.302  0.00  0.00    -0.646 OA
HETATM    4  O           1     -22.337  -5.931  -2.393  0.00  0.00    -0.646 OA
ENDBRANCH   1   2
BRANCH   1   5
HETATM    5  C           1     -22.007  -7.363  -4.775  0.00  0.00     0.074 C 
BRANCH   5   6
HETATM    6  C           1     -21.582  -6.390  -5.829  0.00  0.00    -0.056 A 
HETATM    7  C           1     -22.458  -5.389  -6.248  0.00  0.00     0.010 A 
HETATM    8  C           1     -22.062  -4.481  -7.231  0.00  0.00     0.038 A 
HETATM    9  C           1     -20.789  -4.576  -7.795  0.00  0.00     0.081 A 
HETATM   10  C           1     -19.913  -5.577  -7.375  0.00  0.00     0.038 A 
HETATM   11  C           1     -20.309  -6.483  -6.392  0.00  0.00     0.010 A 
BRANCH   9  12
HETATM   12  O           1     -20.404  -3.694  -8.748  0.00  0.00    -0.247 OA
BRANCH  12  13
HETATM   13  P           1     -20.678  -4.080 -10.293  0.00  0.00     0.411 P 
HETATM   14  O           1     -22.036  -4.652 -10.425  0.00  0.00    -0.624 OA
HETATM   15  O           1     -20.571  -2.866 -11.132  0.00  0.00    -0.624 OA
BRANCH  13  16
HETATM   16  O           1     -19.586  -5.167 -10.777  0.00  0.00    -0.300 OA
HETATM   17  H           1     -18.751  -4.790 -10.554  0.00  0.00     0.223 HD
ENDBRANCH  13  16
ENDBRANCH  12  13
ENDBRANCH   9  12
ENDBRANCH   5   6
ENDBRANCH   1   5
BRANCH   1  18
HETATM   18  N           1     -20.503  -8.775  -3.496  0.00  0.00    -0.344 N 
HETATM   19  C           1     -19.180  -9.083  -3.660  0.00  0.00     0.251 C 
HETATM   20  O           1     -18.426  -9.031  -2.717  0.00  0.00    -0.271 OA
HETATM   21  H           1     -21.165  -9.500  -3.251  0.00  0.00     0.163 HD
BRANCH  19  22
HETATM   22  C           1     -18.662  -9.488  -5.018  0.00  0.00     0.297 C 
BRANCH  22  23
HETATM   23  C           1     -19.487 -10.650  -5.553  0.00  0.00     0.206 C 
BRANCH  23  24
HETATM   24  O           1     -18.975 -11.056  -6.794  0.00  0.00    -0.398 OA
HETATM   25  H           1     -18.996 -11.998  -6.803  0.00  0.00     0.209 HD
ENDBRANCH  23  24
ENDBRANCH  22  23
BRANCH  22  26
HETATM   26  N           1     -17.226  -9.909  -4.899  0.00  0.00    -0.064 N 
HETATM   27  H           1     -17.040 -10.703  -5.552  0.00  0.00     0.275 HD
HETATM   28  H           1     -16.607  -9.105  -5.145  0.00  0.00     0.275 HD
HETATM   29  H           1     -17.032 -10.211  -3.918  0.00  0.00     0.275 HD
ENDBRANCH  22  26
ENDBRANCH  19  22
ENDBRANCH   1  18
TORSDOF 11
ENDMDL
MODEL 7
REMARK VINA RESULT:      -6.1      3.608      8.181
REMARK  11 active torsions:
REMARK  status: ('A' for Active; 'I' for Inactive)
REMARK    1  A    between atoms: C_2  and  C_9 
REMARK    2  A    between atoms: C_5  and  C_9 
REMARK    3  A    between atoms: C_5  and  C_28 
REMARK    4  A    between atoms: O_6  and  C_12 
REMARK    5  A    between atoms: O_6  and  P_7 
REMARK    6  A    between atoms: P_7  and  O_19 
REMARK    7  A    between atoms: C_8  and  C_24 
REMARK    8  A    between atoms: C_8  and  C_11 
REMARK    9  A    between atoms: C_8  and  N_16 
REMARK   10  A    between atoms: C_9  and  N_14 
REMARK   11  A    between atoms: C_11  and  O_15 
REMARK       I    between atoms: N_14  and  C_24 
ROOT
HETATM    1  C           1     -21.337  -5.202  -7.505  0.00  0.00     0.189 C 
ENDROOT
BRANCH   1   2
HETATM    2  C           1     -20.692  -3.839  -7.448  0.00  0.00     0.197 C 
HETATM    3  O           1     -19.495  -3.700  -7.782  0.00  0.00    -0.646 OA
HETATM    4  O           1     -21.354  -2.850  -7.068  0.00  0.00    -0.646 OA
ENDBRANCH   1   2
BRANCH   1   5
HETATM    5  C           1     -20.372  -6.245  -6.953  0.00  0.00     0.074 C 
BRANCH   5   6
HETATM    6  C           1     -20.820  -6.668  -5.590  0.00  0.00    -0.056 A 
HETATM    7  C           1     -20.882  -5.735  -4.555  0.00  0.00     0.010 A 
HETATM    8  C           1     -21.300  -6.129  -3.283  0.00  0.00     0.038 A 
HETATM    9  C           1     -21.656  -7.457  -3.047  0.00  0.00     0.081 A 
HETATM   10  C           1     -21.595  -8.390  -4.082  0.00  0.00     0.038 A 
HETATM   11  C           1     -21.177  -7.995  -5.353  0.00  0.00     0.010 A 
BRANCH   9  12
HETATM   12  O           1     -22.062  -7.839  -1.813  0.00  0.00    -0.247 OA
BRANCH  12  13
HETATM   13  P           1     -21.204  -8.975  -1.050  0.00  0.00     0.411 P 
HETATM   14  O           1     -21.831 -10.298  -1.269  0.00  0.00    -0.624 OA
HETATM   15  O           1     -19.822  -8.991  -1.580  0.00  0.00    -0.624 OA
BRANCH  13  16
HETATM   16  O           1     -21.170  -8.650   0.532  0.00  0.00    -0.300 OA
HETATM   17  H           1     -22.072  -8.670   0.804  0.00  0.00     0.223 HD
ENDBRANCH  13  16
ENDBRANCH  12  13
ENDBRANCH   9  12
ENDBRANCH   5   6
ENDBRANCH   1   5
BRANCH   1  18
HETATM   18  N           1     -21.662  -5.526  -8.880  0.00  0.00    -0.344 N 
HETATM   19  C           1     -22.216  -4.576  -9.694  0.00  0.00     0.251 C 
HETATM   20  O           1     -21.505  -3.854 -10.352  0.00  0.00    -0.271 OA
HETATM   21  H           1     -21.480  -6.455  -9.237  0.00  0.00     0.163 HD
BRANCH  19  22
HETATM   22  C           1     -23.716  -4.429  -9.772  0.00  0.00     0.297 C 
BRANCH  22  23
HETATM   23  C           1     -24.094  -3.753 -11.083  0.00  0.00     0.206 C 
BRANCH  23  24
HETATM   24  O           1     -25.334  -3.113 -10.939  0.00  0.00    -0.398 OA
HETATM   25  H           1     -25.505  -3.052 -10.015  0.00  0.00     0.209 HD
ENDBRANCH  23  24
ENDBRANCH  22  23
BRANCH  22  26
HETATM   26  N           1     -24.196  -3.592  -8.622  0.00  0.00    -0.064 N 
HETATM   27  H           1     -23.470  -3.583  -7.871  0.00  0.00     0.275 HD
HETATM   28  H           1     -24.367  -2.616  -8.951  0.00  0.00     0.275 HD
HETATM   29  H           1     -25.083  -3.994  -8.245  0.00  0.00     0.275 HD
ENDBRANCH  22  26
ENDBRANCH  19  22
ENDBRANCH   1  18
TORSDOF 11
ENDMDL
MODEL 8
REMARK VINA RESULT:      -6.0      2.801      4.614
REMARK  11 active torsions:
REMARK  status: ('A' for Active; 'I' for Inactive)
REMARK    1  A    between atoms: C_2  and  C_9 
REMARK    2  A    between atoms: C_5  and  C_9 
REMARK    3  A    between atoms: C_5  and  C_28 
REMARK    4  A    between atoms: O_6  and  C_12 
REMARK    5  A    between atoms: O_6  and  P_7 
REMARK    6  A    between atoms: P_7  and  O_19 
REMARK    7  A    between atoms: C_8  and  C_24 
REMARK    8  A    between atoms: C_8  and  C_11 
REMARK    9  A    between atoms: C_8  and  N_16 
REMARK   10  A    between atoms: C_9  and  N_14 
REMARK   11  A    between atoms: C_11  and  O_15 
REMARK       I    between atoms: N_14  and  C_24 
ROOT
HETATM    1  C           1     -21.376  -7.414  -1.561  0.00  0.00     0.189 C 
ENDROOT
BRANCH   1   2
HETATM    2  C           1     -21.983  -7.736  -0.217  0.00  0.00     0.197 C 
HETATM    3  O           1     -23.169  -7.423   0.024  0.00  0.00    -0.646 OA
HETATM    4  O           1     -21.300  -8.315   0.654  0.00  0.00    -0.646 OA
ENDBRANCH   1   2
BRANCH   1   5
HETATM    5  C           1     -22.202  -6.333  -2.246  0.00  0.00     0.074 C 
BRANCH   5   6
HETATM    6  C           1     -21.770  -6.203  -3.673  0.00  0.00    -0.056 A 
HETATM    7  C           1     -22.508  -6.819  -4.684  0.00  0.00     0.010 A 
HETATM    8  C           1     -22.106  -6.698  -6.014  0.00  0.00     0.038 A 
HETATM    9  C           1     -20.966  -5.961  -6.334  0.00  0.00     0.081 A 
HETATM   10  C           1     -20.229  -5.344  -5.323  0.00  0.00     0.038 A 
HETATM   11  C           1     -20.631  -5.465  -3.993  0.00  0.00     0.010 A 
BRANCH   9  12
HETATM   12  O           1     -20.576  -5.843  -7.625  0.00  0.00    -0.247 OA
BRANCH  12  13
HETATM   13  P           1     -20.798  -4.421  -8.358  0.00  0.00     0.411 P 
HETATM   14  O           1     -19.544  -3.636  -8.303  0.00  0.00    -0.624 OA
HETATM   15  O           1     -21.177  -4.645  -9.771  0.00  0.00    -0.624 OA
BRANCH  13  16
HETATM   16  O           1     -21.975  -3.608  -7.607  0.00  0.00    -0.300 OA
HETATM   17  H           1     -21.807  -2.701  -7.801  0.00  0.00     0.223 HD
ENDBRANCH  13  16
ENDBRANCH  12  13
ENDBRANCH   9  12
ENDBRANCH   5   6
ENDBRANCH   1   5
BRANCH   1  18
HETATM   18  N           1     -21.366  -8.607  -2.385  0.00  0.00    -0.344 N 
HETATM   19  C           1     -20.200  -9.295  -2.580  0.00  0.00     0.251 C 
HETATM   20  O           1     -19.887 -10.183  -1.822  0.00  0.00    -0.271 OA
HETATM   21  H           1     -22.223  -8.932  -2.816  0.00  0.00     0.163 HD
BRANCH  19  22
HETATM   22  C           1     -19.302  -8.945  -3.741  0.00  0.00     0.297 C 
BRANCH  22  23
HETATM   23  C           1     -19.860  -9.556  -5.019  0.00  0.00     0.206 C 
BRANCH  23  24
HETATM   24  O           1     -20.992 -10.326  -4.715  0.00  0.00    -0.398 OA
HETATM   25  H           1     -20.949 -10.525  -3.795  0.00  0.00     0.209 HD
ENDBRANCH  23  24
ENDBRANCH  22  23
BRANCH  22  26
HETATM   26  N           1     -17.925  -9.488  -3.489  0.00  0.00    -0.064 N 
HETATM   27  H           1     -17.632  -9.256  -2.513  0.00  0.00     0.275 HD
HETATM   28  H           1     -17.933 -10.525  -3.612  0.00  0.00     0.275 HD
HETATM   29  H           1     -17.253  -9.061  -4.165  0.00  0.00     0.275 HD
ENDBRANCH  22  26
ENDBRANCH  19  22
ENDBRANCH   1  18
TORSDOF 11
ENDMDL
MODEL 9
REMARK VINA RESULT:      -6.0      3.846      5.889
REMARK  11 active torsions:
REMARK  status: ('A' for Active; 'I' for Inactive)
REMARK    1  A    between atoms: C_2  and  C_9 
REMARK    2  A    between atoms: C_5  and  C_9 
REMARK    3  A    between atoms: C_5  and  C_28 
REMARK    4  A    between atoms: O_6  and  C_12 
REMARK    5  A    between atoms: O_6  and  P_7 
REMARK    6  A    between atoms: P_7  and  O_19 
REMARK    7  A    between atoms: C_8  and  C_24 
REMARK    8  A    between atoms: C_8  and  C_11 
REMARK    9  A    between atoms: C_8  and  N_16 
REMARK   10  A    between atoms: C_9  and  N_14 
REMARK   11  A    between atoms: C_11  and  O_15 
REMARK       I    between atoms: N_14  and  C_24 
ROOT
HETATM    1  C           1     -21.191  -9.333  -0.708  0.00  0.00     0.189 C 
ENDROOT
BRANCH   1   2
HETATM    2  C           1     -21.000  -9.592   0.766  0.00  0.00     0.197 C 
HETATM    3  O           1     -21.316  -8.716   1.601  0.00  0.00    -0.646 OA
HETATM    4  O           1     -20.525 -10.681   1.153  0.00  0.00    -0.646 OA
ENDBRANCH   1   2
BRANCH   1   5
HETATM    5  C           1     -20.858  -7.879  -1.016  0.00  0.00     0.074 C 
BRANCH   5   6
HETATM    6  C           1     -20.938  -7.651  -2.493  0.00  0.00    -0.056 A 
HETATM    7  C           1     -21.848  -6.729  -3.009  0.00  0.00     0.010 A 
HETATM    8  C           1     -21.923  -6.516  -4.385  0.00  0.00     0.038 A 
HETATM    9  C           1     -21.085  -7.225  -5.247  0.00  0.00     0.081 A 
HETATM   10  C           1     -20.174  -8.147  -4.731  0.00  0.00     0.038 A 
HETATM   11  C           1     -20.100  -8.359  -3.355  0.00  0.00     0.010 A 
BRANCH   9  12
HETATM   12  O           1     -21.157  -7.018  -6.583  0.00  0.00    -0.247 OA
BRANCH  12  13
HETATM   13  P           1     -20.724  -5.569  -7.150  0.00  0.00     0.411 P 
HETATM   14  O           1     -20.041  -5.733  -8.453  0.00  0.00    -0.624 OA
HETATM   15  O           1     -21.929  -4.727  -7.328  0.00  0.00    -0.624 OA
BRANCH  13  16
HETATM   16  O           1     -19.722  -4.859  -6.102  0.00  0.00    -0.300 OA
HETATM   17  H           1     -20.160  -4.066  -5.844  0.00  0.00     0.223 HD
ENDBRANCH  13  16
ENDBRANCH  12  13
ENDBRANCH   9  12
ENDBRANCH   5   6
ENDBRANCH   1   5
BRANCH   1  18
HETATM   18  N           1     -22.570  -9.599  -1.070  0.00  0.00    -0.344 N 
HETATM   19  C           1     -23.049 -10.880  -1.045  0.00  0.00     0.251 C 
HETATM   20  O           1     -23.548 -11.320  -0.036  0.00  0.00    -0.271 OA
HETATM   21  H           1     -23.178  -8.837  -1.341  0.00  0.00     0.163 HD
BRANCH  19  22
HETATM   22  C           1     -22.956 -11.746  -2.278  0.00  0.00     0.297 C 
BRANCH  22  23
HETATM   23  C           1     -21.772 -12.693  -2.147  0.00  0.00     0.206 C 
BRANCH  23  24
HETATM   24  O           1     -21.351 -12.736  -0.810  0.00  0.00    -0.398 OA
HETATM   25  H           1     -21.793 -13.463  -0.406  0.00  0.00     0.209 HD
ENDBRANCH  23  24
ENDBRANCH  22  23
BRANCH  22  26
HETATM   26  N           1     -22.767 -10.875  -3.486  0.00  0.00    -0.064 N 
HETATM   27  H           1     -22.243 -11.404  -4.219  0.00  0.00     0.275 HD
HETATM   28  H           1     -23.700 -10.592  -3.860  0.00  0.00     0.275 HD
HETATM   29  H           1     -22.225 -10.022  -3.218  0.00  0.00     0.275 HD
ENDBRANCH  22  26
ENDBRANCH  19  22
ENDBRANCH   1  18
TORSDOF 11
ENDMDL
