MODEL 1
REMARK VINA RESULT:      -8.1      0.000      0.000
REMARK  11 active torsions:
REMARK  status: ('A' for Active; 'I' for Inactive)
REMARK       I    between atoms: C_6  and  N_7 
REMARK    1  A    between atoms: C_6  and  C_28 
REMARK    2  A    between atoms: N_7  and  C_8 
REMARK    3  A    between atoms: C_8  and  C_15 
REMARK    4  A    between atoms: C_8  and  C_9 
REMARK    5  A    between atoms: C_12  and  C_28 
REMARK    6  A    between atoms: C_12  and  C_16 
REMARK    7  A    between atoms: N_14  and  C_22 
REMARK    8  A    between atoms: C_15  and  C_21 
REMARK    9  A    between atoms: C_20  and  C_22 
REMARK   10  A    between atoms: C_20  and  C_21 
REMARK   11  A    between atoms: N_27  and  C_28 
ROOT
HETATM    1  C           1     -21.605  -4.443  -7.503  0.00  0.00     0.249 C 
HETATM    2  N           1     -22.169  -4.876  -8.673  0.00  0.00    -0.345 N 
HETATM    3  H           1     -22.231  -5.866  -8.870  0.00  0.00     0.163 HD
HETATM    4  O           1     -21.531  -3.260  -7.270  0.00  0.00    -0.271 OA
ENDROOT
BRANCH   1   5
HETATM    5  C           1     -21.073  -5.444  -6.507  0.00  0.00     0.278 C 
BRANCH   5   6
HETATM    6  C           1     -22.213  -5.941  -5.628  0.00  0.00     0.083 C 
BRANCH   6   7
HETATM    7  C           1     -21.730  -7.071  -4.775  0.00  0.00    -0.028 A 
HETATM    8  C           1     -21.783  -7.132  -3.354  0.00  0.00    -0.002 A 
HETATM    9  C           1     -22.250  -6.260  -2.353  0.00  0.00     0.014 A 
HETATM   10  C           1     -21.229  -8.355  -2.975  0.00  0.00     0.042 A 
HETATM   11  C           1     -22.149  -6.641  -1.010  0.00  0.00     0.001 A 
HETATM   12  C           1     -21.590  -7.869  -0.660  0.00  0.00     0.002 A 
HETATM   13  C           1     -21.119  -8.752  -1.636  0.00  0.00     0.030 A 
HETATM   14  N           1     -20.857  -9.006  -4.129  0.00  0.00    -0.365 N 
HETATM   15  H           1     -20.408  -9.955  -4.166  0.00  0.00     0.165 HD
HETATM   16  C           1     -21.155  -8.239  -5.223  0.00  0.00     0.096 A 
ENDBRANCH   6   7
ENDBRANCH   5   6
BRANCH   5  17
HETATM   17  N           1     -20.030  -4.790  -5.650  0.00  0.00    -0.066 N 
HETATM   18  H           1     -19.569  -5.511  -5.051  0.00  0.00     0.275 HD
HETATM   19  H           1     -20.482  -4.070  -5.041  0.00  0.00     0.275 HD
HETATM   20  H           1     -19.316  -4.333  -6.259  0.00  0.00     0.275 HD
ENDBRANCH   5  17
ENDBRANCH   1   5
BRANCH   2  21
HETATM   21  C           1     -22.680  -3.914  -9.631  0.00  0.00     0.185 C 
BRANCH  21  22
HETATM   22  C           1     -22.166  -4.260 -11.023  0.00  0.00     0.036 C 
BRANCH  22  23
HETATM   23  C           1     -21.573  -3.015 -11.669  0.00  0.00     0.004 C 
BRANCH  23  24
HETATM   24  C           1     -22.675  -2.237 -12.377  0.00  0.00     0.027 C 
BRANCH  24  25
HETATM   25  C           1     -23.311  -3.116 -13.446  0.00  0.00     0.229 C 
BRANCH  25  26
HETATM   26  N           1     -22.511  -3.025 -14.711  0.00  0.00    -0.079 N 
HETATM   27  H           1     -22.083  -2.074 -14.787  0.00  0.00     0.274 HD
HETATM   28  H           1     -21.754  -3.746 -14.696  0.00  0.00     0.274 HD
HETATM   29  H           1     -23.137  -3.192 -15.532  0.00  0.00     0.274 HD
ENDBRANCH  25  26
ENDBRANCH  24  25
ENDBRANCH  23  24
ENDBRANCH  22  23
ENDBRANCH  21  22
BRANCH  21  30
HETATM   30  C           1     -24.188  -3.955  -9.627  0.00  0.00     0.196 C 
HETATM   31  O           1     -24.842  -2.901  -9.468  0.00  0.00    -0.646 OA
HETATM   32  O           1     -24.784  -5.042  -9.784  0.00  0.00    -0.646 OA
ENDBRANCH  21  30
ENDBRANCH   2  21
TORSDOF 11
ENDMDL
MODEL 2
REMARK VINA RESULT:      -8.0      2.866      8.503
REMARK  11 active torsions:
REMARK  status: ('A' for Active; 'I' for Inactive)
REMARK       I    between atoms: C_6  and  N_7 
REMARK    1  A    between atoms: C_6  and  C_28 
REMARK    2  A    between atoms: N_7  and  C_8 
REMARK    3  A    between atoms: C_8  and  C_15 
REMARK    4  A    between atoms: C_8  and  C_9 
REMARK    5  A    between atoms: C_12  and  C_28 
REMARK    6  A    between atoms: C_12  and  C_16 
REMARK    7  A    between atoms: N_14  and  C_22 
REMARK    8  A    between atoms: C_15  and  C_21 
REMARK    9  A    between atoms: C_20  and  C_22 
REMARK   10  A    between atoms: C_20  and  C_21 
REMARK   11  A    between atoms: N_27  and  C_28 
ROOT
HETATM    1  C           1     -20.251  -6.843  -5.818  0.00  0.00     0.249 C 
HETATM    2  N           1     -20.683  -7.525  -4.712  0.00  0.00    -0.345 N 
HETATM    3  H           1     -21.378  -7.114  -4.103  0.00  0.00     0.163 HD
HETATM    4  O           1     -19.420  -7.333  -6.544  0.00  0.00    -0.271 OA
ENDROOT
BRANCH   1   5
HETATM    5  C           1     -20.813  -5.477  -6.129  0.00  0.00     0.278 C 
BRANCH   5   6
HETATM    6  C           1     -20.607  -5.166  -7.606  0.00  0.00     0.083 C 
BRANCH   6   7
HETATM    7  C           1     -21.869  -4.603  -8.179  0.00  0.00    -0.028 A 
HETATM    8  C           1     -22.057  -4.161  -9.518  0.00  0.00    -0.002 A 
HETATM    9  C           1     -21.229  -4.097 -10.654  0.00  0.00     0.014 A 
HETATM   10  C           1     -23.375  -3.714  -9.622  0.00  0.00     0.042 A 
HETATM   11  C           1     -21.746  -3.591 -11.853  0.00  0.00     0.001 A 
HETATM   12  C           1     -23.067  -3.152 -11.927  0.00  0.00     0.002 A 
HETATM   13  C           1     -23.909  -3.205 -10.812  0.00  0.00     0.030 A 
HETATM   14  N           1     -23.957  -3.883  -8.386  0.00  0.00    -0.365 N 
HETATM   15  H           1     -24.951  -3.636  -8.151  0.00  0.00     0.165 HD
HETATM   16  C           1     -23.055  -4.420  -7.506  0.00  0.00     0.096 A 
ENDBRANCH   6   7
ENDBRANCH   5   6
BRANCH   5  17
HETATM   17  N           1     -20.109  -4.446  -5.298  0.00  0.00    -0.066 N 
HETATM   18  H           1     -20.797  -3.728  -4.978  0.00  0.00     0.275 HD
HETATM   19  H           1     -19.366  -3.985  -5.871  0.00  0.00     0.275 HD
HETATM   20  H           1     -19.674  -4.906  -4.468  0.00  0.00     0.275 HD
ENDBRANCH   5  17
ENDBRANCH   1   5
BRANCH   2  21
HETATM   21  C           1     -20.142  -8.837  -4.413  0.00  0.00     0.185 C 
BRANCH  21  22
HETATM   22  C           1     -19.934  -8.971  -2.910  0.00  0.00     0.036 C 
BRANCH  22  23
HETATM   23  C           1     -20.461  -7.725  -2.211  0.00  0.00     0.004 C 
BRANCH  23  24
HETATM   24  C           1     -21.565  -8.117  -1.237  0.00  0.00     0.027 C 
BRANCH  24  25
HETATM   25  C           1     -22.398  -6.890  -0.892  0.00  0.00     0.229 C 
BRANCH  25  26
HETATM   26  N           1     -22.309  -5.893  -2.009  0.00  0.00    -0.079 N 
HETATM   27  H           1     -23.144  -5.264  -1.984  0.00  0.00     0.274 HD
HETATM   28  H           1     -21.440  -5.323  -1.898  0.00  0.00     0.274 HD
HETATM   29  H           1     -22.280  -6.398  -2.925  0.00  0.00     0.274 HD
ENDBRANCH  25  26
ENDBRANCH  24  25
ENDBRANCH  23  24
ENDBRANCH  22  23
ENDBRANCH  21  22
BRANCH  21  30
HETATM   30  C           1     -21.108  -9.896  -4.883  0.00  0.00     0.196 C 
HETATM   31  O           1     -21.034 -10.336  -6.051  0.00  0.00    -0.646 OA
HETATM   32  O           1     -21.982 -10.335  -4.105  0.00  0.00    -0.646 OA
ENDBRANCH  21  30
ENDBRANCH   2  21
TORSDOF 11
ENDMDL
MODEL 3
REMARK VINA RESULT:      -7.3      1.480      2.066
REMARK  11 active torsions:
REMARK  status: ('A' for Active; 'I' for Inactive)
REMARK       I    between atoms: C_6  and  N_7 
REMARK    1  A    between atoms: C_6  and  C_28 
REMARK    2  A    between atoms: N_7  and  C_8 
REMARK    3  A    between atoms: C_8  and  C_15 
REMARK    4  A    between atoms: C_8  and  C_9 
REMARK    5  A    between atoms: C_12  and  C_28 
REMARK    6  A    between atoms: C_12  and  C_16 
REMARK    7  A    between atoms: N_14  and  C_22 
REMARK    8  A    between atoms: C_15  and  C_21 
REMARK    9  A    between atoms: C_20  and  C_22 
REMARK   10  A    between atoms: C_20  and  C_21 
REMARK   11  A    between atoms: N_27  and  C_28 
ROOT
HETATM    1  C           1     -21.843  -4.929  -6.771  0.00  0.00     0.249 C 
HETATM    2  N           1     -22.642  -5.051  -7.876  0.00  0.00    -0.345 N 
HETATM    3  H           1     -23.192  -5.888  -8.014  0.00  0.00     0.163 HD
HETATM    4  O           1     -21.186  -3.929  -6.607  0.00  0.00    -0.271 OA
ENDROOT
BRANCH   1   5
HETATM    5  C           1     -21.783  -6.046  -5.757  0.00  0.00     0.278 C 
BRANCH   5   6
HETATM    6  C           1     -20.852  -5.650  -4.619  0.00  0.00     0.083 C 
BRANCH   6   7
HETATM    7  C           1     -21.250  -6.375  -3.372  0.00  0.00    -0.028 A 
HETATM    8  C           1     -20.751  -7.634  -2.938  0.00  0.00    -0.002 A 
HETATM    9  C           1     -19.817  -8.549  -3.457  0.00  0.00     0.014 A 
HETATM   10  C           1     -21.388  -7.935  -1.734  0.00  0.00     0.042 A 
HETATM   11  C           1     -19.551  -9.731  -2.755  0.00  0.00     0.001 A 
HETATM   12  C           1     -20.203 -10.005  -1.554  0.00  0.00     0.002 A 
HETATM   13  C           1     -21.135  -9.112  -1.019  0.00  0.00     0.030 A 
HETATM   14  N           1     -22.241  -6.891  -1.455  0.00  0.00    -0.365 N 
HETATM   15  H           1     -22.860  -6.830  -0.609  0.00  0.00     0.165 HD
HETATM   16  C           1     -22.165  -5.941  -2.439  0.00  0.00     0.096 A 
ENDBRANCH   6   7
ENDBRANCH   5   6
BRANCH   5  17
HETATM   17  N           1     -21.267  -7.290  -6.416  0.00  0.00    -0.066 N 
HETATM   18  H           1     -20.296  -7.124  -6.763  0.00  0.00     0.275 HD
HETATM   19  H           1     -21.886  -7.541  -7.221  0.00  0.00     0.275 HD
HETATM   20  H           1     -21.260  -8.073  -5.724  0.00  0.00     0.275 HD
ENDBRANCH   5  17
ENDBRANCH   1   5
BRANCH   2  21
HETATM   21  C           1     -22.699  -3.978  -8.850  0.00  0.00     0.185 C 
BRANCH  21  22
HETATM   22  C           1     -21.719  -4.264  -9.981  0.00  0.00     0.036 C 
BRANCH  22  23
HETATM   23  C           1     -21.771  -3.132 -10.997  0.00  0.00     0.004 C 
BRANCH  23  24
HETATM   24  C           1     -22.126  -3.695 -12.367  0.00  0.00     0.027 C 
BRANCH  24  25
HETATM   25  C           1     -23.095  -2.753 -13.069  0.00  0.00     0.229 C 
BRANCH  25  26
HETATM   26  N           1     -24.481  -2.976 -12.543  0.00  0.00    -0.079 N 
HETATM   27  H           1     -24.615  -3.991 -12.330  0.00  0.00     0.274 HD
HETATM   28  H           1     -24.617  -2.417 -11.671  0.00  0.00     0.274 HD
HETATM   29  H           1     -25.179  -2.677 -13.262  0.00  0.00     0.274 HD
ENDBRANCH  25  26
ENDBRANCH  24  25
ENDBRANCH  23  24
ENDBRANCH  22  23
ENDBRANCH  21  22
BRANCH  21  30
HETATM   30  C           1     -24.097  -3.882  -9.410  0.00  0.00     0.196 C 
HETATM   31  O           1     -24.727  -2.805  -9.339  0.00  0.00    -0.646 OA
HETATM   32  O           1     -24.625  -4.881  -9.945  0.00  0.00    -0.646 OA
ENDBRANCH  21  30
ENDBRANCH   2  21
TORSDOF 11
ENDMDL
MODEL 4
REMARK VINA RESULT:      -7.3      2.993      8.877
REMARK  11 active torsions:
REMARK  status: ('A' for Active; 'I' for Inactive)
REMARK       I    between atoms: C_6  and  N_7 
REMARK    1  A    between atoms: C_6  and  C_28 
REMARK    2  A    between atoms: N_7  and  C_8 
REMARK    3  A    between atoms: C_8  and  C_15 
REMARK    4  A    between atoms: C_8  and  C_9 
REMARK    5  A    between atoms: C_12  and  C_28 
REMARK    6  A    between atoms: C_12  and  C_16 
REMARK    7  A    between atoms: N_14  and  C_22 
REMARK    8  A    between atoms: C_15  and  C_21 
REMARK    9  A    between atoms: C_20  and  C_22 
REMARK   10  A    between atoms: C_20  and  C_21 
REMARK   11  A    between atoms: N_27  and  C_28 
ROOT
HETATM    1  C           1     -20.969  -7.037  -5.375  0.00  0.00     0.249 C 
HETATM    2  N           1     -21.401  -7.423  -4.134  0.00  0.00    -0.345 N 
HETATM    3  H           1     -22.299  -7.108  -3.790  0.00  0.00     0.163 HD
HETATM    4  O           1     -19.897  -7.412  -5.785  0.00  0.00    -0.271 OA
ENDROOT
BRANCH   1   5
HETATM    5  C           1     -21.832  -6.140  -6.229  0.00  0.00     0.278 C 
BRANCH   5   6
HETATM    6  C           1     -21.085  -4.846  -6.524  0.00  0.00     0.083 C 
BRANCH   6   7
HETATM    7  C           1     -21.050  -4.615  -8.002  0.00  0.00    -0.028 A 
HETATM    8  C           1     -22.144  -4.202  -8.812  0.00  0.00    -0.002 A 
HETATM    9  C           1     -23.494  -3.897  -8.554  0.00  0.00     0.014 A 
HETATM   10  C           1     -21.673  -4.110 -10.122  0.00  0.00     0.042 A 
HETATM   11  C           1     -24.324  -3.511  -9.613  0.00  0.00     0.001 A 
HETATM   12  C           1     -23.826  -3.428 -10.913  0.00  0.00     0.002 A 
HETATM   13  C           1     -22.490  -3.726 -11.193  0.00  0.00     0.030 A 
HETATM   14  N           1     -20.341  -4.457 -10.099  0.00  0.00    -0.365 N 
HETATM   15  H           1     -19.712  -4.482 -10.939  0.00  0.00     0.165 HD
HETATM   16  C           1     -19.954  -4.764  -8.821  0.00  0.00     0.096 A 
ENDBRANCH   6   7
ENDBRANCH   5   6
BRANCH   5  17
HETATM   17  N           1     -23.103  -5.827  -5.497  0.00  0.00    -0.066 N 
HETATM   18  H           1     -23.814  -6.564  -5.702  0.00  0.00     0.275 HD
HETATM   19  H           1     -23.466  -4.898  -5.811  0.00  0.00     0.275 HD
HETATM   20  H           1     -22.916  -5.800  -4.470  0.00  0.00     0.275 HD
ENDBRANCH   5  17
ENDBRANCH   1   5
BRANCH   2  21
HETATM   21  C           1     -20.572  -8.284  -3.314  0.00  0.00     0.185 C 
BRANCH  21  22
HETATM   22  C           1     -20.520  -7.738  -1.893  0.00  0.00     0.036 C 
BRANCH  22  23
HETATM   23  C           1     -21.841  -7.054  -1.564  0.00  0.00     0.004 C 
BRANCH  23  24
HETATM   24  C           1     -22.398  -7.624  -0.266  0.00  0.00     0.027 C 
BRANCH  24  25
HETATM   25  C           1     -21.366  -8.543   0.371  0.00  0.00     0.229 C 
BRANCH  25  26
HETATM   26  N           1     -21.865  -9.957   0.337  0.00  0.00    -0.079 N 
HETATM   27  H           1     -21.106 -10.587  -0.011  0.00  0.00     0.274 HD
HETATM   28  H           1     -22.145 -10.249   1.300  0.00  0.00     0.274 HD
HETATM   29  H           1     -22.690 -10.020  -0.302  0.00  0.00     0.274 HD
ENDBRANCH  25  26
ENDBRANCH  24  25
ENDBRANCH  23  24
ENDBRANCH  22  23
ENDBRANCH  21  22
BRANCH  21  30
HETATM   30  C           1     -21.156  -9.675  -3.297  0.00  0.00     0.196 C 
HETATM   31  O           1     -20.737 -10.519  -2.475  0.00  0.00    -0.646 OA
HETATM   32  O           1     -22.059  -9.984  -4.104  0.00  0.00    -0.646 OA
ENDBRANCH  21  30
ENDBRANCH   2  21
TORSDOF 11
ENDMDL
MODEL 5
REMARK VINA RESULT:      -7.2      3.173      8.697
REMARK  11 active torsions:
REMARK  status: ('A' for Active; 'I' for Inactive)
REMARK       I    between atoms: C_6  and  N_7 
REMARK    1  A    between atoms: C_6  and  C_28 
REMARK    2  A    between atoms: N_7  and  C_8 
REMARK    3  A    between atoms: C_8  and  C_15 
REMARK    4  A    between atoms: C_8  and  C_9 
REMARK    5  A    between atoms: C_12  and  C_28 
REMARK    6  A    between atoms: C_12  and  C_16 
REMARK    7  A    between atoms: N_14  and  C_22 
REMARK    8  A    between atoms: C_15  and  C_21 
REMARK    9  A    between atoms: C_20  and  C_22 
REMARK   10  A    between atoms: C_20  and  C_21 
REMARK   11  A    between atoms: N_27  and  C_28 
ROOT
HETATM    1  C           1     -20.211  -6.797  -5.894  0.00  0.00     0.249 C 
HETATM    2  N           1     -20.631  -7.522  -4.811  0.00  0.00    -0.345 N 
HETATM    3  H           1     -21.329  -7.141  -4.186  0.00  0.00     0.163 HD
HETATM    4  O           1     -19.376  -7.252  -6.639  0.00  0.00    -0.271 OA
ENDROOT
BRANCH   1   5
HETATM    5  C           1     -20.790  -5.428  -6.155  0.00  0.00     0.278 C 
BRANCH   5   6
HETATM    6  C           1     -20.585  -5.059  -7.618  0.00  0.00     0.083 C 
BRANCH   6   7
HETATM    7  C           1     -21.867  -4.538  -8.187  0.00  0.00    -0.028 A 
HETATM    8  C           1     -22.072  -4.093  -9.523  0.00  0.00    -0.002 A 
HETATM    9  C           1     -21.248  -3.991 -10.659  0.00  0.00     0.014 A 
HETATM   10  C           1     -23.405  -3.694  -9.622  0.00  0.00     0.042 A 
HETATM   11  C           1     -21.784  -3.495 -11.853  0.00  0.00     0.001 A 
HETATM   12  C           1     -23.120  -3.104 -11.923  0.00  0.00     0.002 A 
HETATM   13  C           1     -23.958  -3.196 -10.808  0.00  0.00     0.030 A 
HETATM   14  N           1     -23.981  -3.894  -8.387  0.00  0.00    -0.365 N 
HETATM   15  H           1     -24.982  -3.685  -8.150  0.00  0.00     0.165 HD
HETATM   16  C           1     -23.059  -4.404  -7.512  0.00  0.00     0.096 A 
ENDBRANCH   6   7
ENDBRANCH   5   6
BRANCH   5  17
HETATM   17  N           1     -20.100  -4.420  -5.284  0.00  0.00    -0.066 N 
HETATM   18  H           1     -19.335  -3.957  -5.825  0.00  0.00     0.275 HD
HETATM   19  H           1     -19.695  -4.900  -4.449  0.00  0.00     0.275 HD
HETATM   20  H           1     -20.790  -3.700  -4.972  0.00  0.00     0.275 HD
ENDBRANCH   5  17
ENDBRANCH   1   5
BRANCH   2  21
HETATM   21  C           1     -20.074  -8.837  -4.560  0.00  0.00     0.185 C 
BRANCH  21  22
HETATM   22  C           1     -19.745  -8.976  -3.079  0.00  0.00     0.036 C 
BRANCH  22  23
HETATM   23  C           1     -18.444  -9.751  -2.919  0.00  0.00     0.004 C 
BRANCH  23  24
HETATM   24  C           1     -17.619  -9.629  -4.194  0.00  0.00     0.027 C 
BRANCH  24  25
HETATM   25  C           1     -16.144  -9.807  -3.864  0.00  0.00     0.229 C 
BRANCH  25  26
HETATM   26  N           1     -15.845  -9.167  -2.541  0.00  0.00    -0.079 N 
HETATM   27  H           1     -16.201  -8.184  -2.540  0.00  0.00     0.274 HD
HETATM   28  H           1     -16.314  -9.708  -1.780  0.00  0.00     0.274 HD
HETATM   29  H           1     -14.812  -9.164  -2.381  0.00  0.00     0.274 HD
ENDBRANCH  25  26
ENDBRANCH  24  25
ENDBRANCH  23  24
ENDBRANCH  22  23
ENDBRANCH  21  22
BRANCH  21  30
HETATM   30  C           1     -21.080  -9.891  -4.952  0.00  0.00     0.196 C 
HETATM   31  O           1     -21.065 -10.371  -6.106  0.00  0.00    -0.646 OA
HETATM   32  O           1     -21.929 -10.284  -4.123  0.00  0.00    -0.646 OA
ENDBRANCH  21  30
ENDBRANCH   2  21
TORSDOF 11
ENDMDL
MODEL 6
REMARK VINA RESULT:      -7.1      1.938      2.485
REMARK  11 active torsions:
REMARK  status: ('A' for Active; 'I' for Inactive)
REMARK       I    between atoms: C_6  and  N_7 
REMARK    1  A    between atoms: C_6  and  C_28 
REMARK    2  A    between atoms: N_7  and  C_8 
REMARK    3  A    between atoms: C_8  and  C_15 
REMARK    4  A    between atoms: C_8  and  C_9 
REMARK    5  A    between atoms: C_12  and  C_28 
REMARK    6  A    between atoms: C_12  and  C_16 
REMARK    7  A    between atoms: N_14  and  C_22 
REMARK    8  A    between atoms: C_15  and  C_21 
REMARK    9  A    between atoms: C_20  and  C_22 
REMARK   10  A    between atoms: C_20  and  C_21 
REMARK   11  A    between atoms: N_27  and  C_28 
ROOT
HETATM    1  C           1     -21.459  -5.824  -6.597  0.00  0.00     0.249 C 
HETATM    2  N           1     -21.972  -4.765  -7.297  0.00  0.00    -0.345 N 
HETATM    3  H           1     -22.411  -3.998  -6.804  0.00  0.00     0.163 HD
HETATM    4  O           1     -20.936  -6.740  -7.185  0.00  0.00    -0.271 OA
ENDROOT
BRANCH   1   5
HETATM    5  C           1     -21.548  -5.848  -5.091  0.00  0.00     0.278 C 
BRANCH   5   6
HETATM    6  C           1     -20.441  -6.730  -4.529  0.00  0.00     0.083 C 
BRANCH   6   7
HETATM    7  C           1     -21.044  -7.934  -3.876  0.00  0.00    -0.028 A 
HETATM    8  C           1     -21.507  -8.017  -2.534  0.00  0.00    -0.002 A 
HETATM    9  C           1     -21.562  -7.110  -1.459  0.00  0.00     0.014 A 
HETATM   10  C           1     -21.988  -9.313  -2.345  0.00  0.00     0.042 A 
HETATM   11  C           1     -22.096  -7.529  -0.235  0.00  0.00     0.001 A 
HETATM   12  C           1     -22.570  -8.831  -0.075  0.00  0.00     0.002 A 
HETATM   13  C           1     -22.526  -9.749  -1.127  0.00  0.00     0.030 A 
HETATM   14  N           1     -21.819  -9.985  -3.534  0.00  0.00    -0.365 N 
HETATM   15  H           1     -22.089 -10.986  -3.703  0.00  0.00     0.165 HD
HETATM   16  C           1     -21.249  -9.160  -4.468  0.00  0.00     0.096 A 
ENDBRANCH   6   7
ENDBRANCH   5   6
BRANCH   5  17
HETATM   17  N           1     -22.882  -6.396  -4.678  0.00  0.00    -0.066 N 
HETATM   18  H           1     -22.752  -7.078  -3.898  0.00  0.00     0.275 HD
HETATM   19  H           1     -23.327  -6.879  -5.492  0.00  0.00     0.275 HD
HETATM   20  H           1     -23.495  -5.614  -4.358  0.00  0.00     0.275 HD
ENDBRANCH   5  17
ENDBRANCH   1   5
BRANCH   2  21
HETATM   21  C           1     -21.887  -4.743  -8.744  0.00  0.00     0.185 C 
BRANCH  21  22
HETATM   22  C           1     -22.912  -3.763  -9.299  0.00  0.00     0.036 C 
BRANCH  22  23
HETATM   23  C           1     -23.634  -4.398 -10.480  0.00  0.00     0.004 C 
BRANCH  23  24
HETATM   24  C           1     -23.888  -3.342 -11.548  0.00  0.00     0.027 C 
BRANCH  24  25
HETATM   25  C           1     -22.565  -2.717 -11.970  0.00  0.00     0.229 C 
BRANCH  25  26
HETATM   26  N           1     -21.752  -3.727 -12.724  0.00  0.00    -0.079 N 
HETATM   27  H           1     -21.632  -4.586 -12.140  0.00  0.00     0.274 HD
HETATM   28  H           1     -22.243  -3.975 -13.612  0.00  0.00     0.274 HD
HETATM   29  H           1     -20.813  -3.323 -12.945  0.00  0.00     0.274 HD
ENDBRANCH  25  26
ENDBRANCH  24  25
ENDBRANCH  23  24
ENDBRANCH  22  23
ENDBRANCH  21  22
BRANCH  21  30
HETATM   30  C           1     -20.502  -4.310  -9.158  0.00  0.00     0.196 C 
HETATM   31  O           1     -20.057  -4.628 -10.282  0.00  0.00    -0.646 OA
HETATM   32  O           1     -19.800  -3.631  -8.377  0.00  0.00    -0.646 OA
ENDBRANCH  21  30
ENDBRANCH   2  21
TORSDOF 11
ENDMDL
MODEL 7
REMARK VINA RESULT:      -7.1      2.558      3.485
REMARK  11 active torsions:
REMARK  status: ('A' for Active; 'I' for Inactive)
REMARK       I    between atoms: C_6  and  N_7 
REMARK    1  A    between atoms: C_6  and  C_28 
REMARK    2  A    between atoms: N_7  and  C_8 
REMARK    3  A    between atoms: C_8  and  C_15 
REMARK    4  A    between atoms: C_8  and  C_9 
REMARK    5  A    between atoms: C_12  and  C_28 
REMARK    6  A    between atoms: C_12  and  C_16 
REMARK    7  A    between atoms: N_14  and  C_22 
REMARK    8  A    between atoms: C_15  and  C_21 
REMARK    9  A    between atoms: C_20  and  C_22 
REMARK   10  A    between atoms: C_20  and  C_21 
REMARK   11  A    between atoms: N_27  and  C_28 
ROOT
HETATM    1  C           1     -21.137  -6.711  -5.733  0.00  0.00     0.249 C 
HETATM    2  N           1     -21.163  -5.402  -6.133  0.00  0.00    -0.345 N 
HETATM    3  H           1     -21.088  -4.661  -5.448  0.00  0.00     0.163 HD
HETATM    4  O           1     -21.229  -7.595  -6.551  0.00  0.00    -0.271 OA
ENDROOT
BRANCH   1   5
HETATM    5  C           1     -20.996  -7.050  -4.269  0.00  0.00     0.278 C 
BRANCH   5   6
HETATM    6  C           1     -21.904  -8.224  -3.929  0.00  0.00     0.083 C 
BRANCH   6   7
HETATM    7  C           1     -21.304  -9.013  -2.809  0.00  0.00    -0.028 A 
HETATM    8  C           1     -21.476  -8.762  -1.419  0.00  0.00    -0.002 A 
HETATM    9  C           1     -22.186  -7.798  -0.679  0.00  0.00     0.014 A 
HETATM   10  C           1     -20.745  -9.731  -0.732  0.00  0.00     0.042 A 
HETATM   11  C           1     -22.141  -7.838   0.720  0.00  0.00     0.001 A 
HETATM   12  C           1     -21.402  -8.819   1.379  0.00  0.00     0.002 A 
HETATM   13  C           1     -20.689  -9.786   0.666  0.00  0.00     0.030 A 
HETATM   14  N           1     -20.154 -10.538  -1.679  0.00  0.00    -0.365 N 
HETATM   15  H           1     -19.537 -11.361  -1.467  0.00  0.00     0.165 HD
HETATM   16  C           1     -20.485 -10.112  -2.938  0.00  0.00     0.096 A 
ENDBRANCH   6   7
ENDBRANCH   5   6
BRANCH   5  17
HETATM   17  N           1     -21.385  -5.861  -3.441  0.00  0.00    -0.066 N 
HETATM   18  H           1     -20.577  -5.203  -3.376  0.00  0.00     0.275 HD
HETATM   19  H           1     -21.655  -6.178  -2.482  0.00  0.00     0.275 HD
HETATM   20  H           1     -22.194  -5.376  -3.889  0.00  0.00     0.275 HD
ENDBRANCH   5  17
ENDBRANCH   1   5
BRANCH   2  21
HETATM   21  C           1     -21.299  -5.076  -7.539  0.00  0.00     0.185 C 
BRANCH  21  22
HETATM   22  C           1     -22.187  -3.848  -7.694  0.00  0.00     0.036 C 
BRANCH  22  23
HETATM   23  C           1     -23.365  -4.184  -8.598  0.00  0.00     0.004 C 
BRANCH  23  24
HETATM   24  C           1     -23.117  -3.614  -9.988  0.00  0.00     0.027 C 
BRANCH  24  25
HETATM   25  C           1     -24.438  -3.511 -10.739  0.00  0.00     0.229 C 
BRANCH  25  26
HETATM   26  N           1     -25.571  -3.483  -9.757  0.00  0.00    -0.079 N 
HETATM   27  H           1     -26.439  -3.846 -10.214  0.00  0.00     0.274 HD
HETATM   28  H           1     -25.334  -4.082  -8.935  0.00  0.00     0.274 HD
HETATM   29  H           1     -25.731  -2.500  -9.438  0.00  0.00     0.274 HD
ENDBRANCH  25  26
ENDBRANCH  24  25
ENDBRANCH  23  24
ENDBRANCH  22  23
ENDBRANCH  21  22
BRANCH  21  30
HETATM   30  C           1     -19.937  -4.788  -8.121  0.00  0.00     0.196 C 
HETATM   31  O           1     -18.973  -4.542  -7.365  0.00  0.00    -0.646 OA
HETATM   32  O           1     -19.773  -4.797  -9.361  0.00  0.00    -0.646 OA
ENDBRANCH  21  30
ENDBRANCH   2  21
TORSDOF 11
ENDMDL
MODEL 8
REMARK VINA RESULT:      -6.9      3.076      8.706
REMARK  11 active torsions:
REMARK  status: ('A' for Active; 'I' for Inactive)
REMARK       I    between atoms: C_6  and  N_7 
REMARK    1  A    between atoms: C_6  and  C_28 
REMARK    2  A    between atoms: N_7  and  C_8 
REMARK    3  A    between atoms: C_8  and  C_15 
REMARK    4  A    between atoms: C_8  and  C_9 
REMARK    5  A    between atoms: C_12  and  C_28 
REMARK    6  A    between atoms: C_12  and  C_16 
REMARK    7  A    between atoms: N_14  and  C_22 
REMARK    8  A    between atoms: C_15  and  C_21 
REMARK    9  A    between atoms: C_20  and  C_22 
REMARK   10  A    between atoms: C_20  and  C_21 
REMARK   11  A    between atoms: N_27  and  C_28 
ROOT
HETATM    1  C           1     -20.443  -5.980  -5.651  0.00  0.00     0.249 C 
HETATM    2  N           1     -20.024  -7.245  -5.967  0.00  0.00    -0.345 N 
HETATM    3  H           1     -19.689  -7.450  -6.899  0.00  0.00     0.163 HD
HETATM    4  O           1     -20.843  -5.737  -4.538  0.00  0.00    -0.271 OA
ENDROOT
BRANCH   1   5
HETATM    5  C           1     -20.405  -4.891  -6.695  0.00  0.00     0.278 C 
BRANCH   5   6
HETATM    6  C           1     -20.839  -5.460  -8.040  0.00  0.00     0.083 C 
BRANCH   6   7
HETATM    7  C           1     -22.055  -4.735  -8.521  0.00  0.00    -0.028 A 
HETATM    8  C           1     -22.289  -4.277  -9.848  0.00  0.00    -0.002 A 
HETATM    9  C           1     -21.553  -4.330 -11.046  0.00  0.00     0.014 A 
HETATM   10  C           1     -23.539  -3.658  -9.854  0.00  0.00     0.042 A 
HETATM   11  C           1     -22.092  -3.765 -12.208  0.00  0.00     0.001 A 
HETATM   12  C           1     -23.343  -3.152 -12.185  0.00  0.00     0.002 A 
HETATM   13  C           1     -24.093  -3.087 -11.007  0.00  0.00     0.030 A 
HETATM   14  N           1     -24.039  -3.742  -8.575  0.00  0.00    -0.365 N 
HETATM   15  H           1     -24.969  -3.362  -8.266  0.00  0.00     0.165 HD
HETATM   16  C           1     -23.150  -4.391  -7.760  0.00  0.00     0.096 A 
ENDBRANCH   6   7
ENDBRANCH   5   6
BRANCH   5  17
HETATM   17  N           1     -19.010  -4.353  -6.806  0.00  0.00    -0.066 N 
HETATM   18  H           1     -18.557  -4.361  -5.865  0.00  0.00     0.275 HD
HETATM   19  H           1     -19.042  -3.373  -7.168  0.00  0.00     0.275 HD
HETATM   20  H           1     -18.459  -4.950  -7.463  0.00  0.00     0.275 HD
ENDBRANCH   5  17
ENDBRANCH   1   5
BRANCH   2  21
HETATM   21  C           1     -20.060  -8.292  -4.964  0.00  0.00     0.185 C 
BRANCH  21  22
HETATM   22  C           1     -21.263  -9.193  -5.212  0.00  0.00     0.036 C 
BRANCH  22  23
HETATM   23  C           1     -21.159 -10.432  -4.333  0.00  0.00     0.004 C 
BRANCH  23  24
HETATM   24  C           1     -22.320 -10.453  -3.346  0.00  0.00     0.027 C 
BRANCH  24  25
HETATM   25  C           1     -21.785 -10.303  -1.929  0.00  0.00     0.229 C 
BRANCH  25  26
HETATM   26  N           1     -20.287 -10.391  -1.946  0.00  0.00    -0.079 N 
HETATM   27  H           1     -19.983 -11.016  -2.727  0.00  0.00     0.274 HD
HETATM   28  H           1     -19.885  -9.437  -2.087  0.00  0.00     0.274 HD
HETATM   29  H           1     -19.951 -10.781  -1.036  0.00  0.00     0.274 HD
ENDBRANCH  25  26
ENDBRANCH  24  25
ENDBRANCH  23  24
ENDBRANCH  22  23
ENDBRANCH  21  22
BRANCH  21  30
HETATM   30  C           1     -18.794  -9.109  -5.046  0.00  0.00     0.196 C 
HETATM   31  O           1     -18.137  -9.349  -4.010  0.00  0.00    -0.646 OA
HETATM   32  O           1     -18.403  -9.547  -6.149  0.00  0.00    -0.646 OA
ENDBRANCH  21  30
ENDBRANCH   2  21
TORSDOF 11
ENDMDL
MODEL 9
REMARK VINA RESULT:      -6.9      2.767      8.945
REMARK  11 active torsions:
REMARK  status: ('A' for Active; 'I' for Inactive)
REMARK       I    between atoms: C_6  and  N_7 
REMARK    1  A    between atoms: C_6  and  C_28 
REMARK    2  A    between atoms: N_7  and  C_8 
REMARK    3  A    between atoms: C_8  and  C_15 
REMARK    4  A    between atoms: C_8  and  C_9 
REMARK    5  A    between atoms: C_12  and  C_28 
REMARK    6  A    between atoms: C_12  and  C_16 
REMARK    7  A    between atoms: N_14  and  C_22 
REMARK    8  A    between atoms: C_15  and  C_21 
REMARK    9  A    between atoms: C_20  and  C_22 
REMARK   10  A    between atoms: C_20  and  C_21 
REMARK   11  A    between atoms: N_27  and  C_28 
ROOT
HETATM    1  C           1     -21.654  -6.286  -4.932  0.00  0.00     0.249 C 
HETATM    2  N           1     -21.042  -6.841  -3.841  0.00  0.00    -0.345 N 
HETATM    3  H           1     -20.035  -6.815  -3.757  0.00  0.00     0.163 HD
HETATM    4  O           1     -22.857  -6.318  -5.032  0.00  0.00    -0.271 OA
ENDROOT
BRANCH   1   5
HETATM    5  C           1     -20.824  -5.635  -6.012  0.00  0.00     0.278 C 
BRANCH   5   6
HETATM    6  C           1     -21.611  -4.489  -6.637  0.00  0.00     0.083 C 
BRANCH   6   7
HETATM    7  C           1     -21.200  -4.322  -8.066  0.00  0.00    -0.028 A 
HETATM    8  C           1     -22.060  -4.379  -9.198  0.00  0.00    -0.002 A 
HETATM    9  C           1     -23.441  -4.589  -9.369  0.00  0.00     0.014 A 
HETATM   10  C           1     -21.267  -4.173 -10.327  0.00  0.00     0.042 A 
HETATM   11  C           1     -23.981  -4.583 -10.661  0.00  0.00     0.001 A 
HETATM   12  C           1     -23.164  -4.374 -11.771  0.00  0.00     0.002 A 
HETATM   13  C           1     -21.790  -4.164 -11.626  0.00  0.00     0.030 A 
HETATM   14  N           1     -19.975  -3.997  -9.887  0.00  0.00    -0.365 N 
HETATM   15  H           1     -19.147  -3.821 -10.509  0.00  0.00     0.165 HD
HETATM   16  C           1     -19.923  -4.086  -8.521  0.00  0.00     0.096 A 
ENDBRANCH   6   7
ENDBRANCH   5   6
BRANCH   5  17
HETATM   17  N           1     -20.494  -6.648  -7.067  0.00  0.00    -0.066 N 
HETATM   18  H           1     -21.330  -6.805  -7.673  0.00  0.00     0.275 HD
HETATM   19  H           1     -20.220  -7.548  -6.612  0.00  0.00     0.275 HD
HETATM   20  H           1     -19.702  -6.297  -7.651  0.00  0.00     0.275 HD
ENDBRANCH   5  17
ENDBRANCH   1   5
BRANCH   2  21
HETATM   21  C           1     -21.840  -7.467  -2.804  0.00  0.00     0.185 C 
BRANCH  21  22
HETATM   22  C           1     -21.056  -8.617  -2.184  0.00  0.00     0.036 C 
BRANCH  22  23
HETATM   23  C           1     -21.908  -9.879  -2.201  0.00  0.00     0.004 C 
BRANCH  23  24
HETATM   24  C           1     -22.050 -10.415  -0.782  0.00  0.00     0.027 C 
BRANCH  24  25
HETATM   25  C           1     -23.518 -10.408  -0.380  0.00  0.00     0.229 C 
BRANCH  25  26
HETATM   26  N           1     -23.822  -9.154   0.385  0.00  0.00    -0.079 N 
HETATM   27  H           1     -24.858  -9.030   0.457  0.00  0.00     0.274 HD
HETATM   28  H           1     -23.413  -9.226   1.345  0.00  0.00     0.274 HD
HETATM   29  H           1     -23.406  -8.333  -0.111  0.00  0.00     0.274 HD
ENDBRANCH  25  26
ENDBRANCH  24  25
ENDBRANCH  23  24
ENDBRANCH  22  23
ENDBRANCH  21  22
BRANCH  21  30
HETATM   30  C           1     -22.166  -6.449  -1.738  0.00  0.00     0.196 C 
HETATM   31  O           1     -21.878  -5.246  -1.915  0.00  0.00    -0.646 OA
HETATM   32  O           1     -22.724  -6.809  -0.680  0.00  0.00    -0.646 OA
ENDBRANCH  21  30
ENDBRANCH   2  21
TORSDOF 11
ENDMDL
