MODEL 1
REMARK VINA RESULT:      -5.8      0.000      0.000
REMARK  8 active torsions:
REMARK  status: ('A' for Active; 'I' for Inactive)
REMARK    1  A    between atoms: C_2  and  C_4 
REMARK    2  A    between atoms: C_4  and  C_5 
REMARK    3  A    between atoms: C_5  and  C_6 
REMARK    4  A    between atoms: C_5  and  N_9 
REMARK       I    between atoms: N_9  and  C_10 
REMARK    5  A    between atoms: C_10  and  C_11 
REMARK    6  A    between atoms: C_11  and  C_12 
REMARK    7  A    between atoms: C_11  and  N_14 
REMARK    8  A    between atoms: C_12  and  Se_13 
ROOT
HETATM    1  N           1     -34.979  -1.744 -13.055  0.00  0.00    -0.344 N 
HETATM    2  C           1     -34.261  -2.598 -12.259  0.00  0.00     0.249 C 
HETATM    3  O           1     -33.722  -2.184 -11.261  0.00  0.00    -0.271 OA
HETATM    4  H           1     -35.430  -2.091 -13.892  0.00  0.00     0.163 HD
ENDROOT
BRANCH   1   5
HETATM    5  C           1     -35.091  -0.343 -12.697  0.00  0.00     0.195 C 
BRANCH   5   6
HETATM    6  C           1     -35.299   0.486 -13.957  0.00  0.00     0.149 C 
BRANCH   6   7
HETATM    7  C           1     -35.685  -0.421 -15.099  0.00  0.00     0.175 C 
HETATM    8  O           1     -36.884  -0.726 -15.277  0.00  0.00    -0.648 OA
HETATM    9  O           1     -34.805  -0.869 -15.867  0.00  0.00    -0.648 OA
ENDBRANCH   6   7
ENDBRANCH   5   6
BRANCH   5  10
HETATM   10  C           1     -36.266  -0.154 -11.769  0.00  0.00     0.197 C 
HETATM   11  O           1     -36.138   0.526 -10.730  0.00  0.00    -0.646 OA
HETATM   12  O           1     -37.367  -0.679 -12.042  0.00  0.00    -0.646 OA
ENDBRANCH   5  10
ENDBRANCH   1   5
BRANCH   2  13
HETATM   13  C           1     -34.144  -4.056 -12.631  0.00  0.00     0.274 C 
BRANCH  13  14
HETATM   14  C           1     -33.226  -4.760 -11.641  0.00  0.00     0.045 C 
BRANCH  14  15
HETATM   15 Se           1     -34.224  -6.143 -10.698  0.00  0.00     0.000 Se
HETATM   16  H           1     -33.193  -7.177 -10.884  0.00  0.00     0.000 HD
ENDBRANCH  14  15
ENDBRANCH  13  14
BRANCH  13  17
HETATM   17  N           1     -33.574  -4.175 -14.013  0.00  0.00    -0.067 N 
HETATM   18  H           1     -32.761  -4.831 -14.001  0.00  0.00     0.275 HD
HETATM   19  H           1     -34.307  -4.542 -14.662  0.00  0.00     0.275 HD
HETATM   20  H           1     -33.258  -3.235 -14.342  0.00  0.00     0.275 HD
ENDBRANCH  13  17
ENDBRANCH   2  13
TORSDOF 8
ENDMDL
MODEL 2
REMARK VINA RESULT:      -5.3     12.394     14.241
REMARK  8 active torsions:
REMARK  status: ('A' for Active; 'I' for Inactive)
REMARK    1  A    between atoms: C_2  and  C_4 
REMARK    2  A    between atoms: C_4  and  C_5 
REMARK    3  A    between atoms: C_5  and  C_6 
REMARK    4  A    between atoms: C_5  and  N_9 
REMARK       I    between atoms: N_9  and  C_10 
REMARK    5  A    between atoms: C_10  and  C_11 
REMARK    6  A    between atoms: C_11  and  C_12 
REMARK    7  A    between atoms: C_11  and  N_14 
REMARK    8  A    between atoms: C_12  and  Se_13 
ROOT
HETATM    1  N           1     -22.269  -4.845  -8.821  0.00  0.00    -0.344 N 
HETATM    2  C           1     -21.653  -4.565  -7.630  0.00  0.00     0.249 C 
HETATM    3  O           1     -21.533  -3.419  -7.267  0.00  0.00    -0.271 OA
HETATM    4  H           1     -22.369  -5.804  -9.126  0.00  0.00     0.163 HD
ENDROOT
BRANCH   1   5
HETATM    5  C           1     -22.778  -3.765  -9.645  0.00  0.00     0.195 C 
BRANCH   5   6
HETATM    6  C           1     -22.229  -3.904 -11.059  0.00  0.00     0.149 C 
BRANCH   6   7
HETATM    7  C           1     -20.729  -3.744 -11.034  0.00  0.00     0.175 C 
HETATM    8  O           1     -20.000  -4.724 -10.768  0.00  0.00    -0.648 OA
HETATM    9  O           1     -20.215  -2.631 -11.280  0.00  0.00    -0.648 OA
ENDBRANCH   6   7
ENDBRANCH   5   6
BRANCH   5  10
HETATM   10  C           1     -24.285  -3.828  -9.681  0.00  0.00     0.197 C 
HETATM   11  O           1     -24.959  -2.789  -9.520  0.00  0.00    -0.646 OA
HETATM   12  O           1     -24.859  -4.922  -9.872  0.00  0.00    -0.646 OA
ENDBRANCH   5  10
ENDBRANCH   1   5
BRANCH   2  13
HETATM   13  C           1     -21.123  -5.688  -6.773  0.00  0.00     0.274 C 
BRANCH  13  14
HETATM   14  C           1     -20.734  -5.143  -5.405  0.00  0.00     0.045 C 
BRANCH  14  15
HETATM   15 Se           1     -21.435  -6.315  -4.015  0.00  0.00     0.000 Se
HETATM   16  H           1     -21.895  -7.349  -4.956  0.00  0.00     0.000 HD
ENDBRANCH  14  15
ENDBRANCH  13  14
BRANCH  13  17
HETATM   17  N           1     -19.918  -6.293  -7.431  0.00  0.00    -0.067 N 
HETATM   18  H           1     -20.129  -7.277  -7.709  0.00  0.00     0.275 HD
HETATM   19  H           1     -19.669  -5.737  -8.280  0.00  0.00     0.275 HD
HETATM   20  H           1     -19.116  -6.285  -6.762  0.00  0.00     0.275 HD
ENDBRANCH  13  17
ENDBRANCH   2  13
TORSDOF 8
ENDMDL
MODEL 3
REMARK VINA RESULT:      -5.1     12.025     13.935
REMARK  8 active torsions:
REMARK  status: ('A' for Active; 'I' for Inactive)
REMARK    1  A    between atoms: C_2  and  C_4 
REMARK    2  A    between atoms: C_4  and  C_5 
REMARK    3  A    between atoms: C_5  and  C_6 
REMARK    4  A    between atoms: C_5  and  N_9 
REMARK       I    between atoms: N_9  and  C_10 
REMARK    5  A    between atoms: C_10  and  C_11 
REMARK    6  A    between atoms: C_11  and  C_12 
REMARK    7  A    between atoms: C_11  and  N_14 
REMARK    8  A    between atoms: C_12  and  Se_13 
ROOT
HETATM    1  N           1     -21.828  -3.870  -9.795  0.00  0.00    -0.344 N 
HETATM    2  C           1     -20.643  -4.296  -9.256  0.00  0.00     0.249 C 
HETATM    3  O           1     -19.935  -5.054  -9.876  0.00  0.00    -0.271 OA
HETATM    4  H           1     -22.421  -3.236  -9.276  0.00  0.00     0.163 HD
ENDROOT
BRANCH   1   5
HETATM    5  C           1     -22.233  -4.330 -11.110  0.00  0.00     0.195 C 
BRANCH   5   6
HETATM    6  C           1     -23.659  -4.860 -11.044  0.00  0.00     0.149 C 
BRANCH   6   7
HETATM    7  C           1     -24.453  -4.047 -10.052  0.00  0.00     0.175 C 
HETATM    8  O           1     -24.263  -4.200  -8.826  0.00  0.00    -0.648 OA
HETATM    9  O           1     -25.300  -3.221 -10.455  0.00  0.00    -0.648 OA
ENDBRANCH   6   7
ENDBRANCH   5   6
BRANCH   5  10
HETATM   10  C           1     -22.167  -3.180 -12.085  0.00  0.00     0.197 C 
HETATM   11  O           1     -21.553  -2.136 -11.780  0.00  0.00    -0.646 OA
HETATM   12  O           1     -22.726  -3.274 -13.199  0.00  0.00    -0.646 OA
ENDBRANCH   5  10
ENDBRANCH   1   5
BRANCH   2  13
HETATM   13  C           1     -20.221  -3.818  -7.888  0.00  0.00     0.274 C 
BRANCH  13  14
HETATM   14  C           1     -19.528  -4.953  -7.145  0.00  0.00     0.045 C 
BRANCH  14  15
HETATM   15 Se           1     -20.868  -6.168  -6.418  0.00  0.00     0.000 Se
HETATM   16  H           1     -20.684  -7.184  -7.466  0.00  0.00     0.000 HD
ENDBRANCH  14  15
ENDBRANCH  13  14
BRANCH  13  17
HETATM   17  N           1     -21.431  -3.382  -7.117  0.00  0.00    -0.067 N 
HETATM   18  H           1     -21.911  -2.608  -7.628  0.00  0.00     0.275 HD
HETATM   19  H           1     -22.088  -4.189  -7.013  0.00  0.00     0.275 HD
HETATM   20  H           1     -21.139  -3.046  -6.172  0.00  0.00     0.275 HD
ENDBRANCH  13  17
ENDBRANCH   2  13
TORSDOF 8
ENDMDL
MODEL 4
REMARK VINA RESULT:      -5.0      3.480      4.913
REMARK  8 active torsions:
REMARK  status: ('A' for Active; 'I' for Inactive)
REMARK    1  A    between atoms: C_2  and  C_4 
REMARK    2  A    between atoms: C_4  and  C_5 
REMARK    3  A    between atoms: C_5  and  C_6 
REMARK    4  A    between atoms: C_5  and  N_9 
REMARK       I    between atoms: N_9  and  C_10 
REMARK    5  A    between atoms: C_10  and  C_11 
REMARK    6  A    between atoms: C_11  and  C_12 
REMARK    7  A    between atoms: C_11  and  N_14 
REMARK    8  A    between atoms: C_12  and  Se_13 
ROOT
HETATM    1  N           1     -35.870  -0.213 -10.517  0.00  0.00    -0.344 N 
HETATM    2  C           1     -37.057  -0.028  -9.859  0.00  0.00     0.249 C 
HETATM    3  O           1     -38.075  -0.503 -10.304  0.00  0.00    -0.271 OA
HETATM    4  H           1     -35.018   0.186 -10.145  0.00  0.00     0.163 HD
ENDROOT
BRANCH   1   5
HETATM    5  C           1     -35.836  -0.979 -11.748  0.00  0.00     0.195 C 
BRANCH   5   6
HETATM    6  C           1     -35.067  -0.201 -12.808  0.00  0.00     0.149 C 
BRANCH   6   7
HETATM    7  C           1     -35.647  -0.496 -14.168  0.00  0.00     0.175 C 
HETATM    8  O           1     -36.860  -0.773 -14.284  0.00  0.00    -0.648 OA
HETATM    9  O           1     -34.914  -0.462 -15.181  0.00  0.00    -0.648 OA
ENDBRANCH   6   7
ENDBRANCH   5   6
BRANCH   5  10
HETATM   10  C           1     -35.152  -2.301 -11.498  0.00  0.00     0.197 C 
HETATM   11  O           1     -33.908  -2.385 -11.573  0.00  0.00    -0.646 OA
HETATM   12  O           1     -35.831  -3.311 -11.215  0.00  0.00    -0.646 OA
ENDBRANCH   5  10
ENDBRANCH   1   5
BRANCH   2  13
HETATM   13  C           1     -37.093   0.769  -8.579  0.00  0.00     0.274 C 
BRANCH  13  14
HETATM   14  C           1     -37.809  -0.033  -7.500  0.00  0.00     0.045 C 
BRANCH  14  15
HETATM   15 Se           1     -37.331   0.664  -5.744  0.00  0.00     0.000 Se
HETATM   16  H           1     -38.699   0.577  -5.208  0.00  0.00     0.000 HD
ENDBRANCH  14  15
ENDBRANCH  13  14
BRANCH  13  17
HETATM   17  N           1     -37.827   2.057  -8.812  0.00  0.00    -0.067 N 
HETATM   18  H           1     -38.849   1.864  -8.911  0.00  0.00     0.275 HD
HETATM   19  H           1     -37.671   2.698  -8.001  0.00  0.00     0.275 HD
HETATM   20  H           1     -37.471   2.507  -9.686  0.00  0.00     0.275 HD
ENDBRANCH  13  17
ENDBRANCH   2  13
TORSDOF 8
ENDMDL
MODEL 5
REMARK VINA RESULT:      -5.0     11.881     13.694
REMARK  8 active torsions:
REMARK  status: ('A' for Active; 'I' for Inactive)
REMARK    1  A    between atoms: C_2  and  C_4 
REMARK    2  A    between atoms: C_4  and  C_5 
REMARK    3  A    between atoms: C_5  and  C_6 
REMARK    4  A    between atoms: C_5  and  N_9 
REMARK       I    between atoms: N_9  and  C_10 
REMARK    5  A    between atoms: C_10  and  C_11 
REMARK    6  A    between atoms: C_11  and  C_12 
REMARK    7  A    between atoms: C_11  and  N_14 
REMARK    8  A    between atoms: C_12  and  Se_13 
ROOT
HETATM    1  N           1     -22.437  -3.538  -9.496  0.00  0.00    -0.344 N 
HETATM    2  C           1     -22.140  -4.537  -8.607  0.00  0.00     0.249 C 
HETATM    3  O           1     -21.653  -5.570  -9.000  0.00  0.00    -0.271 OA
HETATM    4  H           1     -22.847  -2.673  -9.167  0.00  0.00     0.163 HD
ENDROOT
BRANCH   1   5
HETATM    5  C           1     -22.166  -3.722 -10.909  0.00  0.00     0.195 C 
BRANCH   5   6
HETATM    6  C           1     -22.982  -2.720 -11.715  0.00  0.00     0.149 C 
BRANCH   6   7
HETATM    7  C           1     -24.430  -3.140 -11.722  0.00  0.00     0.175 C 
HETATM    8  O           1     -25.023  -3.324 -12.808  0.00  0.00    -0.648 OA
HETATM    9  O           1     -25.039  -3.305 -10.643  0.00  0.00    -0.648 OA
ENDBRANCH   6   7
ENDBRANCH   5   6
BRANCH   5  10
HETATM   10  C           1     -20.696  -3.501 -11.170  0.00  0.00     0.197 C 
HETATM   11  O           1     -20.236  -2.341 -11.213  0.00  0.00    -0.646 OA
HETATM   12  O           1     -19.939  -4.481 -11.343  0.00  0.00    -0.646 OA
ENDBRANCH   5  10
ENDBRANCH   1   5
BRANCH   2  13
HETATM   13  C           1     -22.423  -4.347  -7.137  0.00  0.00     0.274 C 
BRANCH  13  14
HETATM   14  C           1     -21.700  -5.423  -6.337  0.00  0.00     0.045 C 
BRANCH  14  15
HETATM   15 Se           1     -19.910  -4.802  -5.879  0.00  0.00     0.000 Se
HETATM   16  H           1     -20.255  -3.375  -5.977  0.00  0.00     0.000 HD
ENDBRANCH  14  15
ENDBRANCH  13  14
BRANCH  13  17
HETATM   17  N           1     -23.899  -4.452  -6.894  0.00  0.00    -0.067 N 
HETATM   18  H           1     -24.383  -3.632  -7.325  0.00  0.00     0.275 HD
HETATM   19  H           1     -24.261  -5.334  -7.324  0.00  0.00     0.275 HD
HETATM   20  H           1     -24.083  -4.464  -5.866  0.00  0.00     0.275 HD
ENDBRANCH  13  17
ENDBRANCH   2  13
TORSDOF 8
ENDMDL
MODEL 6
REMARK VINA RESULT:      -5.0     13.144     15.467
REMARK  8 active torsions:
REMARK  status: ('A' for Active; 'I' for Inactive)
REMARK    1  A    between atoms: C_2  and  C_4 
REMARK    2  A    between atoms: C_4  and  C_5 
REMARK    3  A    between atoms: C_5  and  C_6 
REMARK    4  A    between atoms: C_5  and  N_9 
REMARK       I    between atoms: N_9  and  C_10 
REMARK    5  A    between atoms: C_10  and  C_11 
REMARK    6  A    between atoms: C_11  and  C_12 
REMARK    7  A    between atoms: C_11  and  N_14 
REMARK    8  A    between atoms: C_12  and  Se_13 
ROOT
HETATM    1  N           1     -21.996  -5.058  -7.160  0.00  0.00    -0.344 N 
HETATM    2  C           1     -22.396  -4.158  -8.112  0.00  0.00     0.249 C 
HETATM    3  O           1     -21.774  -3.136  -8.276  0.00  0.00    -0.271 OA
HETATM    4  H           1     -22.518  -5.914  -7.022  0.00  0.00     0.163 HD
ENDROOT
BRANCH   1   5
HETATM    5  C           1     -20.826  -4.783  -6.349  0.00  0.00     0.195 C 
BRANCH   5   6
HETATM    6  C           1     -20.958  -5.497  -5.011  0.00  0.00     0.149 C 
BRANCH   6   7
HETATM    7  C           1     -22.083  -6.498  -5.083  0.00  0.00     0.175 C 
HETATM    8  O           1     -21.837  -7.699  -5.329  0.00  0.00    -0.648 OA
HETATM    9  O           1     -23.263  -6.127  -4.897  0.00  0.00    -0.648 OA
ENDBRANCH   6   7
ENDBRANCH   5   6
BRANCH   5  10
HETATM   10  C           1     -19.592  -5.277  -7.065  0.00  0.00     0.197 C 
HETATM   11  O           1     -19.471  -6.491  -7.336  0.00  0.00    -0.646 OA
HETATM   12  O           1     -18.693  -4.472  -7.387  0.00  0.00    -0.646 OA
ENDBRANCH   5  10
ENDBRANCH   1   5
BRANCH   2  13
HETATM   13  C           1     -23.614  -4.443  -8.956  0.00  0.00     0.274 C 
BRANCH  13  14
HETATM   14  C           1     -23.187  -4.695 -10.396  0.00  0.00     0.045 C 
BRANCH  14  15
HETATM   15 Se           1     -23.964  -3.332 -11.553  0.00  0.00     0.000 Se
HETATM   16  H           1     -22.894  -2.351 -11.309  0.00  0.00     0.000 HD
ENDBRANCH  14  15
ENDBRANCH  13  14
BRANCH  13  17
HETATM   17  N           1     -24.541  -3.265  -8.909  0.00  0.00    -0.067 N 
HETATM   18  H           1     -25.531  -3.598  -8.943  0.00  0.00     0.275 HD
HETATM   19  H           1     -24.384  -2.733  -8.023  0.00  0.00     0.275 HD
HETATM   20  H           1     -24.355  -2.643  -9.727  0.00  0.00     0.275 HD
ENDBRANCH  13  17
ENDBRANCH   2  13
TORSDOF 8
ENDMDL
MODEL 7
REMARK VINA RESULT:      -4.9      2.061      3.668
REMARK  8 active torsions:
REMARK  status: ('A' for Active; 'I' for Inactive)
REMARK    1  A    between atoms: C_2  and  C_4 
REMARK    2  A    between atoms: C_4  and  C_5 
REMARK    3  A    between atoms: C_5  and  C_6 
REMARK    4  A    between atoms: C_5  and  N_9 
REMARK       I    between atoms: N_9  and  C_10 
REMARK    5  A    between atoms: C_10  and  C_11 
REMARK    6  A    between atoms: C_11  and  C_12 
REMARK    7  A    between atoms: C_11  and  N_14 
REMARK    8  A    between atoms: C_12  and  Se_13 
ROOT
HETATM    1  N           1     -35.008  -0.438 -14.177  0.00  0.00    -0.344 N 
HETATM    2  C           1     -35.538  -1.010 -13.051  0.00  0.00     0.249 C 
HETATM    3  O           1     -36.736  -1.095 -12.923  0.00  0.00    -0.271 OA
HETATM    4  H           1     -34.005  -0.366 -14.284  0.00  0.00     0.163 HD
ENDROOT
BRANCH   1   5
HETATM    5  C           1     -35.887   0.066 -15.215  0.00  0.00     0.195 C 
BRANCH   5   6
HETATM    6  C           1     -35.424   1.453 -15.641  0.00  0.00     0.149 C 
BRANCH   6   7
HETATM    7  C           1     -36.586   2.212 -16.231  0.00  0.00     0.175 C 
HETATM    8  O           1     -37.749   1.773 -16.103  0.00  0.00    -0.648 OA
HETATM    9  O           1     -36.385   3.281 -16.848  0.00  0.00    -0.648 OA
ENDBRANCH   6   7
ENDBRANCH   5   6
BRANCH   5  10
HETATM   10  C           1     -35.847  -0.865 -16.402  0.00  0.00     0.197 C 
HETATM   11  O           1     -36.833  -0.949 -17.164  0.00  0.00    -0.646 OA
HETATM   12  O           1     -34.827  -1.553 -16.622  0.00  0.00    -0.646 OA
ENDBRANCH   5  10
ENDBRANCH   1   5
BRANCH   2  13
HETATM   13  C           1     -34.624  -1.535 -11.970  0.00  0.00     0.274 C 
BRANCH  13  14
HETATM   14  C           1     -34.235  -2.972 -12.288  0.00  0.00     0.045 C 
BRANCH  14  15
HETATM   15 Se           1     -33.875  -3.930 -10.629  0.00  0.00     0.000 Se
HETATM   16  H           1     -35.060  -3.404  -9.932  0.00  0.00     0.000 HD
ENDBRANCH  14  15
ENDBRANCH  13  14
BRANCH  13  17
HETATM   17  N           1     -35.335  -1.490 -10.650  0.00  0.00    -0.067 N 
HETATM   18  H           1     -35.403  -0.500 -10.323  0.00  0.00     0.275 HD
HETATM   19  H           1     -36.297  -1.886 -10.758  0.00  0.00     0.275 HD
HETATM   20  H           1     -34.803  -2.053  -9.949  0.00  0.00     0.275 HD
ENDBRANCH  13  17
ENDBRANCH   2  13
TORSDOF 8
ENDMDL
MODEL 8
REMARK VINA RESULT:      -4.8     12.028     13.402
REMARK  8 active torsions:
REMARK  status: ('A' for Active; 'I' for Inactive)
REMARK    1  A    between atoms: C_2  and  C_4 
REMARK    2  A    between atoms: C_4  and  C_5 
REMARK    3  A    between atoms: C_5  and  C_6 
REMARK    4  A    between atoms: C_5  and  N_9 
REMARK       I    between atoms: N_9  and  C_10 
REMARK    5  A    between atoms: C_10  and  C_11 
REMARK    6  A    between atoms: C_11  and  C_12 
REMARK    7  A    between atoms: C_11  and  N_14 
REMARK    8  A    between atoms: C_12  and  Se_13 
ROOT
HETATM    1  N           1     -22.111  -4.850  -9.307  0.00  0.00    -0.344 N 
HETATM    2  C           1     -21.612  -4.427  -8.103  0.00  0.00     0.249 C 
HETATM    3  O           1     -21.754  -3.277  -7.761  0.00  0.00    -0.271 OA
HETATM    4  H           1     -21.992  -5.813  -9.595  0.00  0.00     0.163 HD
ENDROOT
BRANCH   1   5
HETATM    5  C           1     -22.808  -3.916 -10.170  0.00  0.00     0.195 C 
BRANCH   5   6
HETATM    6  C           1     -22.663  -4.360 -11.620  0.00  0.00     0.149 C 
BRANCH   6   7
HETATM    7  C           1     -23.329  -3.354 -12.524  0.00  0.00     0.175 C 
HETATM    8  O           1     -22.974  -2.156 -12.494  0.00  0.00    -0.648 OA
HETATM    9  O           1     -24.236  -3.717 -13.304  0.00  0.00    -0.648 OA
ENDBRANCH   6   7
ENDBRANCH   5   6
BRANCH   5  10
HETATM   10  C           1     -24.270  -3.883  -9.797  0.00  0.00     0.197 C 
HETATM   11  O           1     -24.944  -4.934  -9.818  0.00  0.00    -0.646 OA
HETATM   12  O           1     -24.806  -2.803  -9.466  0.00  0.00    -0.646 OA
ENDBRANCH   5  10
ENDBRANCH   1   5
BRANCH   2  13
HETATM   13  C           1     -20.887  -5.399  -7.205  0.00  0.00     0.274 C 
BRANCH  13  14
HETATM   14  C           1     -21.873  -6.017  -6.223  0.00  0.00     0.045 C 
BRANCH  14  15
HETATM   15 Se           1     -21.109  -5.994  -4.431  0.00  0.00     0.000 Se
HETATM   16  H           1     -22.304  -6.562  -3.788  0.00  0.00     0.000 HD
ENDBRANCH  14  15
ENDBRANCH  13  14
BRANCH  13  17
HETATM   17  N           1     -19.816  -4.673  -6.446  0.00  0.00    -0.067 N 
HETATM   18  H           1     -19.132  -5.362  -6.061  0.00  0.00     0.275 HD
HETATM   19  H           1     -19.321  -4.012  -7.087  0.00  0.00     0.275 HD
HETATM   20  H           1     -20.249  -4.137  -5.660  0.00  0.00     0.275 HD
ENDBRANCH  13  17
ENDBRANCH   2  13
TORSDOF 8
ENDMDL
MODEL 9
REMARK VINA RESULT:      -4.5     15.420     17.489
REMARK  8 active torsions:
REMARK  status: ('A' for Active; 'I' for Inactive)
REMARK    1  A    between atoms: C_2  and  C_4 
REMARK    2  A    between atoms: C_4  and  C_5 
REMARK    3  A    between atoms: C_5  and  C_6 
REMARK    4  A    between atoms: C_5  and  N_9 
REMARK       I    between atoms: N_9  and  C_10 
REMARK    5  A    between atoms: C_10  and  C_11 
REMARK    6  A    between atoms: C_11  and  C_12 
REMARK    7  A    between atoms: C_11  and  N_14 
REMARK    8  A    between atoms: C_12  and  Se_13 
ROOT
HETATM    1  N           1     -20.834  -6.740  -4.728  0.00  0.00    -0.344 N 
HETATM    2  C           1     -21.370  -5.827  -5.598  0.00  0.00     0.249 C 
HETATM    3  O           1     -22.565  -5.651  -5.628  0.00  0.00    -0.271 OA
HETATM    4  H           1     -19.833  -6.888  -4.704  0.00  0.00     0.163 HD
ENDROOT
BRANCH   1   5
HETATM    5  C           1     -21.701  -7.494  -3.844  0.00  0.00     0.195 C 
BRANCH   5   6
HETATM    6  C           1     -21.242  -8.946  -3.801  0.00  0.00     0.149 C 
BRANCH   6   7
HETATM    7  C           1     -19.943  -9.085  -4.555  0.00  0.00     0.175 C 
HETATM    8  O           1     -18.855  -8.919  -3.962  0.00  0.00    -0.648 OA
HETATM    9  O           1     -19.954  -9.366  -5.773  0.00  0.00    -0.648 OA
ENDBRANCH   6   7
ENDBRANCH   5   6
BRANCH   5  10
HETATM   10  C           1     -21.639  -6.904  -2.457  0.00  0.00     0.197 C 
HETATM   11  O           1     -20.915  -7.430  -1.586  0.00  0.00    -0.646 OA
HETATM   12  O           1     -22.313  -5.889  -2.180  0.00  0.00    -0.646 OA
ENDBRANCH   5  10
ENDBRANCH   1   5
BRANCH   2  13
HETATM   13  C           1     -20.468  -5.042  -6.518  0.00  0.00     0.274 C 
BRANCH  13  14
HETATM   14  C           1     -21.249  -3.888  -7.133  0.00  0.00     0.045 C 
BRANCH  14  15
HETATM   15 Se           1     -21.759  -4.346  -8.957  0.00  0.00     0.000 Se
HETATM   16  H           1     -21.740  -5.799  -8.721  0.00  0.00     0.000 HD
ENDBRANCH  14  15
ENDBRANCH  13  14
BRANCH  13  17
HETATM   17  N           1     -19.963  -5.939  -7.609  0.00  0.00    -0.067 N 
HETATM   18  H           1     -20.769  -6.293  -8.171  0.00  0.00     0.275 HD
HETATM   19  H           1     -19.315  -5.403  -8.229  0.00  0.00     0.275 HD
HETATM   20  H           1     -19.452  -6.747  -7.186  0.00  0.00     0.275 HD
ENDBRANCH  13  17
ENDBRANCH   2  13
TORSDOF 8
ENDMDL
