MODEL 1
REMARK VINA RESULT:      -5.2      0.000      0.000
REMARK  5 active torsions:
REMARK  status: ('A' for Active; 'I' for Inactive)
REMARK    1  A    between atoms: C_3  and  C_4 
REMARK    2  A    between atoms: C_4  and  C_5 
REMARK    3  A    between atoms: C_4  and  N_19 
REMARK    4  A    between atoms: C_5  and  C_7 
REMARK    5  A    between atoms: C_8  and  C_18 
REMARK       I    between atoms: C_18  and  N_19 
ROOT
HETATM    1  H           1     -21.449  -8.566  -6.359  0.00  0.00     0.163 HD
HETATM    2  O           1     -19.336  -8.613  -4.041  0.00  0.00    -0.271 OA
HETATM    3  C           1     -20.081  -9.053  -4.885  0.00  0.00     0.249 C 
HETATM    4  N           1     -20.826  -8.198  -5.653  0.00  0.00    -0.345 N 
ENDROOT
BRANCH   3   5
HETATM    5  C           1     -20.191 -10.543  -5.092  0.00  0.00     0.274 C 
HETATM    6  C           1     -21.635 -10.980  -4.889  0.00  0.00     0.042 C 
HETATM    7  C           1     -22.078 -10.630  -3.473  0.00  0.00     0.003 C 
HETATM    8 Se           1     -20.935 -11.550  -2.189  0.00  0.00     0.000 Se
HETATM    9  C           1     -21.842 -10.831  -0.621  0.00  0.00     0.000 C 
HETATM   10  H           1     -19.615 -11.011  -3.133  0.00  0.00     0.275 HD
HETATM   11  N           1     -19.311 -11.251  -4.104  0.00  0.00    -0.067 N 
HETATM   12  H           1     -19.387 -12.284  -4.247  0.00  0.00     0.275 HD
HETATM   13  H           1     -18.320 -10.953  -4.244  0.00  0.00     0.275 HD
ENDBRANCH   3   5
BRANCH   4  14
HETATM   14  C           1     -20.719  -6.766  -5.454  0.00  0.00     0.185 C 
BRANCH  14  15
HETATM   15  C           1     -21.855  -6.295  -4.579  0.00  0.00     0.196 C 
HETATM   16  O           1     -23.016  -6.239  -5.039  0.00  0.00    -0.646 OA
HETATM   17  O           1     -21.634  -5.960  -3.395  0.00  0.00    -0.646 OA
ENDBRANCH  14  15
BRANCH  14  18
HETATM   18  C           1     -20.788  -6.061  -6.802  0.00  0.00     0.040 C 
BRANCH  18  19
HETATM   19  C           1     -20.290  -4.629  -6.653  0.00  0.00    -0.020 C 
HETATM   20  C           1     -18.985  -4.464  -7.423  0.00  0.00     0.009 C 
HETATM   21  C           1     -21.332  -3.669  -7.209  0.00  0.00     0.009 C 
ENDBRANCH  18  19
ENDBRANCH  14  18
ENDBRANCH   4  14
TORSDOF 5
ENDMDL
MODEL 2
REMARK VINA RESULT:      -5.2      3.300      4.927
REMARK  5 active torsions:
REMARK  status: ('A' for Active; 'I' for Inactive)
REMARK    1  A    between atoms: C_3  and  C_4 
REMARK    2  A    between atoms: C_4  and  C_5 
REMARK    3  A    between atoms: C_4  and  N_19 
REMARK    4  A    between atoms: C_5  and  C_7 
REMARK    5  A    between atoms: C_8  and  C_18 
REMARK       I    between atoms: C_18  and  N_19 
ROOT
HETATM    1  H           1     -20.232  -7.956  -3.772  0.00  0.00     0.163 HD
HETATM    2  O           1     -22.280 -10.314  -3.489  0.00  0.00    -0.271 OA
HETATM    3  C           1     -21.374  -9.671  -3.963  0.00  0.00     0.249 C 
HETATM    4  N           1     -20.990  -8.495  -3.375  0.00  0.00    -0.345 N 
ENDROOT
BRANCH   3   5
HETATM    5  C           1     -20.667 -10.162  -5.202  0.00  0.00     0.274 C 
HETATM    6  C           1     -19.908 -11.441  -4.880  0.00  0.00     0.042 C 
HETATM    7  C           1     -18.883 -11.164  -3.787  0.00  0.00     0.003 C 
HETATM    8 Se           1     -17.630  -9.803  -4.401  0.00  0.00     0.000 Se
HETATM    9  C           1     -16.581  -9.795  -2.758  0.00  0.00     0.000 C 
HETATM   10  H           1     -19.001  -8.924  -4.924  0.00  0.00     0.275 HD
HETATM   11  N           1     -19.703  -9.114  -5.674  0.00  0.00    -0.067 N 
HETATM   12  H           1     -19.213  -9.453  -6.533  0.00  0.00     0.275 HD
HETATM   13  H           1     -20.224  -8.236  -5.896  0.00  0.00     0.275 HD
ENDBRANCH   3   5
BRANCH   4  14
HETATM   14  C           1     -21.670  -8.024  -2.184  0.00  0.00     0.185 C 
BRANCH  14  15
HETATM   15  C           1     -22.053  -6.575  -2.365  0.00  0.00     0.196 C 
HETATM   16  O           1     -22.364  -5.883  -1.372  0.00  0.00    -0.646 OA
HETATM   17  O           1     -22.058  -6.069  -3.508  0.00  0.00    -0.646 OA
ENDBRANCH  14  15
BRANCH  14  18
HETATM   18  C           1     -20.742  -8.159  -0.985  0.00  0.00     0.040 C 
BRANCH  18  19
HETATM   19  C           1     -21.344  -9.137   0.016  0.00  0.00    -0.020 C 
HETATM   20  C           1     -21.089  -8.635   1.431  0.00  0.00     0.009 C 
HETATM   21  C           1     -22.843  -9.247  -0.221  0.00  0.00     0.009 C 
ENDBRANCH  18  19
ENDBRANCH  14  18
ENDBRANCH   4  14
TORSDOF 5
ENDMDL
MODEL 3
REMARK VINA RESULT:      -5.1      3.232      5.212
REMARK  5 active torsions:
REMARK  status: ('A' for Active; 'I' for Inactive)
REMARK    1  A    between atoms: C_3  and  C_4 
REMARK    2  A    between atoms: C_4  and  C_5 
REMARK    3  A    between atoms: C_4  and  N_19 
REMARK    4  A    between atoms: C_5  and  C_7 
REMARK    5  A    between atoms: C_8  and  C_18 
REMARK       I    between atoms: C_18  and  N_19 
ROOT
HETATM    1  H           1     -19.124  -7.881  -1.925  0.00  0.00     0.163 HD
HETATM    2  O           1     -20.416 -10.629  -2.712  0.00  0.00    -0.271 OA
HETATM    3  C           1     -19.541  -9.844  -2.430  0.00  0.00     0.249 C 
HETATM    4  N           1     -19.855  -8.538  -2.161  0.00  0.00    -0.345 N 
ENDROOT
BRANCH   3   5
HETATM    5  C           1     -18.105 -10.301  -2.374  0.00  0.00     0.274 C 
HETATM    6  C           1     -17.301  -9.582  -3.448  0.00  0.00     0.042 C 
HETATM    7  C           1     -17.882  -9.902  -4.819  0.00  0.00     0.003 C 
HETATM    8 Se           1     -17.801 -11.825  -5.127  0.00  0.00     0.000 Se
HETATM    9  C           1     -18.608 -11.740  -6.899  0.00  0.00     0.000 C 
HETATM   10  H           1     -18.443 -12.000  -3.552  0.00  0.00     0.275 HD
HETATM   11  N           1     -18.043 -11.782  -2.611  0.00  0.00    -0.067 N 
HETATM   12  H           1     -17.049 -12.100  -2.572  0.00  0.00     0.275 HD
HETATM   13  H           1     -18.595 -12.275  -1.873  0.00  0.00     0.275 HD
ENDBRANCH   3   5
BRANCH   4  14
HETATM   14  C           1     -21.237  -8.099  -2.214  0.00  0.00     0.185 C 
BRANCH  14  15
HETATM   15  C           1     -21.397  -7.082  -3.317  0.00  0.00     0.196 C 
HETATM   16  O           1     -20.819  -7.250  -4.412  0.00  0.00    -0.646 OA
HETATM   17  O           1     -22.109  -6.070  -3.134  0.00  0.00    -0.646 OA
ENDBRANCH  14  15
BRANCH  14  18
HETATM   18  C           1     -21.619  -7.469  -0.882  0.00  0.00     0.040 C 
BRANCH  18  19
HETATM   19  C           1     -22.069  -8.557   0.085  0.00  0.00    -0.020 C 
HETATM   20  C           1     -21.107  -8.618   1.264  0.00  0.00     0.009 C 
HETATM   21  C           1     -23.471  -8.241   0.588  0.00  0.00     0.009 C 
ENDBRANCH  18  19
ENDBRANCH  14  18
ENDBRANCH   4  14
TORSDOF 5
ENDMDL
MODEL 4
REMARK VINA RESULT:      -5.1      3.383      6.089
REMARK  5 active torsions:
REMARK  status: ('A' for Active; 'I' for Inactive)
REMARK    1  A    between atoms: C_3  and  C_4 
REMARK    2  A    between atoms: C_4  and  C_5 
REMARK    3  A    between atoms: C_4  and  N_19 
REMARK    4  A    between atoms: C_5  and  C_7 
REMARK    5  A    between atoms: C_8  and  C_18 
REMARK       I    between atoms: C_18  and  N_19 
ROOT
HETATM    1  H           1     -22.489 -10.626  -2.342  0.00  0.00     0.163 HD
HETATM    2  O           1     -19.542 -10.719  -1.270  0.00  0.00    -0.271 OA
HETATM    3  C           1     -20.440 -10.745  -2.079  0.00  0.00     0.249 C 
HETATM    4  N           1     -21.737 -10.604  -1.665  0.00  0.00    -0.345 N 
ENDROOT
BRANCH   3   5
HETATM    5  C           1     -20.131 -10.934  -3.543  0.00  0.00     0.274 C 
HETATM    6  C           1     -19.142  -9.868  -3.996  0.00  0.00     0.042 C 
HETATM    7  C           1     -19.749  -8.487  -3.779  0.00  0.00     0.003 C 
HETATM    8 Se           1     -21.392  -8.330  -4.815  0.00  0.00     0.000 Se
HETATM    9  C           1     -21.769  -6.504  -4.244  0.00  0.00     0.000 C 
HETATM   10  H           1     -21.811  -9.865  -4.191  0.00  0.00     0.275 HD
HETATM   11  N           1     -21.396 -10.813  -4.340  0.00  0.00    -0.067 N 
HETATM   12  H           1     -21.183 -10.944  -5.355  0.00  0.00     0.275 HD
HETATM   13  H           1     -22.074 -11.545  -4.030  0.00  0.00     0.275 HD
ENDBRANCH   3   5
BRANCH   4  14
HETATM   14  C           1     -22.034 -10.422  -0.257  0.00  0.00     0.185 C 
BRANCH  14  15
HETATM   15  C           1     -22.432 -11.746   0.347  0.00  0.00     0.196 C 
HETATM   16  O           1     -21.562 -12.492   0.846  0.00  0.00    -0.646 OA
HETATM   17  O           1     -23.632 -12.096   0.348  0.00  0.00    -0.646 OA
ENDBRANCH  14  15
BRANCH  14  18
HETATM   18  C           1     -23.178  -9.429  -0.105  0.00  0.00     0.040 C 
BRANCH  18  19
HETATM   19  C           1     -22.646  -8.124   0.472  0.00  0.00    -0.020 C 
HETATM   20  C           1     -21.340  -8.391   1.210  0.00  0.00     0.009 C 
HETATM   21  C           1     -22.398  -7.134  -0.657  0.00  0.00     0.009 C 
ENDBRANCH  18  19
ENDBRANCH  14  18
ENDBRANCH   4  14
TORSDOF 5
ENDMDL
MODEL 5
REMARK VINA RESULT:      -5.0      1.815      2.682
REMARK  5 active torsions:
REMARK  status: ('A' for Active; 'I' for Inactive)
REMARK    1  A    between atoms: C_3  and  C_4 
REMARK    2  A    between atoms: C_4  and  C_5 
REMARK    3  A    between atoms: C_4  and  N_19 
REMARK    4  A    between atoms: C_5  and  C_7 
REMARK    5  A    between atoms: C_8  and  C_18 
REMARK       I    between atoms: C_18  and  N_19 
ROOT
HETATM    1  H           1     -21.537  -8.567  -6.513  0.00  0.00     0.163 HD
HETATM    2  O           1     -20.040  -8.738  -3.762  0.00  0.00    -0.271 OA
HETATM    3  C           1     -20.601  -9.134  -4.757  0.00  0.00     0.249 C 
HETATM    4  N           1     -21.067  -8.237  -5.680  0.00  0.00    -0.345 N 
ENDROOT
BRANCH   3   5
HETATM    5  C           1     -20.788 -10.614  -4.981  0.00  0.00     0.274 C 
HETATM    6  C           1     -19.872 -11.389  -4.044  0.00  0.00     0.042 C 
HETATM    7  C           1     -18.422 -11.013  -4.323  0.00  0.00     0.003 C 
HETATM    8 Se           1     -17.981 -11.451  -6.170  0.00  0.00     0.000 Se
HETATM    9  C           1     -16.139 -10.825  -6.050  0.00  0.00     0.000 C 
HETATM   10  H           1     -19.454 -10.691  -6.593  0.00  0.00     0.275 HD
HETATM   11  N           1     -20.448 -10.950  -6.403  0.00  0.00    -0.067 N 
HETATM   12  H           1     -20.578 -11.975  -6.559  0.00  0.00     0.275 HD
HETATM   13  H           1     -21.078 -10.418  -7.046  0.00  0.00     0.275 HD
ENDBRANCH   3   5
BRANCH   4  14
HETATM   14  C           1     -20.887  -6.814  -5.465  0.00  0.00     0.185 C 
BRANCH  14  15
HETATM   15  C           1     -22.025  -6.285  -4.626  0.00  0.00     0.196 C 
HETATM   16  O           1     -21.829  -5.978  -3.431  0.00  0.00    -0.646 OA
HETATM   17  O           1     -23.162  -6.155  -5.128  0.00  0.00    -0.646 OA
ENDBRANCH  14  15
BRANCH  14  18
HETATM   18  C           1     -20.869  -6.097  -6.808  0.00  0.00     0.040 C 
BRANCH  18  19
HETATM   19  C           1     -20.318  -4.688  -6.626  0.00  0.00    -0.020 C 
HETATM   20  C           1     -19.006  -4.555  -7.386  0.00  0.00     0.009 C 
HETATM   21  C           1     -21.322  -3.678  -7.163  0.00  0.00     0.009 C 
ENDBRANCH  18  19
ENDBRANCH  14  18
ENDBRANCH   4  14
TORSDOF 5
ENDMDL
MODEL 6
REMARK VINA RESULT:      -5.0      3.434      5.755
REMARK  5 active torsions:
REMARK  status: ('A' for Active; 'I' for Inactive)
REMARK    1  A    between atoms: C_3  and  C_4 
REMARK    2  A    between atoms: C_4  and  C_5 
REMARK    3  A    between atoms: C_4  and  N_19 
REMARK    4  A    between atoms: C_5  and  C_7 
REMARK    5  A    between atoms: C_8  and  C_18 
REMARK       I    between atoms: C_18  and  N_19 
ROOT
HETATM    1  H           1     -22.283 -10.616  -2.932  0.00  0.00     0.163 HD
HETATM    2  O           1     -19.997  -8.470  -2.872  0.00  0.00    -0.271 OA
HETATM    3  C           1     -20.811  -9.223  -3.351  0.00  0.00     0.249 C 
HETATM    4  N           1     -21.601  -9.985  -2.532  0.00  0.00    -0.345 N 
ENDROOT
BRANCH   3   5
HETATM    5  C           1     -20.957  -9.325  -4.848  0.00  0.00     0.274 C 
HETATM    6  C           1     -20.619 -10.740  -5.297  0.00  0.00     0.042 C 
HETATM    7  C           1     -19.184 -11.070  -4.903  0.00  0.00     0.003 C 
HETATM    8 Se           1     -17.970  -9.810  -5.761  0.00  0.00     0.000 Se
HETATM    9  C           1     -16.357 -10.595  -4.999  0.00  0.00     0.000 C 
HETATM   10  H           1     -19.038  -8.582  -5.238  0.00  0.00     0.275 HD
HETATM   11  N           1     -20.022  -8.355  -5.508  0.00  0.00    -0.067 N 
HETATM   12  H           1     -20.123  -8.425  -6.546  0.00  0.00     0.275 HD
HETATM   13  H           1     -20.255  -7.384  -5.201  0.00  0.00     0.275 HD
ENDBRANCH   3   5
BRANCH   4  14
HETATM   14  C           1     -21.461  -9.886  -1.092  0.00  0.00     0.185 C 
BRANCH  14  15
HETATM   15  C           1     -21.016 -11.218  -0.538  0.00  0.00     0.196 C 
HETATM   16  O           1     -20.065 -11.829  -1.070  0.00  0.00    -0.646 OA
HETATM   17  O           1     -21.599 -11.708   0.453  0.00  0.00    -0.646 OA
ENDBRANCH  14  15
BRANCH  14  18
HETATM   18  C           1     -22.801  -9.502  -0.478  0.00  0.00     0.040 C 
BRANCH  18  19
HETATM   19  C           1     -22.660  -8.179   0.263  0.00  0.00    -0.020 C 
HETATM   20  C           1     -21.485  -8.260   1.228  0.00  0.00     0.009 C 
HETATM   21  C           1     -22.418  -7.059  -0.740  0.00  0.00     0.009 C 
ENDBRANCH  18  19
ENDBRANCH  14  18
ENDBRANCH   4  14
TORSDOF 5
ENDMDL
MODEL 7
REMARK VINA RESULT:      -4.8      3.356      5.357
REMARK  5 active torsions:
REMARK  status: ('A' for Active; 'I' for Inactive)
REMARK    1  A    between atoms: C_3  and  C_4 
REMARK    2  A    between atoms: C_4  and  C_5 
REMARK    3  A    between atoms: C_4  and  N_19 
REMARK    4  A    between atoms: C_5  and  C_7 
REMARK    5  A    between atoms: C_8  and  C_18 
REMARK       I    between atoms: C_18  and  N_19 
ROOT
HETATM    1  H           1     -18.231  -8.243  -2.502  0.00  0.00     0.163 HD
HETATM    2  O           1     -19.067 -11.216  -3.052  0.00  0.00    -0.271 OA
HETATM    3  C           1     -18.364 -10.300  -2.697  0.00  0.00     0.249 C 
HETATM    4  N           1     -18.818  -9.011  -2.799  0.00  0.00    -0.345 N 
ENDROOT
BRANCH   3   5
HETATM    5  C           1     -16.989 -10.573  -2.142  0.00  0.00     0.274 C 
HETATM    6  C           1     -15.968  -9.701  -2.860  0.00  0.00     0.042 C 
HETATM    7  C           1     -15.986 -10.018  -4.350  0.00  0.00     0.003 C 
HETATM    8 Se           1     -15.539 -11.896  -4.620  0.00  0.00     0.000 Se
HETATM    9  C           1     -15.684 -11.820  -6.563  0.00  0.00     0.000 C 
HETATM   10  H           1     -16.658 -12.235  -3.372  0.00  0.00     0.275 HD
HETATM   11  N           1     -16.645 -12.019  -2.350  0.00  0.00    -0.067 N 
HETATM   12  H           1     -15.692 -12.209  -1.965  0.00  0.00     0.275 HD
HETATM   13  H           1     -17.345 -12.617  -1.856  0.00  0.00     0.275 HD
ENDBRANCH   3   5
BRANCH   4  14
HETATM   14  C           1     -20.141  -8.749  -3.332  0.00  0.00     0.185 C 
BRANCH  14  15
HETATM   15  C           1     -20.021  -8.260  -4.754  0.00  0.00     0.196 C 
HETATM   16  O           1     -19.639  -9.039  -5.653  0.00  0.00    -0.646 OA
HETATM   17  O           1     -20.305  -7.074  -5.032  0.00  0.00    -0.646 OA
ENDBRANCH  14  15
BRANCH  14  18
HETATM   18  C           1     -20.827  -7.686  -2.484  0.00  0.00     0.040 C 
BRANCH  18  19
HETATM   19  C           1     -21.332  -8.314  -1.192  0.00  0.00    -0.020 C 
HETATM   20  C           1     -22.303  -7.358  -0.510  0.00  0.00     0.009 C 
HETATM   21  C           1     -22.045  -9.621  -1.508  0.00  0.00     0.009 C 
ENDBRANCH  18  19
ENDBRANCH  14  18
ENDBRANCH   4  14
TORSDOF 5
ENDMDL
MODEL 8
REMARK VINA RESULT:      -4.7      2.598      3.999
REMARK  5 active torsions:
REMARK  status: ('A' for Active; 'I' for Inactive)
REMARK    1  A    between atoms: C_3  and  C_4 
REMARK    2  A    between atoms: C_4  and  C_5 
REMARK    3  A    between atoms: C_4  and  N_19 
REMARK    4  A    between atoms: C_5  and  C_7 
REMARK    5  A    between atoms: C_8  and  C_18 
REMARK       I    between atoms: C_18  and  N_19 
ROOT
HETATM    1  H           1     -20.248 -10.413  -2.626  0.00  0.00     0.163 HD
HETATM    2  O           1     -23.185 -10.929  -3.599  0.00  0.00    -0.271 OA
HETATM    3  C           1     -22.182 -11.078  -2.942  0.00  0.00     0.249 C 
HETATM    4  N           1     -21.088 -10.289  -3.176  0.00  0.00    -0.345 N 
ENDROOT
BRANCH   3   5
HETATM    5  C           1     -22.135 -12.133  -1.865  0.00  0.00     0.274 C 
HETATM    6  C           1     -23.178 -11.819  -0.801  0.00  0.00     0.042 C 
HETATM    7  C           1     -22.886 -10.455  -0.188  0.00  0.00     0.003 C 
HETATM    8 Se           1     -21.115 -10.474   0.625  0.00  0.00     0.000 Se
HETATM    9  C           1     -21.198  -8.624   1.236  0.00  0.00     0.000 C 
HETATM   10  H           1     -20.572 -11.211  -0.819  0.00  0.00     0.275 HD
HETATM   11  N           1     -20.772 -12.147  -1.239  0.00  0.00    -0.067 N 
HETATM   12  H           1     -20.738 -12.878  -0.492  0.00  0.00     0.275 HD
HETATM   13  H           1     -20.056 -12.363  -1.969  0.00  0.00     0.275 HD
ENDBRANCH   3   5
BRANCH   4  14
HETATM   14  C           1     -21.133  -9.275  -4.212  0.00  0.00     0.185 C 
BRANCH  14  15
HETATM   15  C           1     -20.260  -9.698  -5.367  0.00  0.00     0.196 C 
HETATM   16  O           1     -19.202  -9.080  -5.610  0.00  0.00    -0.646 OA
HETATM   17  O           1     -20.598 -10.667  -6.082  0.00  0.00    -0.646 OA
ENDBRANCH  14  15
BRANCH  14  18
HETATM   18  C           1     -20.627  -7.953  -3.649  0.00  0.00     0.040 C 
BRANCH  18  19
HETATM   19  C           1     -21.721  -6.899  -3.761  0.00  0.00    -0.020 C 
HETATM   20  C           1     -21.843  -6.152  -2.440  0.00  0.00     0.009 C 
HETATM   21  C           1     -21.367  -5.918  -4.870  0.00  0.00     0.009 C 
ENDBRANCH  18  19
ENDBRANCH  14  18
ENDBRANCH   4  14
TORSDOF 5
ENDMDL
MODEL 9
REMARK VINA RESULT:      -4.6      2.286      3.598
REMARK  5 active torsions:
REMARK  status: ('A' for Active; 'I' for Inactive)
REMARK    1  A    between atoms: C_3  and  C_4 
REMARK    2  A    between atoms: C_4  and  C_5 
REMARK    3  A    between atoms: C_4  and  N_19 
REMARK    4  A    between atoms: C_5  and  C_7 
REMARK    5  A    between atoms: C_8  and  C_18 
REMARK       I    between atoms: C_18  and  N_19 
ROOT
HETATM    1  H           1     -19.280  -7.930  -3.582  0.00  0.00     0.163 HD
HETATM    2  O           1     -18.974  -9.809  -6.075  0.00  0.00    -0.271 OA
HETATM    3  C           1     -18.708  -9.325  -5.000  0.00  0.00     0.249 C 
HETATM    4  N           1     -19.502  -8.336  -4.482  0.00  0.00    -0.345 N 
ENDROOT
BRANCH   3   5
HETATM    5  C           1     -17.504  -9.808  -4.231  0.00  0.00     0.274 C 
HETATM    6  C           1     -17.466 -11.329  -4.250  0.00  0.00     0.042 C 
HETATM    7  C           1     -18.733 -11.878  -3.606  0.00  0.00     0.003 C 
HETATM    8 Se           1     -18.848 -11.255  -1.763  0.00  0.00     0.000 Se
HETATM    9  C           1     -20.530 -12.166  -1.388  0.00  0.00     0.000 C 
HETATM   10  H           1     -18.462  -9.704  -2.372  0.00  0.00     0.275 HD
HETATM   11  N           1     -17.593  -9.328  -2.812  0.00  0.00    -0.067 N 
HETATM   12  H           1     -16.759  -9.661  -2.279  0.00  0.00     0.275 HD
HETATM   13  H           1     -17.618  -8.283  -2.800  0.00  0.00     0.275 HD
ENDBRANCH   3   5
BRANCH   4  14
HETATM   14  C           1     -20.660  -7.873  -5.222  0.00  0.00     0.185 C 
BRANCH  14  15
HETATM   15  C           1     -20.320  -6.584  -5.929  0.00  0.00     0.196 C 
HETATM   16  O           1     -20.631  -5.488  -5.416  0.00  0.00    -0.646 OA
HETATM   17  O           1     -19.727  -6.614  -7.030  0.00  0.00    -0.646 OA
ENDBRANCH  14  15
BRANCH  14  18
HETATM   18  C           1     -21.814  -7.635  -4.257  0.00  0.00     0.040 C 
BRANCH  18  19
HETATM   19  C           1     -21.270  -7.461  -2.845  0.00  0.00    -0.020 C 
HETATM   20  C           1     -21.849  -6.193  -2.232  0.00  0.00     0.009 C 
HETATM   21  C           1     -21.667  -8.662  -1.998  0.00  0.00     0.009 C 
ENDBRANCH  18  19
ENDBRANCH  14  18
ENDBRANCH   4  14
TORSDOF 5
ENDMDL
