MODEL 1
REMARK VINA RESULT:      -8.1      0.000      0.000
REMARK  12 active torsions:
REMARK  status: ('A' for Active; 'I' for Inactive)
REMARK    1  A    between atoms: C_2  and  C_4 
REMARK    2  A    between atoms: C_4  and  C_5 
REMARK    3  A    between atoms: C_5  and  C_6 
REMARK    4  A    between atoms: C_6  and  C_7 
REMARK    5  A    between atoms: C_6  and  N_10 
REMARK       I    between atoms: N_10  and  C_11 
REMARK    6  A    between atoms: C_11  and  C_12 
REMARK    7  A    between atoms: C_12  and  C_13 
REMARK    8  A    between atoms: C_12  and  N_25 
REMARK    9  A    between atoms: C_13  and  C_14 
REMARK   10  A    between atoms: C_17  and  O_18 
REMARK   11  A    between atoms: O_18  and  P_19 
REMARK   12  A    between atoms: P_19  and  O_20 
ROOT
HETATM    1  C           1     -21.472  -6.050  -6.756  0.00  0.00     0.278 C 
ENDROOT
BRANCH   1   2
HETATM    2  C           1     -20.799  -7.135  -5.952  0.00  0.00     0.249 C 
HETATM    3  N           1     -21.520  -7.852  -5.034  0.00  0.00    -0.345 N 
HETATM    4  H           1     -22.502  -7.654  -4.895  0.00  0.00     0.163 HD
HETATM    5  O           1     -19.627  -7.371  -6.118  0.00  0.00    -0.271 OA
BRANCH   3   6
HETATM    6  C           1     -20.873  -8.895  -4.261  0.00  0.00     0.186 C 
BRANCH   6   7
HETATM    7  C           1     -21.396  -8.868  -2.831  0.00  0.00     0.046 C 
BRANCH   7   8
HETATM    8  C           1     -20.901  -7.608  -2.133  0.00  0.00     0.116 C 
BRANCH   8   9
HETATM    9  C           1     -22.060  -6.670  -1.902  0.00  0.00     0.172 C 
HETATM   10  O           1     -22.634  -6.646  -0.793  0.00  0.00    -0.648 OA
HETATM   11  O           1     -22.445  -5.915  -2.822  0.00  0.00    -0.648 OA
ENDBRANCH   8   9
ENDBRANCH   7   8
ENDBRANCH   6   7
BRANCH   6  12
HETATM   12  C           1     -21.175 -10.238  -4.880  0.00  0.00     0.196 C 
HETATM   13  O           1     -22.025 -10.990  -4.359  0.00  0.00    -0.646 OA
HETATM   14  O           1     -20.572 -10.598  -5.914  0.00  0.00    -0.646 OA
ENDBRANCH   6  12
ENDBRANCH   3   6
ENDBRANCH   1   2
BRANCH   1  15
HETATM   15  C           1     -20.414  -5.173  -7.410  0.00  0.00     0.081 C 
BRANCH  15  16
HETATM   16  C           1     -20.988  -4.519  -8.628  0.00  0.00    -0.056 A 
HETATM   17  C           1     -20.224  -4.417  -9.791  0.00  0.00     0.010 A 
HETATM   18  C           1     -20.759  -3.808 -10.926  0.00  0.00     0.038 A 
HETATM   19  C           1     -22.058  -3.301 -10.898  0.00  0.00     0.081 A 
HETATM   20  C           1     -22.821  -3.402  -9.736  0.00  0.00     0.038 A 
HETATM   21  C           1     -22.287  -4.011  -8.601  0.00  0.00     0.010 A 
BRANCH  19  22
HETATM   22  O           1     -22.577  -2.708 -12.001  0.00  0.00    -0.247 OA
BRANCH  22  23
HETATM   23  P           1     -23.789  -3.455 -12.763  0.00  0.00     0.411 P 
HETATM   24  O           1     -25.080  -2.991 -12.208  0.00  0.00    -0.624 OA
HETATM   25  O           1     -23.731  -3.141 -14.208  0.00  0.00    -0.624 OA
BRANCH  23  26
HETATM   26  O           1     -23.656  -5.050 -12.552  0.00  0.00    -0.300 OA
HETATM   27  H           1     -22.795  -5.177 -12.188  0.00  0.00     0.223 HD
ENDBRANCH  23  26
ENDBRANCH  22  23
ENDBRANCH  19  22
ENDBRANCH  15  16
ENDBRANCH   1  15
BRANCH   1  28
HETATM   28  N           1     -22.324  -5.212  -5.849  0.00  0.00    -0.066 N 
HETATM   29  H           1     -23.315  -5.545  -5.897  0.00  0.00     0.275 HD
HETATM   30  H           1     -21.977  -5.297  -4.868  0.00  0.00     0.275 HD
HETATM   31  H           1     -22.277  -4.213  -6.152  0.00  0.00     0.275 HD
ENDBRANCH   1  28
TORSDOF 12
ENDMDL
MODEL 2
REMARK VINA RESULT:      -8.1      1.614      3.045
REMARK  12 active torsions:
REMARK  status: ('A' for Active; 'I' for Inactive)
REMARK    1  A    between atoms: C_2  and  C_4 
REMARK    2  A    between atoms: C_4  and  C_5 
REMARK    3  A    between atoms: C_5  and  C_6 
REMARK    4  A    between atoms: C_6  and  C_7 
REMARK    5  A    between atoms: C_6  and  N_10 
REMARK       I    between atoms: N_10  and  C_11 
REMARK    6  A    between atoms: C_11  and  C_12 
REMARK    7  A    between atoms: C_12  and  C_13 
REMARK    8  A    between atoms: C_12  and  N_25 
REMARK    9  A    between atoms: C_13  and  C_14 
REMARK   10  A    between atoms: C_17  and  O_18 
REMARK   11  A    between atoms: O_18  and  P_19 
REMARK   12  A    between atoms: P_19  and  O_20 
ROOT
HETATM    1  C           1     -20.924  -4.856  -6.439  0.00  0.00     0.278 C 
ENDROOT
BRANCH   1   2
HETATM    2  C           1     -21.652  -5.805  -5.518  0.00  0.00     0.249 C 
HETATM    3  N           1     -20.944  -6.603  -4.659  0.00  0.00    -0.345 N 
HETATM    4  H           1     -19.933  -6.557  -4.642  0.00  0.00     0.163 HD
HETATM    5  O           1     -22.858  -5.860  -5.538  0.00  0.00    -0.271 OA
BRANCH   3   6
HETATM    6  C           1     -21.643  -7.514  -3.774  0.00  0.00     0.186 C 
BRANCH   6   7
HETATM    7  C           1     -20.927  -8.858  -3.756  0.00  0.00     0.046 C 
BRANCH   7   8
HETATM    8  C           1     -19.611  -8.742  -4.516  0.00  0.00     0.116 C 
BRANCH   8   9
HETATM    9  C           1     -18.493  -9.309  -3.676  0.00  0.00     0.172 C 
HETATM   10  O           1     -17.371  -9.515  -4.186  0.00  0.00    -0.648 OA
HETATM   11  O           1     -18.689  -9.571  -2.470  0.00  0.00    -0.648 OA
ENDBRANCH   8   9
ENDBRANCH   7   8
ENDBRANCH   6   7
BRANCH   6  12
HETATM   12  C           1     -21.668  -6.939  -2.380  0.00  0.00     0.196 C 
HETATM   13  O           1     -21.052  -7.513  -1.456  0.00  0.00    -0.646 OA
HETATM   14  O           1     -22.304  -5.889  -2.148  0.00  0.00    -0.646 OA
ENDBRANCH   6  12
ENDBRANCH   3   6
ENDBRANCH   1   2
BRANCH   1  15
HETATM   15  C           1     -20.662  -5.544  -7.771  0.00  0.00     0.081 C 
BRANCH  15  16
HETATM   16  C           1     -21.254  -4.730  -8.880  0.00  0.00    -0.056 A 
HETATM   17  C           1     -22.579  -4.302  -8.799  0.00  0.00     0.010 A 
HETATM   18  C           1     -23.131  -3.544  -9.832  0.00  0.00     0.038 A 
HETATM   19  C           1     -22.358  -3.214 -10.945  0.00  0.00     0.081 A 
HETATM   20  C           1     -21.034  -3.643 -11.026  0.00  0.00     0.038 A 
HETATM   21  C           1     -20.481  -4.401  -9.993  0.00  0.00     0.010 A 
BRANCH  19  22
HETATM   22  O           1     -22.895  -2.479 -11.948  0.00  0.00    -0.247 OA
BRANCH  22  23
HETATM   23  P           1     -23.920  -3.210 -12.959  0.00  0.00     0.411 P 
HETATM   24  O           1     -25.310  -2.876 -12.577  0.00  0.00    -0.624 OA
HETATM   25  O           1     -23.662  -2.749 -14.342  0.00  0.00    -0.624 OA
BRANCH  23  26
HETATM   26  O           1     -23.709  -4.809 -12.876  0.00  0.00    -0.300 OA
HETATM   27  H           1     -24.280  -5.165 -13.536  0.00  0.00     0.223 HD
ENDBRANCH  23  26
ENDBRANCH  22  23
ENDBRANCH  19  22
ENDBRANCH  15  16
ENDBRANCH   1  15
BRANCH   1  28
HETATM   28  N           1     -19.619  -4.459  -5.815  0.00  0.00    -0.066 N 
HETATM   29  H           1     -19.142  -3.756  -6.425  0.00  0.00     0.275 HD
HETATM   30  H           1     -19.795  -4.041  -4.875  0.00  0.00     0.275 HD
HETATM   31  H           1     -19.010  -5.303  -5.715  0.00  0.00     0.275 HD
ENDBRANCH   1  28
TORSDOF 12
ENDMDL
MODEL 3
REMARK VINA RESULT:      -8.1      1.252      1.638
REMARK  12 active torsions:
REMARK  status: ('A' for Active; 'I' for Inactive)
REMARK    1  A    between atoms: C_2  and  C_4 
REMARK    2  A    between atoms: C_4  and  C_5 
REMARK    3  A    between atoms: C_5  and  C_6 
REMARK    4  A    between atoms: C_6  and  C_7 
REMARK    5  A    between atoms: C_6  and  N_10 
REMARK       I    between atoms: N_10  and  C_11 
REMARK    6  A    between atoms: C_11  and  C_12 
REMARK    7  A    between atoms: C_12  and  C_13 
REMARK    8  A    between atoms: C_12  and  N_25 
REMARK    9  A    between atoms: C_13  and  C_14 
REMARK   10  A    between atoms: C_17  and  O_18 
REMARK   11  A    between atoms: O_18  and  P_19 
REMARK   12  A    between atoms: P_19  and  O_20 
ROOT
HETATM    1  C           1     -21.655  -4.977  -7.057  0.00  0.00     0.278 C 
ENDROOT
BRANCH   1   2
HETATM    2  C           1     -20.976  -5.708  -5.924  0.00  0.00     0.249 C 
HETATM    3  N           1     -21.058  -7.073  -5.845  0.00  0.00    -0.345 N 
HETATM    4  H           1     -21.573  -7.591  -6.544  0.00  0.00     0.163 HD
HETATM    5  O           1     -20.361  -5.090  -5.090  0.00  0.00    -0.271 OA
BRANCH   3   6
HETATM    6  C           1     -20.405  -7.775  -4.756  0.00  0.00     0.186 C 
BRANCH   6   7
HETATM    7  C           1     -21.445  -8.202  -3.729  0.00  0.00     0.046 C 
BRANCH   7   8
HETATM    8  C           1     -21.051  -7.673  -2.356  0.00  0.00     0.116 C 
BRANCH   8   9
HETATM    9  C           1     -22.109  -6.719  -1.860  0.00  0.00     0.172 C 
HETATM   10  O           1     -22.514  -5.795  -2.596  0.00  0.00    -0.648 OA
HETATM   11  O           1     -22.582  -6.856  -0.710  0.00  0.00    -0.648 OA
ENDBRANCH   8   9
ENDBRANCH   7   8
ENDBRANCH   6   7
BRANCH   6  12
HETATM   12  C           1     -19.702  -8.996  -5.297  0.00  0.00     0.196 C 
HETATM   13  O           1     -20.124 -10.137  -5.012  0.00  0.00    -0.646 OA
HETATM   14  O           1     -18.698  -8.865  -6.029  0.00  0.00    -0.646 OA
ENDBRANCH   6  12
ENDBRANCH   3   6
ENDBRANCH   1   2
BRANCH   1  15
HETATM   15  C           1     -20.992  -5.353  -8.374  0.00  0.00     0.081 C 
BRANCH  15  16
HETATM   16  C           1     -21.518  -4.476  -9.468  0.00  0.00    -0.056 A 
HETATM   17  C           1     -20.635  -3.881 -10.369  0.00  0.00     0.010 A 
HETATM   18  C           1     -21.125  -3.064 -11.388  0.00  0.00     0.038 A 
HETATM   19  C           1     -22.498  -2.842 -11.505  0.00  0.00     0.081 A 
HETATM   20  C           1     -23.379  -3.436 -10.603  0.00  0.00     0.038 A 
HETATM   21  C           1     -22.890  -4.253  -9.585  0.00  0.00     0.010 A 
BRANCH  19  22
HETATM   22  O           1     -22.973  -2.047 -12.494  0.00  0.00    -0.247 OA
BRANCH  22  23
HETATM   23  P           1     -23.434  -2.748 -13.874  0.00  0.00     0.411 P 
HETATM   24  O           1     -24.264  -3.935 -13.570  0.00  0.00    -0.624 OA
HETATM   25  O           1     -24.220  -1.786 -14.678  0.00  0.00    -0.624 OA
BRANCH  23  26
HETATM   26  O           1     -22.128  -3.206 -14.707  0.00  0.00    -0.300 OA
HETATM   27  H           1     -22.188  -2.745 -15.527  0.00  0.00     0.223 HD
ENDBRANCH  23  26
ENDBRANCH  22  23
ENDBRANCH  19  22
ENDBRANCH  15  16
ENDBRANCH   1  15
BRANCH   1  28
HETATM   28  N           1     -21.533  -3.497  -6.840  0.00  0.00    -0.066 N 
HETATM   29  H           1     -21.168  -3.316  -5.877  0.00  0.00     0.275 HD
HETATM   30  H           1     -20.874  -3.096  -7.543  0.00  0.00     0.275 HD
HETATM   31  H           1     -22.472  -3.052  -6.946  0.00  0.00     0.275 HD
ENDBRANCH   1  28
TORSDOF 12
ENDMDL
MODEL 4
REMARK VINA RESULT:      -7.7      3.481      9.452
REMARK  12 active torsions:
REMARK  status: ('A' for Active; 'I' for Inactive)
REMARK    1  A    between atoms: C_2  and  C_4 
REMARK    2  A    between atoms: C_4  and  C_5 
REMARK    3  A    between atoms: C_5  and  C_6 
REMARK    4  A    between atoms: C_6  and  C_7 
REMARK    5  A    between atoms: C_6  and  N_10 
REMARK       I    between atoms: N_10  and  C_11 
REMARK    6  A    between atoms: C_11  and  C_12 
REMARK    7  A    between atoms: C_12  and  C_13 
REMARK    8  A    between atoms: C_12  and  N_25 
REMARK    9  A    between atoms: C_13  and  C_14 
REMARK   10  A    between atoms: C_17  and  O_18 
REMARK   11  A    between atoms: O_18  and  P_19 
REMARK   12  A    between atoms: P_19  and  O_20 
ROOT
HETATM    1  C           1     -21.037  -5.647  -7.204  0.00  0.00     0.278 C 
ENDROOT
BRANCH   1   2
HETATM    2  C           1     -21.700  -4.558  -8.012  0.00  0.00     0.249 C 
HETATM    3  N           1     -22.185  -4.835  -9.263  0.00  0.00    -0.345 N 
HETATM    4  H           1     -22.100  -5.767  -9.645  0.00  0.00     0.163 HD
HETATM    5  O           1     -21.802  -3.445  -7.556  0.00  0.00    -0.271 OA
BRANCH   3   6
HETATM    6  C           1     -22.822  -3.788 -10.039  0.00  0.00     0.186 C 
BRANCH   6   7
HETATM    7  C           1     -22.535  -4.005 -11.518  0.00  0.00     0.046 C 
BRANCH   7   8
HETATM    8  C           1     -22.722  -2.693 -12.270  0.00  0.00     0.116 C 
BRANCH   8   9
HETATM    9  C           1     -23.766  -2.871 -13.344  0.00  0.00     0.172 C 
HETATM   10  O           1     -23.429  -2.892 -14.547  0.00  0.00    -0.648 OA
HETATM   11  O           1     -24.970  -3.000 -13.030  0.00  0.00    -0.648 OA
ENDBRANCH   8   9
ENDBRANCH   7   8
ENDBRANCH   6   7
BRANCH   6  12
HETATM   12  C           1     -24.313  -3.827  -9.805  0.00  0.00     0.196 C 
HETATM   13  O           1     -24.928  -4.912  -9.872  0.00  0.00    -0.646 OA
HETATM   14  O           1     -24.932  -2.772  -9.545  0.00  0.00    -0.646 OA
ENDBRANCH   6  12
ENDBRANCH   3   6
ENDBRANCH   1   2
BRANCH   1  15
HETATM   15  C           1     -20.884  -5.187  -5.761  0.00  0.00     0.081 C 
BRANCH  15  16
HETATM   16  C           1     -21.162  -6.333  -4.839  0.00  0.00    -0.056 A 
HETATM   17  C           1     -21.270  -7.628  -5.348  0.00  0.00     0.010 A 
HETATM   18  C           1     -21.530  -8.695  -4.489  0.00  0.00     0.038 A 
HETATM   19  C           1     -21.681  -8.469  -3.120  0.00  0.00     0.081 A 
HETATM   20  C           1     -21.573  -7.175  -2.612  0.00  0.00     0.038 A 
HETATM   21  C           1     -21.314  -6.107  -3.471  0.00  0.00     0.010 A 
BRANCH  19  22
HETATM   22  O           1     -21.934  -9.506  -2.286  0.00  0.00    -0.247 OA
BRANCH  22  23
HETATM   23  P           1     -20.746 -10.001  -1.310  0.00  0.00     0.411 P 
HETATM   24  O           1     -19.440  -9.775  -1.969  0.00  0.00    -0.624 OA
HETATM   25  O           1     -20.800  -9.238  -0.043  0.00  0.00    -0.624 OA
BRANCH  23  26
HETATM   26  O           1     -20.926 -11.575  -0.999  0.00  0.00    -0.300 OA
HETATM   27  H           1     -21.770 -11.799  -1.353  0.00  0.00     0.223 HD
ENDBRANCH  23  26
ENDBRANCH  22  23
ENDBRANCH  19  22
ENDBRANCH  15  16
ENDBRANCH   1  15
BRANCH   1  28
HETATM   28  N           1     -19.683  -5.942  -7.781  0.00  0.00    -0.066 N 
HETATM   29  H           1     -19.271  -5.063  -8.169  0.00  0.00     0.275 HD
HETATM   30  H           1     -19.059  -6.317  -7.032  0.00  0.00     0.275 HD
HETATM   31  H           1     -19.777  -6.649  -8.545  0.00  0.00     0.275 HD
ENDBRANCH   1  28
TORSDOF 12
ENDMDL
MODEL 5
REMARK VINA RESULT:      -7.4      1.044      1.544
REMARK  12 active torsions:
REMARK  status: ('A' for Active; 'I' for Inactive)
REMARK    1  A    between atoms: C_2  and  C_4 
REMARK    2  A    between atoms: C_4  and  C_5 
REMARK    3  A    between atoms: C_5  and  C_6 
REMARK    4  A    between atoms: C_6  and  C_7 
REMARK    5  A    between atoms: C_6  and  N_10 
REMARK       I    between atoms: N_10  and  C_11 
REMARK    6  A    between atoms: C_11  and  C_12 
REMARK    7  A    between atoms: C_12  and  C_13 
REMARK    8  A    between atoms: C_12  and  N_25 
REMARK    9  A    between atoms: C_13  and  C_14 
REMARK   10  A    between atoms: C_17  and  O_18 
REMARK   11  A    between atoms: O_18  and  P_19 
REMARK   12  A    between atoms: P_19  and  O_20 
ROOT
HETATM    1  C           1     -21.377  -6.467  -6.149  0.00  0.00     0.278 C 
ENDROOT
BRANCH   1   2
HETATM    2  C           1     -20.537  -7.506  -5.449  0.00  0.00     0.249 C 
HETATM    3  N           1     -20.940  -8.012  -4.242  0.00  0.00    -0.345 N 
HETATM    4  H           1     -21.801  -7.689  -3.819  0.00  0.00     0.163 HD
HETATM    5  O           1     -19.510  -7.892  -5.953  0.00  0.00    -0.271 OA
BRANCH   3   6
HETATM    6  C           1     -20.132  -9.011  -3.569  0.00  0.00     0.186 C 
BRANCH   6   7
HETATM    7  C           1     -20.072  -8.700  -2.080  0.00  0.00     0.046 C 
BRANCH   7   8
HETATM    8  C           1     -20.873  -7.436  -1.793  0.00  0.00     0.116 C 
BRANCH   8   9
HETATM    9  C           1     -21.772  -7.669  -0.603  0.00  0.00     0.172 C 
HETATM   10  O           1     -21.402  -8.421   0.322  0.00  0.00    -0.648 OA
HETATM   11  O           1     -22.887  -7.106  -0.545  0.00  0.00    -0.648 OA
ENDBRANCH   8   9
ENDBRANCH   7   8
ENDBRANCH   6   7
BRANCH   6  12
HETATM   12  C           1     -20.748 -10.374  -3.773  0.00  0.00     0.196 C 
HETATM   13  O           1     -20.241 -11.173  -4.589  0.00  0.00    -0.646 OA
HETATM   14  O           1     -21.765 -10.703  -3.125  0.00  0.00    -0.646 OA
ENDBRANCH   6  12
ENDBRANCH   3   6
ENDBRANCH   1   2
BRANCH   1  15
HETATM   15  C           1     -20.498  -5.293  -6.558  0.00  0.00     0.081 C 
BRANCH  15  16
HETATM   16  C           1     -21.001  -4.714  -7.843  0.00  0.00    -0.056 A 
HETATM   17  C           1     -20.206  -4.765  -8.988  0.00  0.00     0.010 A 
HETATM   18  C           1     -20.675  -4.224 -10.186  0.00  0.00     0.038 A 
HETATM   19  C           1     -21.938  -3.634 -10.238  0.00  0.00     0.081 A 
HETATM   20  C           1     -22.731  -3.583  -9.093  0.00  0.00     0.038 A 
HETATM   21  C           1     -22.263  -4.123  -7.895  0.00  0.00     0.010 A 
BRANCH  19  22
HETATM   22  O           1     -22.392  -3.109 -11.402  0.00  0.00    -0.247 OA
BRANCH  22  23
HETATM   23  P           1     -23.748  -3.721 -12.032  0.00  0.00     0.411 P 
HETATM   24  O           1     -23.832  -3.359 -13.464  0.00  0.00    -0.624 OA
HETATM   25  O           1     -23.734  -5.194 -11.893  0.00  0.00    -0.624 OA
BRANCH  23  26
HETATM   26  O           1     -25.025  -3.118 -11.249  0.00  0.00    -0.300 OA
HETATM   27  H           1     -25.374  -2.458 -11.824  0.00  0.00     0.223 HD
ENDBRANCH  23  26
ENDBRANCH  22  23
ENDBRANCH  19  22
ENDBRANCH  15  16
ENDBRANCH   1  15
BRANCH   1  28
HETATM   28  N           1     -22.452  -5.986  -5.219  0.00  0.00    -0.066 N 
HETATM   29  H           1     -22.470  -6.591  -4.366  0.00  0.00     0.275 HD
HETATM   30  H           1     -22.256  -4.998  -4.941  0.00  0.00     0.275 HD
HETATM   31  H           1     -23.378  -6.036  -5.702  0.00  0.00     0.275 HD
ENDBRANCH   1  28
TORSDOF 12
ENDMDL
MODEL 6
REMARK VINA RESULT:      -7.1      2.586      4.162
REMARK  12 active torsions:
REMARK  status: ('A' for Active; 'I' for Inactive)
REMARK    1  A    between atoms: C_2  and  C_4 
REMARK    2  A    between atoms: C_4  and  C_5 
REMARK    3  A    between atoms: C_5  and  C_6 
REMARK    4  A    between atoms: C_6  and  C_7 
REMARK    5  A    between atoms: C_6  and  N_10 
REMARK       I    between atoms: N_10  and  C_11 
REMARK    6  A    between atoms: C_11  and  C_12 
REMARK    7  A    between atoms: C_12  and  C_13 
REMARK    8  A    between atoms: C_12  and  N_25 
REMARK    9  A    between atoms: C_13  and  C_14 
REMARK   10  A    between atoms: C_17  and  O_18 
REMARK   11  A    between atoms: O_18  and  P_19 
REMARK   12  A    between atoms: P_19  and  O_20 
ROOT
HETATM    1  C           1     -21.559  -6.730  -5.563  0.00  0.00     0.278 C 
ENDROOT
BRANCH   1   2
HETATM    2  C           1     -20.900  -8.049  -5.239  0.00  0.00     0.249 C 
HETATM    3  N           1     -19.541  -8.178  -5.343  0.00  0.00    -0.345 N 
HETATM    4  H           1     -18.978  -7.390  -5.637  0.00  0.00     0.163 HD
HETATM    5  O           1     -21.571  -8.989  -4.889  0.00  0.00    -0.271 OA
BRANCH   3   6
HETATM    6  C           1     -18.908  -9.445  -5.032  0.00  0.00     0.186 C 
BRANCH   6   7
HETATM    7  C           1     -17.874  -9.774  -6.100  0.00  0.00     0.046 C 
BRANCH   7   8
HETATM    8  C           1     -18.019 -11.232  -6.516  0.00  0.00     0.116 C 
BRANCH   8   9
HETATM    9  C           1     -16.662 -11.891  -6.530  0.00  0.00     0.172 C 
HETATM   10  O           1     -15.741 -11.440  -5.817  0.00  0.00    -0.648 OA
HETATM   11  O           1     -16.459 -12.888  -7.256  0.00  0.00    -0.648 OA
ENDBRANCH   8   9
ENDBRANCH   7   8
ENDBRANCH   6   7
BRANCH   6  12
HETATM   12  C           1     -18.229  -9.350  -3.688  0.00  0.00     0.196 C 
HETATM   13  O           1     -18.911  -9.204  -2.651  0.00  0.00    -0.646 OA
HETATM   14  O           1     -16.983  -9.415  -3.611  0.00  0.00    -0.646 OA
ENDBRANCH   6  12
ENDBRANCH   3   6
ENDBRANCH   1   2
BRANCH   1  15
HETATM   15  C           1     -20.509  -5.746  -6.057  0.00  0.00     0.081 C 
BRANCH  15  16
HETATM   16  C           1     -20.993  -5.082  -7.308  0.00  0.00    -0.056 A 
HETATM   17  C           1     -20.207  -5.109  -8.460  0.00  0.00     0.010 A 
HETATM   18  C           1     -20.658  -4.491  -9.627  0.00  0.00     0.038 A 
HETATM   19  C           1     -21.895  -3.846  -9.641  0.00  0.00     0.081 A 
HETATM   20  C           1     -22.680  -3.819  -8.489  0.00  0.00     0.038 A 
HETATM   21  C           1     -22.229  -4.437  -7.322  0.00  0.00     0.010 A 
BRANCH  19  22
HETATM   22  O           1     -22.333  -3.245 -10.773  0.00  0.00    -0.247 OA
BRANCH  22  23
HETATM   23  P           1     -23.590  -3.903 -11.544  0.00  0.00     0.411 P 
HETATM   24  O           1     -23.712  -5.327 -11.159  0.00  0.00    -0.624 OA
HETATM   25  O           1     -24.828  -3.182 -11.175  0.00  0.00    -0.624 OA
BRANCH  23  26
HETATM   26  O           1     -23.359  -3.796 -13.139  0.00  0.00    -0.300 OA
HETATM   27  H           1     -23.580  -2.907 -13.358  0.00  0.00     0.223 HD
ENDBRANCH  23  26
ENDBRANCH  22  23
ENDBRANCH  19  22
ENDBRANCH  15  16
ENDBRANCH   1  15
BRANCH   1  28
HETATM   28  N           1     -22.216  -6.184  -4.329  0.00  0.00    -0.066 N 
HETATM   29  H           1     -23.056  -6.762  -4.098  0.00  0.00     0.275 HD
HETATM   30  H           1     -21.542  -6.218  -3.532  0.00  0.00     0.275 HD
HETATM   31  H           1     -22.508  -5.196  -4.499  0.00  0.00     0.275 HD
ENDBRANCH   1  28
TORSDOF 12
ENDMDL
MODEL 7
REMARK VINA RESULT:      -6.9      1.684      3.346
REMARK  12 active torsions:
REMARK  status: ('A' for Active; 'I' for Inactive)
REMARK    1  A    between atoms: C_2  and  C_4 
REMARK    2  A    between atoms: C_4  and  C_5 
REMARK    3  A    between atoms: C_5  and  C_6 
REMARK    4  A    between atoms: C_6  and  C_7 
REMARK    5  A    between atoms: C_6  and  N_10 
REMARK       I    between atoms: N_10  and  C_11 
REMARK    6  A    between atoms: C_11  and  C_12 
REMARK    7  A    between atoms: C_12  and  C_13 
REMARK    8  A    between atoms: C_12  and  N_25 
REMARK    9  A    between atoms: C_13  and  C_14 
REMARK   10  A    between atoms: C_17  and  O_18 
REMARK   11  A    between atoms: O_18  and  P_19 
REMARK   12  A    between atoms: P_19  and  O_20 
ROOT
HETATM    1  C           1     -20.201  -6.017  -5.735  0.00  0.00     0.278 C 
ENDROOT
BRANCH   1   2
HETATM    2  C           1     -21.233  -6.597  -4.798  0.00  0.00     0.249 C 
HETATM    3  N           1     -20.847  -7.103  -3.585  0.00  0.00    -0.345 N 
HETATM    4  H           1     -19.872  -7.088  -3.317  0.00  0.00     0.163 HD
HETATM    5  O           1     -22.396  -6.615  -5.118  0.00  0.00    -0.271 OA
BRANCH   3   6
HETATM    6  C           1     -21.839  -7.661  -2.685  0.00  0.00     0.186 C 
BRANCH   6   7
HETATM    7  C           1     -21.251  -8.865  -1.962  0.00  0.00     0.046 C 
BRANCH   7   8
HETATM    8  C           1     -20.829  -9.914  -2.983  0.00  0.00     0.116 C 
BRANCH   8   9
HETATM    9  C           1     -19.330 -10.083  -2.942  0.00  0.00     0.172 C 
HETATM   10  O           1     -18.602  -9.126  -2.603  0.00  0.00    -0.648 OA
HETATM   11  O           1     -18.817 -11.181  -3.248  0.00  0.00    -0.648 OA
ENDBRANCH   8   9
ENDBRANCH   7   8
ENDBRANCH   6   7
BRANCH   6  12
HETATM   12  C           1     -22.242  -6.616  -1.674  0.00  0.00     0.196 C 
HETATM   13  O           1     -22.029  -5.407  -1.906  0.00  0.00    -0.646 OA
HETATM   14  O           1     -22.789  -6.960  -0.604  0.00  0.00    -0.646 OA
ENDBRANCH   6  12
ENDBRANCH   3   6
ENDBRANCH   1   2
BRANCH   1  15
HETATM   15  C           1     -20.417  -4.516  -5.861  0.00  0.00     0.081 C 
BRANCH  15  16
HETATM   16  C           1     -20.928  -4.198  -7.232  0.00  0.00    -0.056 A 
HETATM   17  C           1     -22.295  -4.017  -7.442  0.00  0.00     0.010 A 
HETATM   18  C           1     -22.771  -3.721  -8.720  0.00  0.00     0.038 A 
HETATM   19  C           1     -21.880  -3.605  -9.786  0.00  0.00     0.081 A 
HETATM   20  C           1     -20.513  -3.787  -9.576  0.00  0.00     0.038 A 
HETATM   21  C           1     -20.037  -4.083  -8.299  0.00  0.00     0.010 A 
BRANCH  19  22
HETATM   22  O           1     -22.343  -3.318 -11.027  0.00  0.00    -0.247 OA
BRANCH  22  23
HETATM   23  P           1     -23.700  -4.044 -11.516  0.00  0.00     0.411 P 
HETATM   24  O           1     -23.805  -5.374 -10.877  0.00  0.00    -0.624 OA
HETATM   25  O           1     -24.866  -3.217 -11.134  0.00  0.00    -0.624 OA
BRANCH  23  26
HETATM   26  O           1     -23.667  -4.220 -13.121  0.00  0.00    -0.300 OA
HETATM   27  H           1     -23.887  -5.125 -13.271  0.00  0.00     0.223 HD
ENDBRANCH  23  26
ENDBRANCH  22  23
ENDBRANCH  19  22
ENDBRANCH  15  16
ENDBRANCH   1  15
BRANCH   1  28
HETATM   28  N           1     -20.337  -6.657  -7.085  0.00  0.00    -0.066 N 
HETATM   29  H           1     -20.581  -5.927  -7.793  0.00  0.00     0.275 HD
HETATM   30  H           1     -19.433  -7.109  -7.349  0.00  0.00     0.275 HD
HETATM   31  H           1     -21.093  -7.378  -7.053  0.00  0.00     0.275 HD
ENDBRANCH   1  28
TORSDOF 12
ENDMDL
MODEL 8
REMARK VINA RESULT:      -6.8      1.493      2.169
REMARK  12 active torsions:
REMARK  status: ('A' for Active; 'I' for Inactive)
REMARK    1  A    between atoms: C_2  and  C_4 
REMARK    2  A    between atoms: C_4  and  C_5 
REMARK    3  A    between atoms: C_5  and  C_6 
REMARK    4  A    between atoms: C_6  and  C_7 
REMARK    5  A    between atoms: C_6  and  N_10 
REMARK       I    between atoms: N_10  and  C_11 
REMARK    6  A    between atoms: C_11  and  C_12 
REMARK    7  A    between atoms: C_12  and  C_13 
REMARK    8  A    between atoms: C_12  and  N_25 
REMARK    9  A    between atoms: C_13  and  C_14 
REMARK   10  A    between atoms: C_17  and  O_18 
REMARK   11  A    between atoms: O_18  and  P_19 
REMARK   12  A    between atoms: P_19  and  O_20 
ROOT
HETATM    1  C           1     -21.459  -6.210  -5.519  0.00  0.00     0.278 C 
ENDROOT
BRANCH   1   2
HETATM    2  C           1     -20.485  -7.363  -5.506  0.00  0.00     0.249 C 
HETATM    3  N           1     -20.769  -8.490  -4.781  0.00  0.00    -0.345 N 
HETATM    4  H           1     -21.631  -8.550  -4.255  0.00  0.00     0.163 HD
HETATM    5  O           1     -19.456  -7.292  -6.134  0.00  0.00    -0.271 OA
BRANCH   3   6
HETATM    6  C           1     -19.833  -9.598  -4.769  0.00  0.00     0.186 C 
BRANCH   6   7
HETATM    7  C           1     -19.603 -10.055  -3.335  0.00  0.00     0.046 C 
BRANCH   7   8
HETATM    8  C           1     -20.911  -9.969  -2.559  0.00  0.00     0.116 C 
BRANCH   8   9
HETATM    9  C           1     -20.788  -8.923  -1.477  0.00  0.00     0.172 C 
HETATM   10  O           1     -20.784  -7.711  -1.778  0.00  0.00    -0.648 OA
HETATM   11  O           1     -20.692  -9.272  -0.280  0.00  0.00    -0.648 OA
ENDBRANCH   8   9
ENDBRANCH   7   8
ENDBRANCH   6   7
BRANCH   6  12
HETATM   12  C           1     -20.397 -10.741  -5.576  0.00  0.00     0.196 C 
HETATM   13  O           1     -21.296 -10.528  -6.417  0.00  0.00    -0.646 OA
HETATM   14  O           1     -19.966 -11.901  -5.402  0.00  0.00    -0.646 OA
ENDBRANCH   6  12
ENDBRANCH   3   6
ENDBRANCH   1   2
BRANCH   1  15
HETATM   15  C           1     -20.793  -4.991  -6.141  0.00  0.00     0.081 C 
BRANCH  15  16
HETATM   16  C           1     -21.198  -4.877  -7.577  0.00  0.00    -0.056 A 
HETATM   17  C           1     -22.540  -4.695  -7.911  0.00  0.00     0.010 A 
HETATM   18  C           1     -22.918  -4.590  -9.250  0.00  0.00     0.038 A 
HETATM   19  C           1     -21.953  -4.667 -10.255  0.00  0.00     0.081 A 
HETATM   20  C           1     -20.612  -4.851  -9.921  0.00  0.00     0.038 A 
HETATM   21  C           1     -20.234  -4.956  -8.583  0.00  0.00     0.010 A 
BRANCH  19  22
HETATM   22  O           1     -22.320  -4.566 -11.555  0.00  0.00    -0.247 OA
BRANCH  22  23
HETATM   23  P           1     -22.545  -3.088 -12.167  0.00  0.00     0.411 P 
HETATM   24  O           1     -23.911  -2.623 -11.841  0.00  0.00    -0.624 OA
HETATM   25  O           1     -21.552  -2.158 -11.584  0.00  0.00    -0.624 OA
BRANCH  23  26
HETATM   26  O           1     -22.362  -3.137 -13.771  0.00  0.00    -0.300 OA
HETATM   27  H           1     -23.079  -2.629 -14.113  0.00  0.00     0.223 HD
ENDBRANCH  23  26
ENDBRANCH  22  23
ENDBRANCH  19  22
ENDBRANCH  15  16
ENDBRANCH   1  15
BRANCH   1  28
HETATM   28  N           1     -21.873  -5.892  -4.113  0.00  0.00    -0.066 N 
HETATM   29  H           1     -22.851  -5.520  -4.114  0.00  0.00     0.275 HD
HETATM   30  H           1     -21.832  -6.759  -3.532  0.00  0.00     0.275 HD
HETATM   31  H           1     -21.228  -5.173  -3.714  0.00  0.00     0.275 HD
ENDBRANCH   1  28
TORSDOF 12
ENDMDL
MODEL 9
REMARK VINA RESULT:      -6.4      2.618      3.637
REMARK  12 active torsions:
REMARK  status: ('A' for Active; 'I' for Inactive)
REMARK    1  A    between atoms: C_2  and  C_4 
REMARK    2  A    between atoms: C_4  and  C_5 
REMARK    3  A    between atoms: C_5  and  C_6 
REMARK    4  A    between atoms: C_6  and  C_7 
REMARK    5  A    between atoms: C_6  and  N_10 
REMARK       I    between atoms: N_10  and  C_11 
REMARK    6  A    between atoms: C_11  and  C_12 
REMARK    7  A    between atoms: C_12  and  C_13 
REMARK    8  A    between atoms: C_12  and  N_25 
REMARK    9  A    between atoms: C_13  and  C_14 
REMARK   10  A    between atoms: C_17  and  O_18 
REMARK   11  A    between atoms: O_18  and  P_19 
REMARK   12  A    between atoms: P_19  and  O_20 
ROOT
HETATM    1  C           1     -20.272  -8.514  -4.862  0.00  0.00     0.278 C 
ENDROOT
BRANCH   1   2
HETATM    2  C           1     -19.859  -9.062  -3.517  0.00  0.00     0.249 C 
HETATM    3  N           1     -20.803  -9.585  -2.674  0.00  0.00    -0.345 N 
HETATM    4  H           1     -21.776  -9.605  -2.951  0.00  0.00     0.163 HD
HETATM    5  O           1     -18.699  -9.040  -3.186  0.00  0.00    -0.271 OA
BRANCH   3   6
HETATM    6  C           1     -20.407 -10.112  -1.382  0.00  0.00     0.186 C 
BRANCH   6   7
HETATM    7  C           1     -21.494  -9.819  -0.357  0.00  0.00     0.046 C 
BRANCH   7   8
HETATM    8  C           1     -21.314  -8.408   0.186  0.00  0.00     0.116 C 
BRANCH   8   9
HETATM    9  C           1     -22.435  -7.529  -0.310  0.00  0.00     0.172 C 
HETATM   10  O           1     -22.294  -6.867  -1.360  0.00  0.00    -0.648 OA
HETATM   11  O           1     -23.508  -7.464   0.330  0.00  0.00    -0.648 OA
ENDBRANCH   8   9
ENDBRANCH   7   8
ENDBRANCH   6   7
BRANCH   6  12
HETATM   12  C           1     -20.206 -11.604  -1.489  0.00  0.00     0.196 C 
HETATM   13  O           1     -21.181 -12.376  -1.370  0.00  0.00    -0.646 OA
HETATM   14  O           1     -19.063 -12.067  -1.695  0.00  0.00    -0.646 OA
ENDBRANCH   6  12
ENDBRANCH   3   6
ENDBRANCH   1   2
BRANCH   1  15
HETATM   15  C           1     -21.303  -7.411  -4.666  0.00  0.00     0.081 C 
BRANCH  15  16
HETATM   16  C           1     -21.161  -6.395  -5.756  0.00  0.00    -0.056 A 
HETATM   17  C           1     -22.239  -5.573  -6.087  0.00  0.00     0.010 A 
HETATM   18  C           1     -22.108  -4.626  -7.103  0.00  0.00     0.038 A 
HETATM   19  C           1     -20.899  -4.501  -7.788  0.00  0.00     0.081 A 
HETATM   20  C           1     -19.823  -5.324  -7.458  0.00  0.00     0.038 A 
HETATM   21  C           1     -19.954  -6.270  -6.442  0.00  0.00     0.010 A 
BRANCH  19  22
HETATM   22  O           1     -20.773  -3.582  -8.775  0.00  0.00    -0.247 OA
BRANCH  22  23
HETATM   23  P           1     -20.978  -4.074 -10.300  0.00  0.00     0.411 P 
HETATM   24  O           1     -20.941  -2.903 -11.204  0.00  0.00    -0.624 OA
HETATM   25  O           1     -19.897  -5.016 -10.664  0.00  0.00    -0.624 OA
BRANCH  23  26
HETATM   26  O           1     -22.407  -4.814 -10.438  0.00  0.00    -0.300 OA
HETATM   27  H           1     -22.210  -5.734 -10.391  0.00  0.00     0.223 HD
ENDBRANCH  23  26
ENDBRANCH  22  23
ENDBRANCH  19  22
ENDBRANCH  15  16
ENDBRANCH   1  15
BRANCH   1  28
HETATM   28  N           1     -20.868  -9.615  -5.688  0.00  0.00    -0.066 N 
HETATM   29  H           1     -20.652 -10.538  -5.246  0.00  0.00     0.275 HD
HETATM   30  H           1     -21.904  -9.490  -5.740  0.00  0.00     0.275 HD
HETATM   31  H           1     -20.463  -9.587  -6.651  0.00  0.00     0.275 HD
ENDBRANCH   1  28
TORSDOF 12
ENDMDL
