MODEL 1
REMARK VINA RESULT:      -6.5      0.000      0.000
REMARK  9 active torsions:
REMARK  status: ('A' for Active; 'I' for Inactive)
REMARK    1  A    between atoms: C_1  and  C_11 
REMARK    2  A    between atoms: C_5  and  C_10 
REMARK    3  A    between atoms: C_10  and  C_21 
REMARK    4  A    between atoms: C_11  and  C_20 
REMARK    5  A    between atoms: N_15  and  C_20 
REMARK       I    between atoms: N_15  and  C_16 
REMARK    6  A    between atoms: C_16  and  C_17 
REMARK    7  A    between atoms: C_17  and  C_21 
REMARK    8  A    between atoms: C_17  and  N_22 
REMARK    9  A    between atoms: C_19  and  C_20 
ROOT
HETATM    1  H           1     -22.492  -5.865  -9.334  0.00  0.00     0.163 HD
HETATM    2  O           1     -21.617  -3.563  -7.392  0.00  0.00    -0.271 OA
HETATM    3  N           1     -22.383  -4.919  -8.992  0.00  0.00    -0.344 N 
HETATM    4  C           1     -21.748  -4.692  -7.800  0.00  0.00     0.249 C 
ENDROOT
BRANCH   4   5
HETATM    5  C           1     -21.212  -5.852  -6.997  0.00  0.00     0.275 C 
BRANCH   5   6
HETATM    6  C           1     -21.291  -5.522  -5.513  0.00  0.00     0.053 C 
BRANCH   6   7
HETATM    7  C           1     -22.159  -6.555  -4.808  0.00  0.00     0.115 C 
BRANCH   7   8
HETATM    8  C           1     -21.795  -6.606  -3.344  0.00  0.00     0.172 C 
HETATM    9  O           1     -20.865  -7.345  -2.957  0.00  0.00    -0.648 OA
HETATM   10  O           1     -22.423  -5.907  -2.520  0.00  0.00    -0.648 OA
ENDBRANCH   7   8
ENDBRANCH   6   7
ENDBRANCH   5   6
BRANCH   5  11
HETATM   11  N           1     -19.784  -6.104  -7.378  0.00  0.00    -0.066 N 
HETATM   12  H           1     -19.165  -5.426  -6.880  0.00  0.00     0.275 HD
HETATM   13  H           1     -19.670  -5.985  -8.410  0.00  0.00     0.275 HD
HETATM   14  H           1     -19.518  -7.079  -7.110  0.00  0.00     0.275 HD
ENDBRANCH   5  11
ENDBRANCH   4   5
BRANCH   3  15
HETATM   15  C           1     -22.897  -3.805  -9.763  0.00  0.00     0.189 C 
BRANCH  15  16
HETATM   16  C           1     -22.478  -3.959 -11.220  0.00  0.00     0.014 C 
HETATM   17  C           1     -22.869  -2.708 -11.995  0.00  0.00     0.012 C 
BRANCH  16  18
HETATM   18  C           1     -20.969  -4.153 -11.294  0.00  0.00     0.002 C 
HETATM   19  C           1     -20.278  -2.796 -11.237  0.00  0.00     0.005 C 
ENDBRANCH  16  18
ENDBRANCH  15  16
BRANCH  15  20
HETATM   20  C           1     -24.403  -3.784  -9.673  0.00  0.00     0.197 C 
HETATM   21  O           1     -24.999  -2.714  -9.416  0.00  0.00    -0.646 OA
HETATM   22  O           1     -25.056  -4.834  -9.854  0.00  0.00    -0.646 OA
ENDBRANCH  15  20
ENDBRANCH   3  15
TORSDOF 9
ENDMDL
MODEL 2
REMARK VINA RESULT:      -6.5     12.416     14.014
REMARK  9 active torsions:
REMARK  status: ('A' for Active; 'I' for Inactive)
REMARK    1  A    between atoms: C_1  and  C_11 
REMARK    2  A    between atoms: C_5  and  C_10 
REMARK    3  A    between atoms: C_10  and  C_21 
REMARK    4  A    between atoms: C_11  and  C_20 
REMARK    5  A    between atoms: N_15  and  C_20 
REMARK       I    between atoms: N_15  and  C_16 
REMARK    6  A    between atoms: C_16  and  C_17 
REMARK    7  A    between atoms: C_17  and  C_21 
REMARK    8  A    between atoms: C_17  and  N_22 
REMARK    9  A    between atoms: C_19  and  C_20 
ROOT
HETATM    1  H           1     -36.056  -2.196 -13.229  0.00  0.00     0.163 HD
HETATM    2  O           1     -33.629  -2.158 -11.243  0.00  0.00    -0.271 OA
HETATM    3  N           1     -35.402  -1.817 -12.556  0.00  0.00    -0.344 N 
HETATM    4  C           1     -34.409  -2.610 -12.046  0.00  0.00     0.249 C 
ENDROOT
BRANCH   4   5
HETATM    5  C           1     -34.290  -4.048 -12.487  0.00  0.00     0.275 C 
BRANCH   5   6
HETATM    6  C           1     -33.581  -4.853 -11.407  0.00  0.00     0.053 C 
BRANCH   6   7
HETATM    7  C           1     -34.611  -5.444 -10.454  0.00  0.00     0.115 C 
BRANCH   7   8
HETATM    8  C           1     -34.340  -6.917 -10.268  0.00  0.00     0.172 C 
HETATM    9  O           1     -33.241  -7.399 -10.617  0.00  0.00    -0.648 OA
HETATM   10  O           1     -35.214  -7.654  -9.763  0.00  0.00    -0.648 OA
ENDBRANCH   7   8
ENDBRANCH   6   7
ENDBRANCH   5   6
BRANCH   5  11
HETATM   11  N           1     -33.501  -4.116 -13.761  0.00  0.00    -0.066 N 
HETATM   12  H           1     -32.913  -4.979 -13.760  0.00  0.00     0.275 HD
HETATM   13  H           1     -32.884  -3.275 -13.835  0.00  0.00     0.275 HD
HETATM   14  H           1     -34.155  -4.140 -14.575  0.00  0.00     0.275 HD
ENDBRANCH   5  11
ENDBRANCH   4   5
BRANCH   3  15
HETATM   15  C           1     -35.516  -0.435 -12.132  0.00  0.00     0.189 C 
BRANCH  15  16
HETATM   16  C           1     -35.828   0.441 -13.339  0.00  0.00     0.014 C 
HETATM   17  C           1     -34.539   1.062 -13.861  0.00  0.00     0.012 C 
BRANCH  16  18
HETATM   18  C           1     -36.462  -0.409 -14.433  0.00  0.00     0.002 C 
HETATM   19  C           1     -35.708  -0.203 -15.739  0.00  0.00     0.005 C 
ENDBRANCH  16  18
ENDBRANCH  15  16
BRANCH  15  20
HETATM   20  C           1     -36.628  -0.310 -11.120  0.00  0.00     0.197 C 
HETATM   21  O           1     -37.634  -1.047 -11.203  0.00  0.00    -0.646 OA
HETATM   22  O           1     -36.543   0.531 -10.199  0.00  0.00    -0.646 OA
ENDBRANCH  15  20
ENDBRANCH   3  15
TORSDOF 9
ENDMDL
MODEL 3
REMARK VINA RESULT:      -6.4     12.204     13.926
REMARK  9 active torsions:
REMARK  status: ('A' for Active; 'I' for Inactive)
REMARK    1  A    between atoms: C_1  and  C_11 
REMARK    2  A    between atoms: C_5  and  C_10 
REMARK    3  A    between atoms: C_10  and  C_21 
REMARK    4  A    between atoms: C_11  and  C_20 
REMARK    5  A    between atoms: N_15  and  C_20 
REMARK       I    between atoms: N_15  and  C_16 
REMARK    6  A    between atoms: C_16  and  C_17 
REMARK    7  A    between atoms: C_17  and  C_21 
REMARK    8  A    between atoms: C_17  and  N_22 
REMARK    9  A    between atoms: C_19  and  C_20 
ROOT
HETATM    1  H           1     -32.504  -3.512 -14.457  0.00  0.00     0.163 HD
HETATM    2  O           1     -35.054  -5.072 -15.406  0.00  0.00    -0.271 OA
HETATM    3  N           1     -33.406  -3.965 -14.384  0.00  0.00    -0.344 N 
HETATM    4  C           1     -33.978  -4.531 -15.492  0.00  0.00     0.249 C 
ENDROOT
BRANCH   4   5
HETATM    5  C           1     -33.265  -4.477 -16.821  0.00  0.00     0.275 C 
BRANCH   5   6
HETATM    6  C           1     -31.814  -4.899 -16.637  0.00  0.00     0.053 C 
BRANCH   6   7
HETATM    7  C           1     -31.578  -6.227 -17.343  0.00  0.00     0.115 C 
BRANCH   7   8
HETATM    8  C           1     -30.189  -6.726 -17.028  0.00  0.00     0.172 C 
HETATM    9  O           1     -29.840  -7.872 -17.387  0.00  0.00    -0.648 OA
HETATM   10  O           1     -29.387  -5.994 -16.410  0.00  0.00    -0.648 OA
ENDBRANCH   7   8
ENDBRANCH   6   7
ENDBRANCH   5   6
BRANCH   5  11
HETATM   11  N           1     -33.313  -3.076 -17.357  0.00  0.00    -0.066 N 
HETATM   12  H           1     -32.785  -3.029 -18.257  0.00  0.00     0.275 HD
HETATM   13  H           1     -32.881  -2.422 -16.665  0.00  0.00     0.275 HD
HETATM   14  H           1     -34.308  -2.800 -17.522  0.00  0.00     0.275 HD
ENDBRANCH   5  11
ENDBRANCH   4   5
BRANCH   3  15
HETATM   15  C           1     -34.091  -4.017 -13.108  0.00  0.00     0.189 C 
BRANCH  15  16
HETATM   16  C           1     -33.067  -4.150 -11.987  0.00  0.00     0.014 C 
HETATM   17  C           1     -33.265  -3.021 -10.984  0.00  0.00     0.012 C 
BRANCH  16  18
HETATM   18  C           1     -33.253  -5.490 -11.288  0.00  0.00     0.002 C 
HETATM   19  C           1     -34.414  -5.396 -10.307  0.00  0.00     0.005 C 
ENDBRANCH  16  18
ENDBRANCH  15  16
BRANCH  15  20
HETATM   20  C           1     -34.888  -2.751 -12.914  0.00  0.00     0.197 C 
HETATM   21  O           1     -35.733  -2.680 -11.994  0.00  0.00    -0.646 OA
HETATM   22  O           1     -34.706  -1.774 -13.672  0.00  0.00    -0.646 OA
ENDBRANCH  15  20
ENDBRANCH   3  15
TORSDOF 9
ENDMDL
MODEL 4
REMARK VINA RESULT:      -6.3     12.449     14.312
REMARK  9 active torsions:
REMARK  status: ('A' for Active; 'I' for Inactive)
REMARK    1  A    between atoms: C_1  and  C_11 
REMARK    2  A    between atoms: C_5  and  C_10 
REMARK    3  A    between atoms: C_10  and  C_21 
REMARK    4  A    between atoms: C_11  and  C_20 
REMARK    5  A    between atoms: N_15  and  C_20 
REMARK       I    between atoms: N_15  and  C_16 
REMARK    6  A    between atoms: C_16  and  C_17 
REMARK    7  A    between atoms: C_17  and  C_21 
REMARK    8  A    between atoms: C_17  and  N_22 
REMARK    9  A    between atoms: C_19  and  C_20 
ROOT
HETATM    1  H           1     -34.540  -0.533 -11.547  0.00  0.00     0.163 HD
HETATM    2  O           1     -34.499  -3.112 -13.331  0.00  0.00    -0.271 OA
HETATM    3  N           1     -34.765  -1.135 -12.329  0.00  0.00    -0.344 N 
HETATM    4  C           1     -34.230  -2.393 -12.399  0.00  0.00     0.249 C 
ENDROOT
BRANCH   4   5
HETATM    5  C           1     -33.304  -2.882 -11.313  0.00  0.00     0.275 C 
BRANCH   5   6
HETATM    6  C           1     -33.134  -4.390 -11.430  0.00  0.00     0.053 C 
BRANCH   6   7
HETATM    7  C           1     -34.072  -5.085 -10.453  0.00  0.00     0.115 C 
BRANCH   7   8
HETATM    8  C           1     -34.627  -6.336 -11.089  0.00  0.00     0.172 C 
HETATM    9  O           1     -35.113  -6.289 -12.240  0.00  0.00    -0.648 OA
HETATM   10  O           1     -34.600  -7.418 -10.465  0.00  0.00    -0.648 OA
ENDBRANCH   7   8
ENDBRANCH   6   7
ENDBRANCH   5   6
BRANCH   5  11
HETATM   11  N           1     -33.887  -2.547  -9.972  0.00  0.00    -0.066 N 
HETATM   12  H           1     -34.920  -2.705  -9.992  0.00  0.00     0.275 HD
HETATM   13  H           1     -33.693  -1.545  -9.746  0.00  0.00     0.275 HD
HETATM   14  H           1     -33.456  -3.158  -9.242  0.00  0.00     0.275 HD
ENDBRANCH   5  11
ENDBRANCH   4   5
BRANCH   3  15
HETATM   15  C           1     -35.654  -0.666 -13.373  0.00  0.00     0.189 C 
BRANCH  15  16
HETATM   16  C           1     -36.854   0.030 -12.742  0.00  0.00     0.014 C 
HETATM   17  C           1     -38.055  -0.090 -13.671  0.00  0.00     0.012 C 
BRANCH  16  18
HETATM   18  C           1     -37.177  -0.628 -11.406  0.00  0.00     0.002 C 
HETATM   19  C           1     -37.343   0.444 -10.338  0.00  0.00     0.005 C 
ENDBRANCH  16  18
ENDBRANCH  15  16
BRANCH  15  20
HETATM   20  C           1     -34.919   0.307 -14.260  0.00  0.00     0.197 C 
HETATM   21  O           1     -34.640   1.450 -13.837  0.00  0.00    -0.646 OA
HETATM   22  O           1     -34.589  -0.029 -15.418  0.00  0.00    -0.646 OA
ENDBRANCH  15  20
ENDBRANCH   3  15
TORSDOF 9
ENDMDL
MODEL 5
REMARK VINA RESULT:      -6.0      2.175      7.112
REMARK  9 active torsions:
REMARK  status: ('A' for Active; 'I' for Inactive)
REMARK    1  A    between atoms: C_1  and  C_11 
REMARK    2  A    between atoms: C_5  and  C_10 
REMARK    3  A    between atoms: C_10  and  C_21 
REMARK    4  A    between atoms: C_11  and  C_20 
REMARK    5  A    between atoms: N_15  and  C_20 
REMARK       I    between atoms: N_15  and  C_16 
REMARK    6  A    between atoms: C_16  and  C_17 
REMARK    7  A    between atoms: C_17  and  C_21 
REMARK    8  A    between atoms: C_17  and  N_22 
REMARK    9  A    between atoms: C_19  and  C_20 
ROOT
HETATM    1  H           1     -22.701  -6.326  -5.396  0.00  0.00     0.163 HD
HETATM    2  O           1     -20.047  -5.080  -6.509  0.00  0.00    -0.271 OA
HETATM    3  N           1     -21.704  -6.188  -5.504  0.00  0.00    -0.344 N 
HETATM    4  C           1     -21.236  -5.246  -6.380  0.00  0.00     0.249 C 
ENDROOT
BRANCH   4   5
HETATM    5  C           1     -22.205  -4.414  -7.183  0.00  0.00     0.275 C 
BRANCH   5   6
HETATM    6  C           1     -22.285  -4.956  -8.603  0.00  0.00     0.053 C 
BRANCH   6   7
HETATM    7  C           1     -22.525  -3.808  -9.574  0.00  0.00     0.115 C 
BRANCH   7   8
HETATM    8  C           1     -23.932  -3.889 -10.114  0.00  0.00     0.172 C 
HETATM    9  O           1     -24.384  -2.961 -10.820  0.00  0.00    -0.648 OA
HETATM   10  O           1     -24.643  -4.883  -9.858  0.00  0.00    -0.648 OA
ENDBRANCH   7   8
ENDBRANCH   6   7
ENDBRANCH   5   6
BRANCH   5  11
HETATM   11  N           1     -21.732  -2.991  -7.218  0.00  0.00    -0.066 N 
HETATM   12  H           1     -21.156  -2.836  -8.076  0.00  0.00     0.275 HD
HETATM   13  H           1     -21.152  -2.794  -6.370  0.00  0.00     0.275 HD
HETATM   14  H           1     -22.557  -2.349  -7.231  0.00  0.00     0.275 HD
ENDBRANCH   5  11
ENDBRANCH   4   5
BRANCH   3  15
HETATM   15  C           1     -20.773  -6.987  -4.733  0.00  0.00     0.189 C 
BRANCH  15  16
HETATM   16  C           1     -21.432  -7.415  -3.427  0.00  0.00     0.014 C 
HETATM   17  C           1     -20.448  -8.241  -2.610  0.00  0.00     0.012 C 
BRANCH  16  18
HETATM   18  C           1     -21.838  -6.178  -2.635  0.00  0.00     0.002 C 
HETATM   19  C           1     -22.296  -6.593  -1.243  0.00  0.00     0.005 C 
ENDBRANCH  16  18
ENDBRANCH  15  16
BRANCH  15  20
HETATM   20  C           1     -20.384  -8.211  -5.524  0.00  0.00     0.197 C 
HETATM   21  O           1     -21.261  -9.029  -5.879  0.00  0.00    -0.646 OA
HETATM   22  O           1     -19.187  -8.408  -5.825  0.00  0.00    -0.646 OA
ENDBRANCH  15  20
ENDBRANCH   3  15
TORSDOF 9
ENDMDL
MODEL 6
REMARK VINA RESULT:      -5.9      1.516      2.123
REMARK  9 active torsions:
REMARK  status: ('A' for Active; 'I' for Inactive)
REMARK    1  A    between atoms: C_1  and  C_11 
REMARK    2  A    between atoms: C_5  and  C_10 
REMARK    3  A    between atoms: C_10  and  C_21 
REMARK    4  A    between atoms: C_11  and  C_20 
REMARK    5  A    between atoms: N_15  and  C_20 
REMARK       I    between atoms: N_15  and  C_16 
REMARK    6  A    between atoms: C_16  and  C_17 
REMARK    7  A    between atoms: C_17  and  C_21 
REMARK    8  A    between atoms: C_17  and  N_22 
REMARK    9  A    between atoms: C_19  and  C_20 
ROOT
HETATM    1  H           1     -22.109  -5.519  -9.583  0.00  0.00     0.163 HD
HETATM    2  O           1     -21.666  -3.481  -7.240  0.00  0.00    -0.271 OA
HETATM    3  N           1     -22.158  -4.640  -9.085  0.00  0.00    -0.344 N 
HETATM    4  C           1     -21.608  -4.530  -7.835  0.00  0.00     0.249 C 
ENDROOT
BRANCH   4   5
HETATM    5  C           1     -20.931  -5.720  -7.202  0.00  0.00     0.275 C 
BRANCH   5   6
HETATM    6  C           1     -21.655  -6.093  -5.916  0.00  0.00     0.053 C 
BRANCH   6   7
HETATM    7  C           1     -20.680  -6.767  -4.960  0.00  0.00     0.115 C 
BRANCH   7   8
HETATM    8  C           1     -20.345  -8.147  -5.470  0.00  0.00     0.172 C 
HETATM    9  O           1     -19.172  -8.422  -5.803  0.00  0.00    -0.648 OA
HETATM   10  O           1     -21.240  -9.014  -5.559  0.00  0.00    -0.648 OA
ENDBRANCH   7   8
ENDBRANCH   6   7
ENDBRANCH   5   6
BRANCH   5  11
HETATM   11  N           1     -19.505  -5.374  -6.889  0.00  0.00    -0.066 N 
HETATM   12  H           1     -19.135  -4.726  -7.621  0.00  0.00     0.275 HD
HETATM   13  H           1     -18.928  -6.247  -6.875  0.00  0.00     0.275 HD
HETATM   14  H           1     -19.455  -4.910  -5.955  0.00  0.00     0.275 HD
ENDBRANCH   5  11
ENDBRANCH   4   5
BRANCH   3  15
HETATM   15  C           1     -22.809  -3.496  -9.693  0.00  0.00     0.189 C 
BRANCH  15  16
HETATM   16  C           1     -22.256  -3.286 -11.097  0.00  0.00     0.014 C 
HETATM   17  C           1     -20.849  -3.863 -11.180  0.00  0.00     0.012 C 
BRANCH  16  18
HETATM   18  C           1     -23.155  -3.990 -12.106  0.00  0.00     0.002 C 
HETATM   19  C           1     -23.408  -3.069 -13.292  0.00  0.00     0.005 C 
ENDBRANCH  16  18
ENDBRANCH  15  16
BRANCH  15  20
HETATM   20  C           1     -24.295  -3.745  -9.769  0.00  0.00     0.197 C 
HETATM   21  O           1     -24.728  -4.915  -9.866  0.00  0.00    -0.646 OA
HETATM   22  O           1     -25.093  -2.784  -9.738  0.00  0.00    -0.646 OA
ENDBRANCH  15  20
ENDBRANCH   3  15
TORSDOF 9
ENDMDL
MODEL 7
REMARK VINA RESULT:      -5.8      2.568      7.053
REMARK  9 active torsions:
REMARK  status: ('A' for Active; 'I' for Inactive)
REMARK    1  A    between atoms: C_1  and  C_11 
REMARK    2  A    between atoms: C_5  and  C_10 
REMARK    3  A    between atoms: C_10  and  C_21 
REMARK    4  A    between atoms: C_11  and  C_20 
REMARK    5  A    between atoms: N_15  and  C_20 
REMARK       I    between atoms: N_15  and  C_16 
REMARK    6  A    between atoms: C_16  and  C_17 
REMARK    7  A    between atoms: C_17  and  C_21 
REMARK    8  A    between atoms: C_17  and  N_22 
REMARK    9  A    between atoms: C_19  and  C_20 
ROOT
HETATM    1  H           1     -20.670  -3.872  -9.841  0.00  0.00     0.163 HD
HETATM    2  O           1     -23.651  -4.781 -10.196  0.00  0.00    -0.271 OA
HETATM    3  N           1     -21.543  -4.331  -9.613  0.00  0.00    -0.344 N 
HETATM    4  C           1     -22.609  -4.233 -10.467  0.00  0.00     0.249 C 
ENDROOT
BRANCH   4   5
HETATM    5  C           1     -22.483  -3.441 -11.745  0.00  0.00     0.275 C 
BRANCH   5   6
HETATM    6  C           1     -23.630  -3.799 -12.680  0.00  0.00     0.053 C 
BRANCH   6   7
HETATM    7  C           1     -24.318  -2.525 -13.151  0.00  0.00     0.115 C 
BRANCH   7   8
HETATM    8  C           1     -23.686  -2.055 -14.438  0.00  0.00     0.172 C 
HETATM    9  O           1     -22.860  -2.783 -15.031  0.00  0.00    -0.648 OA
HETATM   10  O           1     -23.989  -0.939 -14.912  0.00  0.00    -0.648 OA
ENDBRANCH   7   8
ENDBRANCH   6   7
ENDBRANCH   5   6
BRANCH   5  11
HETATM   11  N           1     -21.178  -3.768 -12.408  0.00  0.00    -0.066 N 
HETATM   12  H           1     -21.359  -4.261 -13.311  0.00  0.00     0.275 HD
HETATM   13  H           1     -20.613  -4.386 -11.782  0.00  0.00     0.275 HD
HETATM   14  H           1     -20.650  -2.885 -12.592  0.00  0.00     0.275 HD
ENDBRANCH   5  11
ENDBRANCH   4   5
BRANCH   3  15
HETATM   15  C           1     -21.665  -5.091  -8.386  0.00  0.00     0.189 C 
BRANCH  15  16
HETATM   16  C           1     -20.282  -5.535  -7.924  0.00  0.00     0.014 C 
HETATM   17  C           1     -19.373  -4.319  -7.807  0.00  0.00     0.012 C 
BRANCH  16  18
HETATM   18  C           1     -20.396  -6.217  -6.567  0.00  0.00     0.002 C 
HETATM   19  C           1     -19.948  -5.255  -5.475  0.00  0.00     0.005 C 
ENDBRANCH  16  18
ENDBRANCH  15  16
BRANCH  15  20
HETATM   20  C           1     -22.298  -4.230  -7.321  0.00  0.00     0.197 C 
HETATM   21  O           1     -21.850  -3.084  -7.097  0.00  0.00    -0.646 OA
HETATM   22  O           1     -23.268  -4.661  -6.662  0.00  0.00    -0.646 OA
ENDBRANCH  15  20
ENDBRANCH   3  15
TORSDOF 9
ENDMDL
MODEL 8
REMARK VINA RESULT:      -5.7     18.969     20.671
REMARK  9 active torsions:
REMARK  status: ('A' for Active; 'I' for Inactive)
REMARK    1  A    between atoms: C_1  and  C_11 
REMARK    2  A    between atoms: C_5  and  C_10 
REMARK    3  A    between atoms: C_10  and  C_21 
REMARK    4  A    between atoms: C_11  and  C_20 
REMARK    5  A    between atoms: N_15  and  C_20 
REMARK       I    between atoms: N_15  and  C_16 
REMARK    6  A    between atoms: C_16  and  C_17 
REMARK    7  A    between atoms: C_17  and  C_21 
REMARK    8  A    between atoms: C_17  and  N_22 
REMARK    9  A    between atoms: C_19  and  C_20 
ROOT
HETATM    1  H           1     -12.727   7.621 -19.038  0.00  0.00     0.163 HD
HETATM    2  O           1     -11.930   7.266 -22.051  0.00  0.00    -0.271 OA
HETATM    3  N           1     -12.361   7.876 -19.946  0.00  0.00    -0.344 N 
HETATM    4  C           1     -12.367   6.962 -20.966  0.00  0.00     0.249 C 
ENDROOT
BRANCH   4   5
HETATM    5  C           1     -12.920   5.577 -20.737  0.00  0.00     0.275 C 
BRANCH   5   6
HETATM    6  C           1     -12.128   4.890 -19.634  0.00  0.00     0.053 C 
BRANCH   6   7
HETATM    7  C           1     -10.720   4.590 -20.131  0.00  0.00     0.115 C 
BRANCH   7   8
HETATM    8  C           1      -9.736   5.504 -19.444  0.00  0.00     0.172 C 
HETATM    9  O           1      -9.782   5.652 -18.203  0.00  0.00    -0.648 OA
HETATM   10  O           1      -8.875   6.113 -20.115  0.00  0.00    -0.648 OA
ENDBRANCH   7   8
ENDBRANCH   6   7
ENDBRANCH   5   6
BRANCH   5  11
HETATM   11  N           1     -12.810   4.780 -22.003  0.00  0.00    -0.066 N 
HETATM   12  H           1     -13.761   4.647 -22.414  0.00  0.00     0.275 HD
HETATM   13  H           1     -12.388   3.847 -21.793  0.00  0.00     0.275 HD
HETATM   14  H           1     -12.204   5.290 -22.684  0.00  0.00     0.275 HD
ENDBRANCH   5  11
ENDBRANCH   4   5
BRANCH   3  15
HETATM   15  C           1     -11.829   9.206 -20.168  0.00  0.00     0.189 C 
BRANCH  15  16
HETATM   16  C           1     -12.700  10.227 -19.445  0.00  0.00     0.014 C 
HETATM   17  C           1     -13.553  10.974 -20.461  0.00  0.00     0.012 C 
BRANCH  16  18
HETATM   18  C           1     -13.604   9.508 -18.452  0.00  0.00     0.002 C 
HETATM   19  C           1     -14.482  10.526 -17.734  0.00  0.00     0.005 C 
ENDBRANCH  16  18
ENDBRANCH  15  16
BRANCH  15  20
HETATM   20  C           1     -10.420   9.280 -19.634  0.00  0.00     0.197 C 
HETATM   21  O           1      -9.494   9.686 -20.370  0.00  0.00    -0.646 OA
HETATM   22  O           1     -10.177   8.934 -18.458  0.00  0.00    -0.646 OA
ENDBRANCH  15  20
ENDBRANCH   3  15
TORSDOF 9
ENDMDL
MODEL 9
REMARK VINA RESULT:      -5.7      2.219      7.109
REMARK  9 active torsions:
REMARK  status: ('A' for Active; 'I' for Inactive)
REMARK    1  A    between atoms: C_1  and  C_11 
REMARK    2  A    between atoms: C_5  and  C_10 
REMARK    3  A    between atoms: C_10  and  C_21 
REMARK    4  A    between atoms: C_11  and  C_20 
REMARK    5  A    between atoms: N_15  and  C_20 
REMARK       I    between atoms: N_15  and  C_16 
REMARK    6  A    between atoms: C_16  and  C_17 
REMARK    7  A    between atoms: C_17  and  C_21 
REMARK    8  A    between atoms: C_17  and  N_22 
REMARK    9  A    between atoms: C_19  and  C_20 
ROOT
HETATM    1  H           1     -19.738  -6.906  -4.471  0.00  0.00     0.163 HD
HETATM    2  O           1     -22.529  -5.869  -5.456  0.00  0.00    -0.271 OA
HETATM    3  N           1     -20.746  -6.823  -4.510  0.00  0.00    -0.344 N 
HETATM    4  C           1     -21.326  -5.968  -5.409  0.00  0.00     0.249 C 
ENDROOT
BRANCH   4   5
HETATM    5  C           1     -20.465  -5.150  -6.338  0.00  0.00     0.275 C 
BRANCH   5   6
HETATM    6  C           1     -21.292  -4.022  -6.938  0.00  0.00     0.053 C 
BRANCH   6   7
HETATM    7  C           1     -21.173  -4.054  -8.455  0.00  0.00     0.115 C 
BRANCH   7   8
HETATM    8  C           1     -22.544  -3.922  -9.072  0.00  0.00     0.172 C 
HETATM    9  O           1     -23.562  -4.172  -8.391  0.00  0.00    -0.648 OA
HETATM   10  O           1     -22.662  -3.562 -10.262  0.00  0.00    -0.648 OA
ENDBRANCH   7   8
ENDBRANCH   6   7
ENDBRANCH   5   6
BRANCH   5  11
HETATM   11  N           1     -19.946  -6.028  -7.439  0.00  0.00    -0.066 N 
HETATM   12  H           1     -18.978  -5.729  -7.696  0.00  0.00     0.275 HD
HETATM   13  H           1     -20.568  -5.946  -8.275  0.00  0.00     0.275 HD
HETATM   14  H           1     -19.929  -7.021  -7.114  0.00  0.00     0.275 HD
ENDBRANCH   5  11
ENDBRANCH   4   5
BRANCH   3  15
HETATM   15  C           1     -21.574  -7.609  -3.617  0.00  0.00     0.189 C 
BRANCH  15  16
HETATM   16  C           1     -20.965  -8.995  -3.449  0.00  0.00     0.014 C 
HETATM   17  C           1     -21.891 -10.034  -4.067  0.00  0.00     0.012 C 
BRANCH  16  18
HETATM   18  C           1     -19.611  -9.042  -4.145  0.00  0.00     0.002 C 
HETATM   19  C           1     -18.524  -9.349  -3.124  0.00  0.00     0.005 C 
ENDBRANCH  16  18
ENDBRANCH  15  16
BRANCH  15  20
HETATM   20  C           1     -21.652  -6.927  -2.274  0.00  0.00     0.197 C 
HETATM   21  O           1     -22.324  -5.881  -2.142  0.00  0.00    -0.646 OA
HETATM   22  O           1     -21.043  -7.406  -1.293  0.00  0.00    -0.646 OA
ENDBRANCH  15  20
ENDBRANCH   3  15
TORSDOF 9
ENDMDL
