MODEL 1
REMARK VINA RESULT:      -7.8      0.000      0.000
REMARK  11 active torsions:
REMARK  status: ('A' for Active; 'I' for Inactive)
REMARK       I    between atoms: C_1  and  N_15 
REMARK    1  A    between atoms: C_1  and  C_13 
REMARK    2  A    between atoms: C_3  and  C_4 
REMARK    3  A    between atoms: C_4  and  C_5 
REMARK    4  A    between atoms: C_5  and  C_7 
REMARK    5  A    between atoms: C_5  and  N_15 
REMARK    6  A    between atoms: C_13  and  C_23 
REMARK    7  A    between atoms: C_13  and  N_30 
REMARK    8  A    between atoms: O_14  and  P_20 
REMARK    9  A    between atoms: C_18  and  O_19 
REMARK   10  A    between atoms: O_19  and  P_20 
REMARK   11  A    between atoms: C_23  and  C_25 
ROOT
HETATM    1  C           1     -21.588  -6.879  -5.405  0.00  0.00     0.189 C 
ENDROOT
BRANCH   1   2
HETATM    2  C           1     -20.611  -5.776  -5.790  0.00  0.00     0.074 C 
BRANCH   2   3
HETATM    3  C           1     -21.069  -5.125  -7.059  0.00  0.00    -0.056 A 
HETATM    4  C           1     -22.309  -4.492  -7.110  0.00  0.00     0.010 A 
HETATM    5  C           1     -22.735  -3.885  -8.292  0.00  0.00     0.038 A 
HETATM    6  C           1     -21.920  -3.913  -9.423  0.00  0.00     0.081 A 
HETATM    7  C           1     -20.677  -4.546  -9.372  0.00  0.00     0.038 A 
HETATM    8  C           1     -20.252  -5.153  -8.189  0.00  0.00     0.010 A 
BRANCH   6   9
HETATM    9  O           1     -22.332  -3.324 -10.571  0.00  0.00    -0.247 OA
BRANCH   9  10
HETATM   10  P           1     -23.595  -3.970 -11.343  0.00  0.00     0.411 P 
HETATM   11  O           1     -24.804  -3.158 -11.079  0.00  0.00    -0.624 OA
HETATM   12  O           1     -23.813  -5.353 -10.864  0.00  0.00    -0.624 OA
BRANCH  10  13
HETATM   13  O           1     -23.299  -3.989 -12.931  0.00  0.00    -0.300 OA
HETATM   14  H           1     -22.388  -3.762 -13.013  0.00  0.00     0.223 HD
ENDBRANCH  10  13
ENDBRANCH   9  10
ENDBRANCH   6   9
ENDBRANCH   2   3
ENDBRANCH   1   2
BRANCH   1  15
HETATM   15  C           1     -20.824  -8.141  -5.090  0.00  0.00     0.197 C 
HETATM   16  O           1     -19.587  -8.095  -4.912  0.00  0.00    -0.646 OA
HETATM   17  O           1     -21.427  -9.233  -5.007  0.00  0.00    -0.646 OA
ENDBRANCH   1  15
BRANCH   1  18
HETATM   18  N           1     -22.344  -6.468  -4.238  0.00  0.00    -0.344 N 
HETATM   19  C           1     -21.721  -6.347  -3.026  0.00  0.00     0.249 C 
HETATM   20  O           1     -21.227  -5.293  -2.702  0.00  0.00    -0.271 OA
HETATM   21  H           1     -23.333  -6.269  -4.320  0.00  0.00     0.163 HD
BRANCH  19  22
HETATM   22  C           1     -21.650  -7.531  -2.093  0.00  0.00     0.284 C 
BRANCH  22  23
HETATM   23  C           1     -22.368  -7.198  -0.792  0.00  0.00     0.155 C 
BRANCH  23  24
HETATM   24  C           1     -22.387  -8.416   0.099  0.00  0.00     0.175 C 
HETATM   25  O           1     -23.431  -9.095   0.207  0.00  0.00    -0.648 OA
HETATM   26  O           1     -21.359  -8.747   0.729  0.00  0.00    -0.648 OA
ENDBRANCH  23  24
ENDBRANCH  22  23
BRANCH  22  27
HETATM   27  N           1     -20.214  -7.853  -1.802  0.00  0.00    -0.066 N 
HETATM   28  H           1     -19.598  -7.133  -2.242  0.00  0.00     0.275 HD
HETATM   29  H           1     -20.062  -7.857  -0.768  0.00  0.00     0.275 HD
HETATM   30  H           1     -19.982  -8.794  -2.192  0.00  0.00     0.275 HD
ENDBRANCH  22  27
ENDBRANCH  19  22
ENDBRANCH   1  18
TORSDOF 11
ENDMDL
MODEL 2
REMARK VINA RESULT:      -7.7      0.308      1.489
REMARK  11 active torsions:
REMARK  status: ('A' for Active; 'I' for Inactive)
REMARK       I    between atoms: C_1  and  N_15 
REMARK    1  A    between atoms: C_1  and  C_13 
REMARK    2  A    between atoms: C_3  and  C_4 
REMARK    3  A    between atoms: C_4  and  C_5 
REMARK    4  A    between atoms: C_5  and  C_7 
REMARK    5  A    between atoms: C_5  and  N_15 
REMARK    6  A    between atoms: C_13  and  C_23 
REMARK    7  A    between atoms: C_13  and  N_30 
REMARK    8  A    between atoms: O_14  and  P_20 
REMARK    9  A    between atoms: C_18  and  O_19 
REMARK   10  A    between atoms: O_19  and  P_20 
REMARK   11  A    between atoms: C_23  and  C_25 
ROOT
HETATM    1  C           1     -21.639  -6.741  -5.458  0.00  0.00     0.189 C 
ENDROOT
BRANCH   1   2
HETATM    2  C           1     -20.683  -5.617  -5.836  0.00  0.00     0.074 C 
BRANCH   2   3
HETATM    3  C           1     -21.119  -5.004  -7.130  0.00  0.00    -0.056 A 
HETATM    4  C           1     -20.256  -4.996  -8.224  0.00  0.00     0.010 A 
HETATM    5  C           1     -20.663  -4.425  -9.429  0.00  0.00     0.038 A 
HETATM    6  C           1     -21.934  -3.861  -9.540  0.00  0.00     0.081 A 
HETATM    7  C           1     -22.798  -3.869  -8.445  0.00  0.00     0.038 A 
HETATM    8  C           1     -22.391  -4.441  -7.240  0.00  0.00     0.010 A 
BRANCH   6   9
HETATM    9  O           1     -22.330  -3.306 -10.711  0.00  0.00    -0.247 OA
BRANCH   9  10
HETATM   10  P           1     -23.649  -3.903 -11.426  0.00  0.00     0.411 P 
HETATM   11  O           1     -23.741  -5.356 -11.160  0.00  0.00    -0.624 OA
HETATM   12  O           1     -23.567  -3.671 -12.885  0.00  0.00    -0.624 OA
BRANCH  10  13
HETATM   13  O           1     -24.959  -3.166 -10.835  0.00  0.00    -0.300 OA
HETATM   14  H           1     -25.415  -3.832 -10.348  0.00  0.00     0.223 HD
ENDBRANCH  10  13
ENDBRANCH   9  10
ENDBRANCH   6   9
ENDBRANCH   2   3
ENDBRANCH   1   2
BRANCH   1  15
HETATM   15  C           1     -20.855  -8.001  -5.188  0.00  0.00     0.197 C 
HETATM   16  O           1     -21.452  -9.090  -5.042  0.00  0.00    -0.646 OA
HETATM   17  O           1     -19.608  -7.957  -5.111  0.00  0.00    -0.646 OA
ENDBRANCH   1  15
BRANCH   1  18
HETATM   18  N           1     -22.377  -6.366  -4.267  0.00  0.00    -0.344 N 
HETATM   19  C           1     -21.750  -6.349  -3.050  0.00  0.00     0.249 C 
HETATM   20  O           1     -21.208  -5.342  -2.664  0.00  0.00    -0.271 OA
HETATM   21  H           1     -23.355  -6.117  -4.335  0.00  0.00     0.163 HD
BRANCH  19  22
HETATM   22  C           1     -21.736  -7.590  -2.192  0.00  0.00     0.284 C 
BRANCH  22  23
HETATM   23  C           1     -22.340  -7.274  -0.830  0.00  0.00     0.155 C 
BRANCH  23  24
HETATM   24  C           1     -22.070  -8.416   0.119  0.00  0.00     0.175 C 
HETATM   25  O           1     -22.573  -9.540  -0.097  0.00  0.00    -0.648 OA
HETATM   26  O           1     -21.343  -8.239   1.120  0.00  0.00    -0.648 OA
ENDBRANCH  23  24
ENDBRANCH  22  23
BRANCH  22  27
HETATM   27  N           1     -20.323  -8.060  -2.014  0.00  0.00    -0.066 N 
HETATM   28  H           1     -20.081  -8.737  -2.771  0.00  0.00     0.275 HD
HETATM   29  H           1     -19.676  -7.241  -2.060  0.00  0.00     0.275 HD
HETATM   30  H           1     -20.226  -8.529  -1.085  0.00  0.00     0.275 HD
ENDBRANCH  22  27
ENDBRANCH  19  22
ENDBRANCH   1  18
TORSDOF 11
ENDMDL
MODEL 3
REMARK VINA RESULT:      -7.6      2.334      3.181
REMARK  11 active torsions:
REMARK  status: ('A' for Active; 'I' for Inactive)
REMARK       I    between atoms: C_1  and  N_15 
REMARK    1  A    between atoms: C_1  and  C_13 
REMARK    2  A    between atoms: C_3  and  C_4 
REMARK    3  A    between atoms: C_4  and  C_5 
REMARK    4  A    between atoms: C_5  and  C_7 
REMARK    5  A    between atoms: C_5  and  N_15 
REMARK    6  A    between atoms: C_13  and  C_23 
REMARK    7  A    between atoms: C_13  and  N_30 
REMARK    8  A    between atoms: O_14  and  P_20 
REMARK    9  A    between atoms: C_18  and  O_19 
REMARK   10  A    between atoms: O_19  and  P_20 
REMARK   11  A    between atoms: C_23  and  C_25 
ROOT
HETATM    1  C           1     -21.565  -5.545  -6.668  0.00  0.00     0.189 C 
ENDROOT
BRANCH   1   2
HETATM    2  C           1     -21.954  -4.147  -7.133  0.00  0.00     0.074 C 
BRANCH   2   3
HETATM    3  C           1     -22.407  -4.203  -8.559  0.00  0.00    -0.056 A 
HETATM    4  C           1     -21.474  -4.365  -9.582  0.00  0.00     0.010 A 
HETATM    5  C           1     -21.897  -4.417 -10.910  0.00  0.00     0.038 A 
HETATM    6  C           1     -23.253  -4.306 -11.215  0.00  0.00     0.081 A 
HETATM    7  C           1     -24.187  -4.144 -10.191  0.00  0.00     0.038 A 
HETATM    8  C           1     -23.764  -4.092  -8.863  0.00  0.00     0.010 A 
BRANCH   6   9
HETATM    9  O           1     -23.664  -4.357 -12.504  0.00  0.00    -0.247 OA
BRANCH   9  10
HETATM   10  P           1     -23.962  -2.962 -13.262  0.00  0.00     0.411 P 
HETATM   11  O           1     -25.377  -2.581 -13.059  0.00  0.00    -0.624 OA
HETATM   12  O           1     -23.695  -3.119 -14.709  0.00  0.00    -0.624 OA
BRANCH  10  13
HETATM   13  O           1     -23.005  -1.809 -12.658  0.00  0.00    -0.300 OA
HETATM   14  H           1     -22.358  -1.654 -13.326  0.00  0.00     0.223 HD
ENDBRANCH  10  13
ENDBRANCH   9  10
ENDBRANCH   6   9
ENDBRANCH   2   3
ENDBRANCH   1   2
BRANCH   1  15
HETATM   15  C           1     -20.072  -5.610  -6.462  0.00  0.00     0.197 C 
HETATM   16  O           1     -19.443  -6.645  -6.772  0.00  0.00    -0.646 OA
HETATM   17  O           1     -19.464  -4.629  -5.982  0.00  0.00    -0.646 OA
ENDBRANCH   1  15
BRANCH   1  18
HETATM   18  N           1     -22.239  -5.843  -5.420  0.00  0.00    -0.344 N 
HETATM   19  C           1     -21.637  -6.650  -4.492  0.00  0.00     0.249 C 
HETATM   20  O           1     -20.926  -6.169  -3.643  0.00  0.00    -0.271 OA
HETATM   21  H           1     -23.154  -5.453  -5.233  0.00  0.00     0.163 HD
BRANCH  19  22
HETATM   22  C           1     -21.863  -8.141  -4.532  0.00  0.00     0.284 C 
BRANCH  22  23
HETATM   23  C           1     -21.366  -8.766  -3.234  0.00  0.00     0.155 C 
BRANCH  23  24
HETATM   24  C           1     -20.115  -9.565  -3.507  0.00  0.00     0.175 C 
HETATM   25  O           1     -20.167 -10.813  -3.543  0.00  0.00    -0.648 OA
HETATM   26  O           1     -19.027  -8.979  -3.696  0.00  0.00    -0.648 OA
ENDBRANCH  23  24
ENDBRANCH  22  23
BRANCH  22  27
HETATM   27  N           1     -21.110  -8.730  -5.688  0.00  0.00    -0.066 N 
HETATM   28  H           1     -20.084  -8.671  -5.504  0.00  0.00     0.275 HD
HETATM   29  H           1     -21.385  -9.731  -5.808  0.00  0.00     0.275 HD
HETATM   30  H           1     -21.338  -8.199  -6.559  0.00  0.00     0.275 HD
ENDBRANCH  22  27
ENDBRANCH  19  22
ENDBRANCH   1  18
TORSDOF 11
ENDMDL
MODEL 4
REMARK VINA RESULT:      -7.4      2.052      3.159
REMARK  11 active torsions:
REMARK  status: ('A' for Active; 'I' for Inactive)
REMARK       I    between atoms: C_1  and  N_15 
REMARK    1  A    between atoms: C_1  and  C_13 
REMARK    2  A    between atoms: C_3  and  C_4 
REMARK    3  A    between atoms: C_4  and  C_5 
REMARK    4  A    between atoms: C_5  and  C_7 
REMARK    5  A    between atoms: C_5  and  N_15 
REMARK    6  A    between atoms: C_13  and  C_23 
REMARK    7  A    between atoms: C_13  and  N_30 
REMARK    8  A    between atoms: O_14  and  P_20 
REMARK    9  A    between atoms: C_18  and  O_19 
REMARK   10  A    between atoms: O_19  and  P_20 
REMARK   11  A    between atoms: C_23  and  C_25 
ROOT
HETATM    1  C           1     -21.184  -5.866  -7.490  0.00  0.00     0.189 C 
ENDROOT
BRANCH   1   2
HETATM    2  C           1     -21.877  -4.514  -7.381  0.00  0.00     0.074 C 
BRANCH   2   3
HETATM    3  C           1     -22.622  -4.232  -8.649  0.00  0.00    -0.056 A 
HETATM    4  C           1     -22.026  -4.495  -9.882  0.00  0.00     0.010 A 
HETATM    5  C           1     -22.720  -4.232 -11.062  0.00  0.00     0.038 A 
HETATM    6  C           1     -24.010  -3.704 -11.011  0.00  0.00     0.081 A 
HETATM    7  C           1     -24.607  -3.441  -9.777  0.00  0.00     0.038 A 
HETATM    8  C           1     -23.912  -3.705  -8.596  0.00  0.00     0.010 A 
BRANCH   6   9
HETATM    9  O           1     -24.684  -3.448 -12.157  0.00  0.00    -0.247 OA
BRANCH   9  10
HETATM   10  P           1     -23.864  -2.813 -13.394  0.00  0.00     0.411 P 
HETATM   11  O           1     -23.818  -3.785 -14.509  0.00  0.00    -0.624 OA
HETATM   12  O           1     -22.486  -2.493 -12.961  0.00  0.00    -0.624 OA
BRANCH  10  13
HETATM   13  O           1     -24.601  -1.463 -13.890  0.00  0.00    -0.300 OA
HETATM   14  H           1     -24.991  -1.689 -14.718  0.00  0.00     0.223 HD
ENDBRANCH  10  13
ENDBRANCH   9  10
ENDBRANCH   6   9
ENDBRANCH   2   3
ENDBRANCH   1   2
BRANCH   1  15
HETATM   15  C           1     -19.716  -5.706  -7.178  0.00  0.00     0.197 C 
HETATM   16  O           1     -18.990  -6.716  -7.055  0.00  0.00    -0.646 OA
HETATM   17  O           1     -19.227  -4.564  -7.044  0.00  0.00    -0.646 OA
ENDBRANCH   1  15
BRANCH   1  18
HETATM   18  N           1     -21.780  -6.791  -6.546  0.00  0.00    -0.344 N 
HETATM   19  C           1     -22.236  -6.338  -5.338  0.00  0.00     0.249 C 
HETATM   20  O           1     -23.377  -5.961  -5.225  0.00  0.00    -0.271 OA
HETATM   21  H           1     -21.860  -7.772  -6.781  0.00  0.00     0.163 HD
BRANCH  19  22
HETATM   22  C           1     -21.310  -6.310  -4.146  0.00  0.00     0.284 C 
BRANCH  22  23
HETATM   23  C           1     -20.605  -7.654  -4.018  0.00  0.00     0.155 C 
BRANCH  23  24
HETATM   24  C           1     -20.878  -8.238  -2.654  0.00  0.00     0.175 C 
HETATM   25  O           1     -21.796  -9.074  -2.504  0.00  0.00    -0.648 OA
HETATM   26  O           1     -20.187  -7.886  -1.673  0.00  0.00    -0.648 OA
ENDBRANCH  23  24
ENDBRANCH  22  23
BRANCH  22  27
HETATM   27  N           1     -22.105  -6.044  -2.902  0.00  0.00    -0.066 N 
HETATM   28  H           1     -21.650  -5.280  -2.353  0.00  0.00     0.275 HD
HETATM   29  H           1     -23.074  -5.755  -3.163  0.00  0.00     0.275 HD
HETATM   30  H           1     -22.144  -6.912  -2.322  0.00  0.00     0.275 HD
ENDBRANCH  22  27
ENDBRANCH  19  22
ENDBRANCH   1  18
TORSDOF 11
ENDMDL
MODEL 5
REMARK VINA RESULT:      -7.3      3.435      8.741
REMARK  11 active torsions:
REMARK  status: ('A' for Active; 'I' for Inactive)
REMARK       I    between atoms: C_1  and  N_15 
REMARK    1  A    between atoms: C_1  and  C_13 
REMARK    2  A    between atoms: C_3  and  C_4 
REMARK    3  A    between atoms: C_4  and  C_5 
REMARK    4  A    between atoms: C_5  and  C_7 
REMARK    5  A    between atoms: C_5  and  N_15 
REMARK    6  A    between atoms: C_13  and  C_23 
REMARK    7  A    between atoms: C_13  and  N_30 
REMARK    8  A    between atoms: O_14  and  P_20 
REMARK    9  A    between atoms: C_18  and  O_19 
REMARK   10  A    between atoms: O_19  and  P_20 
REMARK   11  A    between atoms: C_23  and  C_25 
ROOT
HETATM    1  C           1     -21.234  -5.669  -6.798  0.00  0.00     0.189 C 
ENDROOT
BRANCH   1   2
HETATM    2  C           1     -21.179  -7.146  -6.431  0.00  0.00     0.074 C 
BRANCH   2   3
HETATM    3  C           1     -21.138  -7.290  -4.942  0.00  0.00    -0.056 A 
HETATM    4  C           1     -20.197  -8.128  -4.347  0.00  0.00     0.010 A 
HETATM    5  C           1     -20.159  -8.262  -2.960  0.00  0.00     0.038 A 
HETATM    6  C           1     -21.064  -7.557  -2.166  0.00  0.00     0.081 A 
HETATM    7  C           1     -22.007  -6.718  -2.761  0.00  0.00     0.038 A 
HETATM    8  C           1     -22.044  -6.584  -4.149  0.00  0.00     0.010 A 
BRANCH   6   9
HETATM    9  O           1     -21.028  -7.686  -0.818  0.00  0.00    -0.247 OA
BRANCH   9  10
HETATM   10  P           1     -22.074  -8.701  -0.124  0.00  0.00     0.411 P 
HETATM   11  O           1     -23.233  -7.939   0.394  0.00  0.00    -0.624 OA
HETATM   12  O           1     -21.410  -9.410   0.992  0.00  0.00    -0.624 OA
BRANCH  10  13
HETATM   13  O           1     -22.586  -9.776  -1.217  0.00  0.00    -0.300 OA
HETATM   14  H           1     -21.860 -10.365  -1.338  0.00  0.00     0.223 HD
ENDBRANCH  10  13
ENDBRANCH   9  10
ENDBRANCH   6   9
ENDBRANCH   2   3
ENDBRANCH   1   2
BRANCH   1  15
HETATM   15  C           1     -19.986  -4.980  -6.301  0.00  0.00     0.197 C 
HETATM   16  O           1     -20.004  -4.362  -5.215  0.00  0.00    -0.646 OA
HETATM   17  O           1     -18.935  -5.029  -6.976  0.00  0.00    -0.646 OA
ENDBRANCH   1  15
BRANCH   1  18
HETATM   18  N           1     -21.320  -5.532  -8.239  0.00  0.00    -0.344 N 
HETATM   19  C           1     -21.990  -4.472  -8.787  0.00  0.00     0.249 C 
HETATM   20  O           1     -21.402  -3.446  -9.029  0.00  0.00    -0.271 OA
HETATM   21  H           1     -20.885  -6.221  -8.839  0.00  0.00     0.163 HD
BRANCH  19  22
HETATM   22  C           1     -23.464  -4.587  -9.089  0.00  0.00     0.284 C 
BRANCH  22  23
HETATM   23  C           1     -23.663  -4.784 -10.587  0.00  0.00     0.155 C 
BRANCH  23  24
HETATM   24  C           1     -24.058  -3.472 -11.219  0.00  0.00     0.175 C 
HETATM   25  O           1     -25.261  -3.133 -11.257  0.00  0.00    -0.648 OA
HETATM   26  O           1     -23.183  -2.723 -11.706  0.00  0.00    -0.648 OA
ENDBRANCH  23  24
ENDBRANCH  22  23
BRANCH  22  27
HETATM   27  N           1     -24.163  -3.332  -8.655  0.00  0.00    -0.066 N 
HETATM   28  H           1     -23.459  -2.576  -8.501  0.00  0.00     0.275 HD
HETATM   29  H           1     -24.836  -3.036  -9.395  0.00  0.00     0.275 HD
HETATM   30  H           1     -24.679  -3.513  -7.765  0.00  0.00     0.275 HD
ENDBRANCH  22  27
ENDBRANCH  19  22
ENDBRANCH   1  18
TORSDOF 11
ENDMDL
MODEL 6
REMARK VINA RESULT:      -7.3      3.389      8.628
REMARK  11 active torsions:
REMARK  status: ('A' for Active; 'I' for Inactive)
REMARK       I    between atoms: C_1  and  N_15 
REMARK    1  A    between atoms: C_1  and  C_13 
REMARK    2  A    between atoms: C_3  and  C_4 
REMARK    3  A    between atoms: C_4  and  C_5 
REMARK    4  A    between atoms: C_5  and  C_7 
REMARK    5  A    between atoms: C_5  and  N_15 
REMARK    6  A    between atoms: C_13  and  C_23 
REMARK    7  A    between atoms: C_13  and  N_30 
REMARK    8  A    between atoms: O_14  and  P_20 
REMARK    9  A    between atoms: C_18  and  O_19 
REMARK   10  A    between atoms: O_19  and  P_20 
REMARK   11  A    between atoms: C_23  and  C_25 
ROOT
HETATM    1  C           1     -20.778  -5.067  -6.153  0.00  0.00     0.189 C 
ENDROOT
BRANCH   1   2
HETATM    2  C           1     -21.600  -6.327  -5.915  0.00  0.00     0.074 C 
BRANCH   2   3
HETATM    3  C           1     -21.359  -6.825  -4.524  0.00  0.00    -0.056 A 
HETATM    4  C           1     -21.988  -6.209  -3.444  0.00  0.00     0.010 A 
HETATM    5  C           1     -21.764  -6.673  -2.148  0.00  0.00     0.038 A 
HETATM    6  C           1     -20.909  -7.755  -1.933  0.00  0.00     0.081 A 
HETATM    7  C           1     -20.280  -8.372  -3.015  0.00  0.00     0.038 A 
HETATM    8  C           1     -20.505  -7.907  -4.310  0.00  0.00     0.010 A 
BRANCH   6   9
HETATM    9  O           1     -20.691  -8.207  -0.675  0.00  0.00    -0.247 OA
BRANCH   9  10
HETATM   10  P           1     -21.850  -9.085   0.028  0.00  0.00     0.411 P 
HETATM   11  O           1     -22.755  -8.193   0.787  0.00  0.00    -0.624 OA
HETATM   12  O           1     -21.236 -10.066   0.950  0.00  0.00    -0.624 OA
BRANCH  10  13
HETATM   13  O           1     -22.694  -9.866  -1.107  0.00  0.00    -0.300 OA
HETATM   14  H           1     -22.708 -10.765  -0.825  0.00  0.00     0.223 HD
ENDBRANCH  10  13
ENDBRANCH   9  10
ENDBRANCH   6   9
ENDBRANCH   2   3
ENDBRANCH   1   2
BRANCH   1  15
HETATM   15  C           1     -19.643  -5.376  -7.098  0.00  0.00     0.197 C 
HETATM   16  O           1     -18.907  -4.455  -7.513  0.00  0.00    -0.646 OA
HETATM   17  O           1     -19.440  -6.554  -7.466  0.00  0.00    -0.646 OA
ENDBRANCH   1  15
BRANCH   1  18
HETATM   18  N           1     -21.623  -4.041  -6.732  0.00  0.00    -0.344 N 
HETATM   19  C           1     -22.789  -4.387  -7.359  0.00  0.00     0.249 C 
HETATM   20  O           1     -23.817  -4.453  -6.730  0.00  0.00    -0.271 OA
HETATM   21  H           1     -21.351  -3.068  -6.671  0.00  0.00     0.163 HD
BRANCH  19  22
HETATM   22  C           1     -22.788  -4.688  -8.838  0.00  0.00     0.284 C 
BRANCH  22  23
HETATM   23  C           1     -21.808  -3.760  -9.545  0.00  0.00     0.155 C 
BRANCH  23  24
HETATM   24  C           1     -22.163  -3.674 -11.009  0.00  0.00     0.175 C 
HETATM   25  O           1     -22.726  -2.651 -11.457  0.00  0.00    -0.648 OA
HETATM   26  O           1     -21.895  -4.625 -11.775  0.00  0.00    -0.648 OA
ENDBRANCH  23  24
ENDBRANCH  22  23
BRANCH  22  27
HETATM   27  N           1     -24.165  -4.474  -9.393  0.00  0.00    -0.066 N 
HETATM   28  H           1     -24.722  -5.352  -9.292  0.00  0.00     0.275 HD
HETATM   29  H           1     -24.634  -3.702  -8.870  0.00  0.00     0.275 HD
HETATM   30  H           1     -24.097  -4.220 -10.404  0.00  0.00     0.275 HD
ENDBRANCH  22  27
ENDBRANCH  19  22
ENDBRANCH   1  18
TORSDOF 11
ENDMDL
MODEL 7
REMARK VINA RESULT:      -7.0      3.413      8.588
REMARK  11 active torsions:
REMARK  status: ('A' for Active; 'I' for Inactive)
REMARK       I    between atoms: C_1  and  N_15 
REMARK    1  A    between atoms: C_1  and  C_13 
REMARK    2  A    between atoms: C_3  and  C_4 
REMARK    3  A    between atoms: C_4  and  C_5 
REMARK    4  A    between atoms: C_5  and  C_7 
REMARK    5  A    between atoms: C_5  and  N_15 
REMARK    6  A    between atoms: C_13  and  C_23 
REMARK    7  A    between atoms: C_13  and  N_30 
REMARK    8  A    between atoms: O_14  and  P_20 
REMARK    9  A    between atoms: C_18  and  O_19 
REMARK   10  A    between atoms: O_19  and  P_20 
REMARK   11  A    between atoms: C_23  and  C_25 
ROOT
HETATM    1  C           1     -21.003  -4.354  -7.112  0.00  0.00     0.189 C 
ENDROOT
BRANCH   1   2
HETATM    2  C           1     -21.470  -5.802  -7.179  0.00  0.00     0.074 C 
BRANCH   2   3
HETATM    3  C           1     -21.199  -6.475  -5.870  0.00  0.00    -0.056 A 
HETATM    4  C           1     -21.952  -6.142  -4.745  0.00  0.00     0.010 A 
HETATM    5  C           1     -21.700  -6.770  -3.526  0.00  0.00     0.038 A 
HETATM    6  C           1     -20.693  -7.730  -3.431  0.00  0.00     0.081 A 
HETATM    7  C           1     -19.939  -8.064  -4.556  0.00  0.00     0.038 A 
HETATM    8  C           1     -20.192  -7.436  -5.776  0.00  0.00     0.010 A 
BRANCH   6   9
HETATM    9  O           1     -20.448  -8.340  -2.246  0.00  0.00    -0.247 OA
BRANCH   9  10
HETATM   10  P           1     -21.440  -9.527  -1.784  0.00  0.00     0.411 P 
HETATM   11  O           1     -22.092 -10.118  -2.973  0.00  0.00    -0.624 OA
HETATM   12  O           1     -22.473  -8.981  -0.874  0.00  0.00    -0.624 OA
BRANCH  10  13
HETATM   13  O           1     -20.592 -10.667  -1.015  0.00  0.00    -0.300 OA
HETATM   14  H           1     -20.307 -11.257  -1.692  0.00  0.00     0.223 HD
ENDBRANCH  10  13
ENDBRANCH   9  10
ENDBRANCH   6   9
ENDBRANCH   2   3
ENDBRANCH   1   2
BRANCH   1  15
HETATM   15  C           1     -19.628  -4.238  -7.723  0.00  0.00     0.197 C 
HETATM   16  O           1     -18.620  -4.562  -7.058  0.00  0.00    -0.646 OA
HETATM   17  O           1     -19.497  -3.820  -8.893  0.00  0.00    -0.646 OA
ENDBRANCH   1  15
BRANCH   1  18
HETATM   18  N           1     -21.929  -3.514  -7.845  0.00  0.00    -0.344 N 
HETATM   19  C           1     -22.942  -4.081  -8.570  0.00  0.00     0.249 C 
HETATM   20  O           1     -24.013  -4.289  -8.052  0.00  0.00    -0.271 OA
HETATM   21  H           1     -21.828  -2.507  -7.820  0.00  0.00     0.163 HD
BRANCH  19  22
HETATM   22  C           1     -22.720  -4.447 -10.017  0.00  0.00     0.284 C 
BRANCH  22  23
HETATM   23  C           1     -22.779  -3.190 -10.875  0.00  0.00     0.155 C 
BRANCH  23  24
HETATM   24  C           1     -24.015  -3.228 -11.740  0.00  0.00     0.175 C 
HETATM   25  O           1     -25.143  -3.067 -11.226  0.00  0.00    -0.648 OA
HETATM   26  O           1     -23.911  -3.422 -12.971  0.00  0.00    -0.648 OA
ENDBRANCH  23  24
ENDBRANCH  22  23
BRANCH  22  27
HETATM   27  N           1     -23.787  -5.404 -10.461  0.00  0.00    -0.066 N 
HETATM   28  H           1     -24.674  -5.200  -9.948  0.00  0.00     0.275 HD
HETATM   29  H           1     -23.945  -5.296 -11.487  0.00  0.00     0.275 HD
HETATM   30  H           1     -23.484  -6.383 -10.255  0.00  0.00     0.275 HD
ENDBRANCH  22  27
ENDBRANCH  19  22
ENDBRANCH   1  18
TORSDOF 11
ENDMDL
MODEL 8
REMARK VINA RESULT:      -6.8      2.642      4.680
REMARK  11 active torsions:
REMARK  status: ('A' for Active; 'I' for Inactive)
REMARK       I    between atoms: C_1  and  N_15 
REMARK    1  A    between atoms: C_1  and  C_13 
REMARK    2  A    between atoms: C_3  and  C_4 
REMARK    3  A    between atoms: C_4  and  C_5 
REMARK    4  A    between atoms: C_5  and  C_7 
REMARK    5  A    between atoms: C_5  and  N_15 
REMARK    6  A    between atoms: C_13  and  C_23 
REMARK    7  A    between atoms: C_13  and  N_30 
REMARK    8  A    between atoms: O_14  and  P_20 
REMARK    9  A    between atoms: C_18  and  O_19 
REMARK   10  A    between atoms: O_19  and  P_20 
REMARK   11  A    between atoms: C_23  and  C_25 
ROOT
HETATM    1  C           1     -20.942  -7.411  -3.787  0.00  0.00     0.189 C 
ENDROOT
BRANCH   1   2
HETATM    2  C           1     -22.021  -7.295  -4.855  0.00  0.00     0.074 C 
BRANCH   2   3
HETATM    3  C           1     -21.575  -6.335  -5.913  0.00  0.00    -0.056 A 
HETATM    4  C           1     -20.277  -6.406  -6.418  0.00  0.00     0.010 A 
HETATM    5  C           1     -19.862  -5.511  -7.404  0.00  0.00     0.038 A 
HETATM    6  C           1     -20.745  -4.544  -7.885  0.00  0.00     0.081 A 
HETATM    7  C           1     -22.043  -4.473  -7.380  0.00  0.00     0.038 A 
HETATM    8  C           1     -22.458  -5.368  -6.394  0.00  0.00     0.010 A 
BRANCH   6   9
HETATM    9  O           1     -20.342  -3.676  -8.843  0.00  0.00    -0.247 OA
BRANCH   9  10
HETATM   10  P           1     -20.590  -4.079 -10.387  0.00  0.00     0.411 P 
HETATM   11  O           1     -21.972  -4.582 -10.550  0.00  0.00    -0.624 OA
HETATM   12  O           1     -19.631  -5.134 -10.782  0.00  0.00    -0.624 OA
BRANCH  10  13
HETATM   13  O           1     -20.379  -2.779 -11.322  0.00  0.00    -0.300 OA
HETATM   14  H           1     -20.189  -3.123 -12.179  0.00  0.00     0.223 HD
ENDBRANCH  10  13
ENDBRANCH   9  10
ENDBRANCH   6   9
ENDBRANCH   2   3
ENDBRANCH   1   2
BRANCH   1  15
HETATM   15  C           1     -21.446  -6.820  -2.494  0.00  0.00     0.197 C 
HETATM   16  O           1     -21.060  -7.288  -1.400  0.00  0.00    -0.646 OA
HETATM   17  O           1     -22.250  -5.863  -2.516  0.00  0.00    -0.646 OA
ENDBRANCH   1  15
BRANCH   1  18
HETATM   18  N           1     -20.613  -8.809  -3.584  0.00  0.00    -0.344 N 
HETATM   19  C           1     -19.418  -9.303  -4.032  0.00  0.00     0.249 C 
HETATM   20  O           1     -18.448  -9.283  -3.314  0.00  0.00    -0.271 OA
HETATM   21  H           1     -21.266  -9.418  -3.109  0.00  0.00     0.163 HD
BRANCH  19  22
HETATM   22  C           1     -19.314  -9.873  -5.426  0.00  0.00     0.284 C 
BRANCH  22  23
HETATM   23  C           1     -19.023 -11.366  -5.345  0.00  0.00     0.155 C 
BRANCH  23  24
HETATM   24  C           1     -18.392 -11.826  -6.637  0.00  0.00     0.175 C 
HETATM   25  O           1     -17.235 -12.300  -6.633  0.00  0.00    -0.648 OA
HETATM   26  O           1     -19.026 -11.734  -7.710  0.00  0.00    -0.648 OA
ENDBRANCH  23  24
ENDBRANCH  22  23
BRANCH  22  27
HETATM   27  N           1     -18.202  -9.187  -6.165  0.00  0.00    -0.066 N 
HETATM   28  H           1     -17.899  -8.341  -5.633  0.00  0.00     0.275 HD
HETATM   29  H           1     -17.396  -9.844  -6.265  0.00  0.00     0.275 HD
HETATM   30  H           1     -18.539  -8.900  -7.112  0.00  0.00     0.275 HD
ENDBRANCH  22  27
ENDBRANCH  19  22
ENDBRANCH   1  18
TORSDOF 11
ENDMDL
MODEL 9
REMARK VINA RESULT:      -6.7      3.530      8.971
REMARK  11 active torsions:
REMARK  status: ('A' for Active; 'I' for Inactive)
REMARK       I    between atoms: C_1  and  N_15 
REMARK    1  A    between atoms: C_1  and  C_13 
REMARK    2  A    between atoms: C_3  and  C_4 
REMARK    3  A    between atoms: C_4  and  C_5 
REMARK    4  A    between atoms: C_5  and  C_7 
REMARK    5  A    between atoms: C_5  and  N_15 
REMARK    6  A    between atoms: C_13  and  C_23 
REMARK    7  A    between atoms: C_13  and  N_30 
REMARK    8  A    between atoms: O_14  and  P_20 
REMARK    9  A    between atoms: C_18  and  O_19 
REMARK   10  A    between atoms: O_19  and  P_20 
REMARK   11  A    between atoms: C_23  and  C_25 
ROOT
HETATM    1  C           1     -21.076  -5.197  -8.127  0.00  0.00     0.189 C 
ENDROOT
BRANCH   1   2
HETATM    2  C           1     -19.962  -5.421  -7.112  0.00  0.00     0.074 C 
BRANCH   2   3
HETATM    3  C           1     -20.490  -6.218  -5.960  0.00  0.00    -0.056 A 
HETATM    4  C           1     -20.694  -7.590  -6.097  0.00  0.00     0.010 A 
HETATM    5  C           1     -21.185  -8.333  -5.023  0.00  0.00     0.038 A 
HETATM    6  C           1     -21.473  -7.703  -3.813  0.00  0.00     0.081 A 
HETATM    7  C           1     -21.268  -6.330  -3.675  0.00  0.00     0.038 A 
HETATM    8  C           1     -20.777  -5.588  -4.749  0.00  0.00     0.010 A 
BRANCH   6   9
HETATM    9  O           1     -21.950  -8.424  -2.770  0.00  0.00    -0.247 OA
BRANCH   9  10
HETATM   10  P           1     -20.902  -8.913  -1.642  0.00  0.00     0.411 P 
HETATM   11  O           1     -21.269 -10.270  -1.181  0.00  0.00    -0.624 OA
HETATM   12  O           1     -20.936  -7.976  -0.497  0.00  0.00    -0.624 OA
BRANCH  10  13
HETATM   13  O           1     -19.414  -8.944  -2.270  0.00  0.00    -0.300 OA
HETATM   14  H           1     -19.372  -8.192  -2.837  0.00  0.00     0.223 HD
ENDBRANCH  10  13
ENDBRANCH   9  10
ENDBRANCH   6   9
ENDBRANCH   2   3
ENDBRANCH   1   2
BRANCH   1  15
HETATM   15  C           1     -21.988  -4.098  -7.640  0.00  0.00     0.197 C 
HETATM   16  O           1     -23.226  -4.205  -7.783  0.00  0.00    -0.646 OA
HETATM   17  O           1     -21.506  -3.082  -7.095  0.00  0.00    -0.646 OA
ENDBRANCH   1  15
BRANCH   1  18
HETATM   18  N           1     -20.498  -4.817  -9.401  0.00  0.00    -0.344 N 
HETATM   19  C           1     -21.205  -4.025 -10.265  0.00  0.00     0.249 C 
HETATM   20  O           1     -21.104  -2.824 -10.203  0.00  0.00    -0.271 OA
HETATM   21  H           1     -19.571  -5.137  -9.652  0.00  0.00     0.163 HD
BRANCH  19  22
HETATM   22  C           1     -22.112  -4.655 -11.293  0.00  0.00     0.284 C 
BRANCH  22  23
HETATM   23  C           1     -22.349  -3.671 -12.433  0.00  0.00     0.155 C 
BRANCH  23  24
HETATM   24  C           1     -23.833  -3.493 -12.643  0.00  0.00     0.175 C 
HETATM   25  O           1     -24.482  -2.725 -11.900  0.00  0.00    -0.648 OA
HETATM   26  O           1     -24.413  -4.112 -13.561  0.00  0.00    -0.648 OA
ENDBRANCH  23  24
ENDBRANCH  22  23
BRANCH  22  27
HETATM   27  N           1     -23.425  -5.004 -10.656  0.00  0.00    -0.066 N 
HETATM   28  H           1     -24.055  -5.435 -11.368  0.00  0.00     0.275 HD
HETATM   29  H           1     -23.263  -5.681  -9.878  0.00  0.00     0.275 HD
HETATM   30  H           1     -23.869  -4.137 -10.277  0.00  0.00     0.275 HD
ENDBRANCH  22  27
ENDBRANCH  19  22
ENDBRANCH   1  18
TORSDOF 11
ENDMDL
