MODEL 1
REMARK VINA RESULT:      -9.9      0.000      0.000
REMARK  11 active torsions:
REMARK  status: ('A' for Active; 'I' for Inactive)
REMARK    1  A    between atoms: N_2  and  C_26 
REMARK       I    between atoms: N_2  and  C_3 
REMARK    2  A    between atoms: C_3  and  C_4 
REMARK    3  A    between atoms: C_4  and  C_5 
REMARK    4  A    between atoms: C_4  and  N_17 
REMARK    5  A    between atoms: C_5  and  C_6 
REMARK    6  A    between atoms: C_9  and  O_10 
REMARK    7  A    between atoms: O_10  and  P_11 
REMARK    8  A    between atoms: P_11  and  O_12 
REMARK    9  A    between atoms: C_24  and  C_26 
REMARK   10  A    between atoms: C_26  and  C_27 
REMARK   11  A    between atoms: C_27  and  C_28 
ROOT
HETATM    1  N           1     -20.813  -7.412  -6.118  0.00  0.00    -0.344 N 
HETATM    2  C           1     -20.177  -6.350  -6.703  0.00  0.00     0.249 C 
HETATM    3  O           1     -19.205  -6.535  -7.396  0.00  0.00    -0.271 OA
HETATM    4  H           1     -21.565  -7.883  -6.605  0.00  0.00     0.163 HD
ENDROOT
BRANCH   2   5
HETATM    5  C           1     -20.691  -4.948  -6.483  0.00  0.00     0.278 C 
BRANCH   5   6
HETATM    6  C           1     -20.211  -4.048  -7.614  0.00  0.00     0.081 C 
BRANCH   6   7
HETATM    7  C           1     -21.124  -4.196  -8.791  0.00  0.00    -0.056 A 
HETATM    8  C           1     -20.592  -4.327 -10.074  0.00  0.00     0.010 A 
HETATM    9  C           1     -21.443  -4.464 -11.171  0.00  0.00     0.038 A 
HETATM   10  C           1     -22.825  -4.472 -10.985  0.00  0.00     0.081 A 
HETATM   11  C           1     -23.357  -4.340  -9.702  0.00  0.00     0.038 A 
HETATM   12  C           1     -22.506  -4.202  -8.605  0.00  0.00     0.010 A 
BRANCH  10  13
HETATM   13  O           1     -23.652  -4.605 -12.050  0.00  0.00    -0.247 OA
BRANCH  13  14
HETATM   14  P           1     -23.971  -3.289 -12.932  0.00  0.00     0.411 P 
HETATM   15  O           1     -25.382  -2.891 -12.729  0.00  0.00    -0.624 OA
HETATM   16  O           1     -23.080  -2.186 -12.510  0.00  0.00    -0.624 OA
BRANCH  14  17
HETATM   17  O           1     -23.723  -3.614 -14.494  0.00  0.00    -0.300 OA
HETATM   18  H           1     -24.369  -4.264 -14.713  0.00  0.00     0.223 HD
ENDBRANCH  14  17
ENDBRANCH  13  14
ENDBRANCH  10  13
ENDBRANCH   6   7
ENDBRANCH   5   6
BRANCH   5  19
HETATM   19  N           1     -20.172  -4.426  -5.175  0.00  0.00    -0.066 N 
HETATM   20  H           1     -19.228  -4.003  -5.320  0.00  0.00     0.275 HD
HETATM   21  H           1     -20.826  -3.699  -4.807  0.00  0.00     0.275 HD
HETATM   22  H           1     -20.101  -5.211  -4.490  0.00  0.00     0.275 HD
ENDBRANCH   5  19
ENDBRANCH   2   5
BRANCH   1  23
HETATM   23  C           1     -20.410  -7.861  -4.800  0.00  0.00     0.190 C 
BRANCH  23  24
HETATM   24  C           1     -19.303  -8.879  -4.932  0.00  0.00     0.197 C 
HETATM   25  O           1     -18.496  -9.050  -3.994  0.00  0.00    -0.646 OA
HETATM   26  O           1     -19.194  -9.551  -5.980  0.00  0.00    -0.646 OA
ENDBRANCH  23  24
BRANCH  23  27
HETATM   27  C           1     -21.601  -8.494  -4.093  0.00  0.00     0.077 C 
BRANCH  27  28
HETATM   28  C           1     -21.760  -7.884  -2.736  0.00  0.00    -0.028 A 
HETATM   29  C           1     -22.178  -6.600  -2.468  0.00  0.00     0.096 A 
HETATM   30  N           1     -22.188  -6.438  -1.108  0.00  0.00    -0.365 N 
HETATM   31  H           1     -22.465  -5.555  -0.611  0.00  0.00     0.165 HD
HETATM   32  C           1     -21.783  -7.599  -0.488  0.00  0.00     0.042 A 
HETATM   33  C           1     -21.641  -7.895   0.874  0.00  0.00     0.030 A 
HETATM   34  C           1     -21.507  -8.526  -1.492  0.00  0.00    -0.002 A 
HETATM   35  C           1     -21.205  -9.178   1.213  0.00  0.00     0.002 A 
HETATM   36  C           1     -20.922 -10.125   0.231  0.00  0.00     0.001 A 
HETATM   37  C           1     -21.069  -9.812  -1.126  0.00  0.00     0.014 A 
ENDBRANCH  27  28
ENDBRANCH  23  27
ENDBRANCH   1  23
TORSDOF 11
ENDMDL
MODEL 2
REMARK VINA RESULT:      -9.6      1.346      1.983
REMARK  11 active torsions:
REMARK  status: ('A' for Active; 'I' for Inactive)
REMARK    1  A    between atoms: N_2  and  C_26 
REMARK       I    between atoms: N_2  and  C_3 
REMARK    2  A    between atoms: C_3  and  C_4 
REMARK    3  A    between atoms: C_4  and  C_5 
REMARK    4  A    between atoms: C_4  and  N_17 
REMARK    5  A    between atoms: C_5  and  C_6 
REMARK    6  A    between atoms: C_9  and  O_10 
REMARK    7  A    between atoms: O_10  and  P_11 
REMARK    8  A    between atoms: P_11  and  O_12 
REMARK    9  A    between atoms: C_24  and  C_26 
REMARK   10  A    between atoms: C_26  and  C_27 
REMARK   11  A    between atoms: C_27  and  C_28 
ROOT
HETATM    1  N           1     -19.864  -7.194  -6.144  0.00  0.00    -0.344 N 
HETATM    2  C           1     -20.330  -5.908  -6.094  0.00  0.00     0.249 C 
HETATM    3  O           1     -19.590  -5.011  -5.765  0.00  0.00    -0.271 OA
HETATM    4  H           1     -19.460  -7.554  -7.000  0.00  0.00     0.163 HD
ENDROOT
BRANCH   2   5
HETATM    5  C           1     -21.765  -5.611  -6.452  0.00  0.00     0.278 C 
BRANCH   5   6
HETATM    6  C           1     -21.865  -4.201  -7.022  0.00  0.00     0.081 C 
BRANCH   6   7
HETATM    7  C           1     -22.309  -4.271  -8.450  0.00  0.00    -0.056 A 
HETATM    8  C           1     -21.364  -4.416  -9.467  0.00  0.00     0.010 A 
HETATM    9  C           1     -21.777  -4.480 -10.798  0.00  0.00     0.038 A 
HETATM   10  C           1     -23.134  -4.399 -11.111  0.00  0.00     0.081 A 
HETATM   11  C           1     -24.078  -4.254 -10.095  0.00  0.00     0.038 A 
HETATM   12  C           1     -23.665  -4.190  -8.764  0.00  0.00     0.010 A 
BRANCH  10  13
HETATM   13  O           1     -23.535  -4.461 -12.405  0.00  0.00    -0.247 OA
BRANCH  13  14
HETATM   14  P           1     -24.026  -3.095 -13.113  0.00  0.00     0.411 P 
HETATM   15  O           1     -23.835  -3.203 -14.576  0.00  0.00    -0.624 OA
HETATM   16  O           1     -25.459  -2.874 -12.815  0.00  0.00    -0.624 OA
BRANCH  14  17
HETATM   17  O           1     -23.162  -1.854 -12.546  0.00  0.00    -0.300 OA
HETATM   18  H           1     -22.381  -2.243 -12.191  0.00  0.00     0.223 HD
ENDBRANCH  14  17
ENDBRANCH  13  14
ENDBRANCH  10  13
ENDBRANCH   6   7
ENDBRANCH   5   6
BRANCH   5  19
HETATM   19  N           1     -22.617  -5.713  -5.221  0.00  0.00    -0.066 N 
HETATM   20  H           1     -22.440  -4.887  -4.607  0.00  0.00     0.275 HD
HETATM   21  H           1     -23.626  -5.732  -5.497  0.00  0.00     0.275 HD
HETATM   22  H           1     -22.380  -6.590  -4.705  0.00  0.00     0.275 HD
ENDBRANCH   5  19
ENDBRANCH   2   5
BRANCH   1  23
HETATM   23  C           1     -19.950  -8.042  -4.971  0.00  0.00     0.190 C 
BRANCH  23  24
HETATM   24  C           1     -18.808  -9.028  -4.978  0.00  0.00     0.197 C 
HETATM   25  O           1     -18.207  -9.294  -3.915  0.00  0.00    -0.646 OA
HETATM   26  O           1     -18.462  -9.576  -6.046  0.00  0.00    -0.646 OA
ENDBRANCH  23  24
BRANCH  23  27
HETATM   27  C           1     -21.273  -8.797  -4.987  0.00  0.00     0.077 C 
BRANCH  27  28
HETATM   28  C           1     -21.540  -9.368  -3.630  0.00  0.00    -0.028 A 
HETATM   29  C           1     -21.554 -10.704  -3.300  0.00  0.00     0.096 A 
HETATM   30  N           1     -21.837 -10.802  -1.964  0.00  0.00    -0.365 N 
HETATM   31  H           1     -21.912 -11.704  -1.431  0.00  0.00     0.165 HD
HETATM   32  C           1     -22.007  -9.549  -1.419  0.00  0.00     0.042 A 
HETATM   33  C           1     -22.306  -9.166  -0.106  0.00  0.00     0.030 A 
HETATM   34  C           1     -21.826  -8.627  -2.450  0.00  0.00    -0.002 A 
HETATM   35  C           1     -22.421  -7.798   0.157  0.00  0.00     0.002 A 
HETATM   36  C           1     -22.244  -6.854  -0.852  0.00  0.00     0.001 A 
HETATM   37  C           1     -21.946  -7.254  -2.160  0.00  0.00     0.014 A 
ENDBRANCH  27  28
ENDBRANCH  23  27
ENDBRANCH   1  23
TORSDOF 11
ENDMDL
MODEL 3
REMARK VINA RESULT:      -9.2      1.794      2.341
REMARK  11 active torsions:
REMARK  status: ('A' for Active; 'I' for Inactive)
REMARK    1  A    between atoms: N_2  and  C_26 
REMARK       I    between atoms: N_2  and  C_3 
REMARK    2  A    between atoms: C_3  and  C_4 
REMARK    3  A    between atoms: C_4  and  C_5 
REMARK    4  A    between atoms: C_4  and  N_17 
REMARK    5  A    between atoms: C_5  and  C_6 
REMARK    6  A    between atoms: C_9  and  O_10 
REMARK    7  A    between atoms: O_10  and  P_11 
REMARK    8  A    between atoms: P_11  and  O_12 
REMARK    9  A    between atoms: C_24  and  C_26 
REMARK   10  A    between atoms: C_26  and  C_27 
REMARK   11  A    between atoms: C_27  and  C_28 
ROOT
HETATM    1  N           1     -21.210  -7.695  -6.354  0.00  0.00    -0.344 N 
HETATM    2  C           1     -20.257  -6.764  -6.671  0.00  0.00     0.249 C 
HETATM    3  O           1     -19.086  -7.033  -6.550  0.00  0.00    -0.271 OA
HETATM    4  H           1     -21.545  -8.337  -7.060  0.00  0.00     0.163 HD
ENDROOT
BRANCH   2   5
HETATM    5  C           1     -20.671  -5.402  -7.174  0.00  0.00     0.278 C 
BRANCH   5   6
HETATM    6  C           1     -19.819  -5.026  -8.379  0.00  0.00     0.081 C 
BRANCH   6   7
HETATM    7  C           1     -20.671  -4.330  -9.395  0.00  0.00    -0.056 A 
HETATM    8  C           1     -20.142  -4.008 -10.645  0.00  0.00     0.010 A 
HETATM    9  C           1     -20.936  -3.359 -11.591  0.00  0.00     0.038 A 
HETATM   10  C           1     -22.259  -3.034 -11.287  0.00  0.00     0.081 A 
HETATM   11  C           1     -22.786  -3.357 -10.037  0.00  0.00     0.038 A 
HETATM   12  C           1     -21.992  -4.005  -9.091  0.00  0.00     0.010 A 
BRANCH  10  13
HETATM   13  O           1     -23.030  -2.404 -12.207  0.00  0.00    -0.247 OA
BRANCH  13  14
HETATM   14  P           1     -24.037  -3.301 -13.095  0.00  0.00     0.411 P 
HETATM   15  O           1     -25.435  -2.953 -12.756  0.00  0.00    -0.624 OA
HETATM   16  O           1     -23.795  -3.037 -14.531  0.00  0.00    -0.624 OA
BRANCH  14  17
HETATM   17  O           1     -23.781  -4.865 -12.785  0.00  0.00    -0.300 OA
HETATM   18  H           1     -22.858  -4.992 -12.917  0.00  0.00     0.223 HD
ENDBRANCH  14  17
ENDBRANCH  13  14
ENDBRANCH  10  13
ENDBRANCH   6   7
ENDBRANCH   5   6
BRANCH   5  19
HETATM   19  N           1     -20.473  -4.388  -6.086  0.00  0.00    -0.066 N 
HETATM   20  H           1     -19.859  -3.618  -6.437  0.00  0.00     0.275 HD
HETATM   21  H           1     -21.399  -3.994  -5.805  0.00  0.00     0.275 HD
HETATM   22  H           1     -20.023  -4.845  -5.261  0.00  0.00     0.275 HD
ENDBRANCH   5  19
ENDBRANCH   2   5
BRANCH   1  23
HETATM   23  C           1     -21.739  -7.760  -5.005  0.00  0.00     0.190 C 
BRANCH  23  24
HETATM   24  C           1     -22.262  -6.402  -4.605  0.00  0.00     0.197 C 
HETATM   25  O           1     -21.643  -5.718  -3.762  0.00  0.00    -0.646 OA
HETATM   26  O           1     -23.314  -5.963  -5.115  0.00  0.00    -0.646 OA
ENDBRANCH  23  24
BRANCH  23  27
HETATM   27  C           1     -20.633  -8.182  -4.047  0.00  0.00     0.077 C 
BRANCH  27  28
HETATM   28  C           1     -21.186  -9.134  -3.033  0.00  0.00    -0.028 A 
HETATM   29  C           1     -21.187 -10.507  -3.125  0.00  0.00     0.096 A 
HETATM   30  N           1     -21.783 -11.002  -1.996  0.00  0.00    -0.365 N 
HETATM   31  H           1     -21.925 -12.022  -1.790  0.00  0.00     0.165 HD
HETATM   32  C           1     -22.170  -9.970  -1.170  0.00  0.00     0.042 A 
HETATM   33  C           1     -22.809  -9.999   0.076  0.00  0.00     0.030 A 
HETATM   34  C           1     -21.805  -8.781  -1.801  0.00  0.00    -0.002 A 
HETATM   35  C           1     -23.081  -8.774   0.691  0.00  0.00     0.002 A 
HETATM   36  C           1     -22.727  -7.571   0.083  0.00  0.00     0.001 A 
HETATM   37  C           1     -22.088  -7.560  -1.162  0.00  0.00     0.014 A 
ENDBRANCH  27  28
ENDBRANCH  23  27
ENDBRANCH   1  23
TORSDOF 11
ENDMDL
MODEL 4
REMARK VINA RESULT:      -8.9      2.517      4.226
REMARK  11 active torsions:
REMARK  status: ('A' for Active; 'I' for Inactive)
REMARK    1  A    between atoms: N_2  and  C_26 
REMARK       I    between atoms: N_2  and  C_3 
REMARK    2  A    between atoms: C_3  and  C_4 
REMARK    3  A    between atoms: C_4  and  C_5 
REMARK    4  A    between atoms: C_4  and  N_17 
REMARK    5  A    between atoms: C_5  and  C_6 
REMARK    6  A    between atoms: C_9  and  O_10 
REMARK    7  A    between atoms: O_10  and  P_11 
REMARK    8  A    between atoms: P_11  and  O_12 
REMARK    9  A    between atoms: C_24  and  C_26 
REMARK   10  A    between atoms: C_26  and  C_27 
REMARK   11  A    between atoms: C_27  and  C_28 
ROOT
HETATM    1  N           1     -21.291  -6.472  -3.118  0.00  0.00    -0.344 N 
HETATM    2  C           1     -21.616  -6.291  -4.436  0.00  0.00     0.249 C 
HETATM    3  O           1     -22.761  -6.070  -4.750  0.00  0.00    -0.271 OA
HETATM    4  H           1     -21.027  -5.678  -2.549  0.00  0.00     0.163 HD
ENDROOT
BRANCH   2   5
HETATM    5  C           1     -20.543  -6.367  -5.495  0.00  0.00     0.278 C 
BRANCH   5   6
HETATM    6  C           1     -20.073  -4.961  -5.843  0.00  0.00     0.081 C 
BRANCH   6   7
HETATM    7  C           1     -20.671  -4.545  -7.152  0.00  0.00    -0.056 A 
HETATM    8  C           1     -21.935  -3.957  -7.186  0.00  0.00     0.010 A 
HETATM    9  C           1     -22.491  -3.570  -8.405  0.00  0.00     0.038 A 
HETATM   10  C           1     -21.783  -3.770  -9.590  0.00  0.00     0.081 A 
HETATM   11  C           1     -20.519  -4.359  -9.556  0.00  0.00     0.038 A 
HETATM   12  C           1     -19.963  -4.745  -8.336  0.00  0.00     0.010 A 
BRANCH  10  13
HETATM   13  O           1     -22.324  -3.395 -10.775  0.00  0.00    -0.247 OA
BRANCH  13  14
HETATM   14  P           1     -23.754  -4.021 -11.188  0.00  0.00     0.411 P 
HETATM   15  O           1     -24.838  -3.151 -10.681  0.00  0.00    -0.624 OA
HETATM   16  O           1     -23.843  -4.113 -12.663  0.00  0.00    -0.624 OA
BRANCH  14  17
HETATM   17  O           1     -23.902  -5.495 -10.546  0.00  0.00    -0.300 OA
HETATM   18  H           1     -23.309  -6.036 -11.039  0.00  0.00     0.223 HD
ENDBRANCH  14  17
ENDBRANCH  13  14
ENDBRANCH  10  13
ENDBRANCH   6   7
ENDBRANCH   5   6
BRANCH   5  19
HETATM   19  N           1     -21.101  -7.025  -6.723  0.00  0.00    -0.066 N 
HETATM   20  H           1     -21.753  -6.366  -7.204  0.00  0.00     0.275 HD
HETATM   21  H           1     -20.318  -7.275  -7.369  0.00  0.00     0.275 HD
HETATM   22  H           1     -21.618  -7.891  -6.450  0.00  0.00     0.275 HD
ENDBRANCH   5  19
ENDBRANCH   2   5
BRANCH   1  23
HETATM   23  C           1     -21.323  -7.801  -2.539  0.00  0.00     0.190 C 
BRANCH  23  24
HETATM   24  C           1     -22.124  -7.772  -1.260  0.00  0.00     0.197 C 
HETATM   25  O           1     -22.686  -6.717  -0.899  0.00  0.00    -0.646 OA
HETATM   26  O           1     -22.224  -8.804  -0.563  0.00  0.00    -0.646 OA
ENDBRANCH  23  24
BRANCH  23  27
HETATM   27  C           1     -19.902  -8.258  -2.240  0.00  0.00     0.077 C 
BRANCH  27  28
HETATM   28  C           1     -19.436  -9.182  -3.320  0.00  0.00    -0.028 A 
HETATM   29  C           1     -20.225  -9.765  -4.286  0.00  0.00     0.096 A 
HETATM   30  N           1     -19.416 -10.536  -5.078  0.00  0.00    -0.365 N 
HETATM   31  H           1     -19.744 -11.101  -5.901  0.00  0.00     0.165 HD
HETATM   32  C           1     -18.112 -10.463  -4.642  0.00  0.00     0.042 A 
HETATM   33  C           1     -16.956 -11.077  -5.139  0.00  0.00     0.030 A 
HETATM   34  C           1     -18.098  -9.615  -3.534  0.00  0.00    -0.002 A 
HETATM   35  C           1     -15.751 -10.814  -4.480  0.00  0.00     0.002 A 
HETATM   36  C           1     -15.707  -9.971  -3.372  0.00  0.00     0.001 A 
HETATM   37  C           1     -16.872  -9.365  -2.888  0.00  0.00     0.014 A 
ENDBRANCH  27  28
ENDBRANCH  23  27
ENDBRANCH   1  23
TORSDOF 11
ENDMDL
MODEL 5
REMARK VINA RESULT:      -8.9      1.766      2.503
REMARK  11 active torsions:
REMARK  status: ('A' for Active; 'I' for Inactive)
REMARK    1  A    between atoms: N_2  and  C_26 
REMARK       I    between atoms: N_2  and  C_3 
REMARK    2  A    between atoms: C_3  and  C_4 
REMARK    3  A    between atoms: C_4  and  C_5 
REMARK    4  A    between atoms: C_4  and  N_17 
REMARK    5  A    between atoms: C_5  and  C_6 
REMARK    6  A    between atoms: C_9  and  O_10 
REMARK    7  A    between atoms: O_10  and  P_11 
REMARK    8  A    between atoms: P_11  and  O_12 
REMARK    9  A    between atoms: C_24  and  C_26 
REMARK   10  A    between atoms: C_26  and  C_27 
REMARK   11  A    between atoms: C_27  and  C_28 
ROOT
HETATM    1  N           1     -20.752  -8.543  -4.195  0.00  0.00    -0.344 N 
HETATM    2  C           1     -21.269  -7.864  -5.266  0.00  0.00     0.249 C 
HETATM    3  O           1     -21.560  -8.461  -6.276  0.00  0.00    -0.271 OA
HETATM    4  H           1     -21.370  -8.922  -3.490  0.00  0.00     0.163 HD
ENDROOT
BRANCH   2   5
HETATM    5  C           1     -21.477  -6.371  -5.185  0.00  0.00     0.278 C 
BRANCH   5   6
HETATM    6  C           1     -20.352  -5.660  -5.925  0.00  0.00     0.081 C 
BRANCH   6   7
HETATM    7  C           1     -20.895  -5.024  -7.167  0.00  0.00    -0.056 A 
HETATM    8  C           1     -20.151  -5.049  -8.346  0.00  0.00     0.010 A 
HETATM    9  C           1     -20.657  -4.455  -9.502  0.00  0.00     0.038 A 
HETATM   10  C           1     -21.908  -3.838  -9.479  0.00  0.00     0.081 A 
HETATM   11  C           1     -22.651  -3.812  -8.300  0.00  0.00     0.038 A 
HETATM   12  C           1     -22.145  -4.406  -7.143  0.00  0.00     0.010 A 
BRANCH  10  13
HETATM   13  O           1     -22.400  -3.261 -10.602  0.00  0.00    -0.247 OA
BRANCH  13  14
HETATM   14  P           1     -23.735  -3.891 -11.257  0.00  0.00     0.411 P 
HETATM   15  O           1     -24.920  -3.155 -10.765  0.00  0.00    -0.624 OA
HETATM   16  O           1     -23.660  -3.780 -12.731  0.00  0.00    -0.624 OA
BRANCH  14  17
HETATM   17  O           1     -23.856  -5.447 -10.840  0.00  0.00    -0.300 OA
HETATM   18  H           1     -24.658  -5.506 -10.350  0.00  0.00     0.223 HD
ENDBRANCH  14  17
ENDBRANCH  13  14
ENDBRANCH  10  13
ENDBRANCH   6   7
ENDBRANCH   5   6
BRANCH   5  19
HETATM   19  N           1     -21.474  -5.946  -3.746  0.00  0.00    -0.066 N 
HETATM   20  H           1     -21.067  -4.987  -3.668  0.00  0.00     0.275 HD
HETATM   21  H           1     -22.454  -5.938  -3.383  0.00  0.00     0.275 HD
HETATM   22  H           1     -20.900  -6.615  -3.185  0.00  0.00     0.275 HD
ENDBRANCH   5  19
ENDBRANCH   2   5
BRANCH   1  23
HETATM   23  C           1     -19.318  -8.717  -4.072  0.00  0.00     0.190 C 
BRANCH  23  24
HETATM   24  C           1     -18.817  -9.583  -5.202  0.00  0.00     0.197 C 
HETATM   25  O           1     -18.220  -9.064  -6.169  0.00  0.00    -0.646 OA
HETATM   26  O           1     -19.001 -10.818  -5.171  0.00  0.00    -0.646 OA
ENDBRANCH  23  24
BRANCH  23  27
HETATM   27  C           1     -19.001  -9.384  -2.741  0.00  0.00     0.077 C 
BRANCH  27  28
HETATM   28  C           1     -20.258  -9.938  -2.147  0.00  0.00    -0.028 A 
HETATM   29  C           1     -20.755 -11.207  -2.337  0.00  0.00     0.096 A 
HETATM   30  N           1     -21.918 -11.313  -1.622  0.00  0.00    -0.365 N 
HETATM   31  H           1     -22.520 -12.172  -1.579  0.00  0.00     0.165 HD
HETATM   32  C           1     -22.185 -10.130  -0.969  0.00  0.00     0.042 A 
HETATM   33  C           1     -23.252  -9.780  -0.132  0.00  0.00     0.030 A 
HETATM   34  C           1     -21.152  -9.247  -1.283  0.00  0.00    -0.002 A 
HETATM   35  C           1     -23.259  -8.486   0.397  0.00  0.00     0.002 A 
HETATM   36  C           1     -22.240  -7.583   0.101  0.00  0.00     0.001 A 
HETATM   37  C           1     -21.181  -7.950  -0.738  0.00  0.00     0.014 A 
ENDBRANCH  27  28
ENDBRANCH  23  27
ENDBRANCH   1  23
TORSDOF 11
ENDMDL
MODEL 6
REMARK VINA RESULT:      -8.6      1.830      2.801
REMARK  11 active torsions:
REMARK  status: ('A' for Active; 'I' for Inactive)
REMARK    1  A    between atoms: N_2  and  C_26 
REMARK       I    between atoms: N_2  and  C_3 
REMARK    2  A    between atoms: C_3  and  C_4 
REMARK    3  A    between atoms: C_4  and  C_5 
REMARK    4  A    between atoms: C_4  and  N_17 
REMARK    5  A    between atoms: C_5  and  C_6 
REMARK    6  A    between atoms: C_9  and  O_10 
REMARK    7  A    between atoms: O_10  and  P_11 
REMARK    8  A    between atoms: P_11  and  O_12 
REMARK    9  A    between atoms: C_24  and  C_26 
REMARK   10  A    between atoms: C_26  and  C_27 
REMARK   11  A    between atoms: C_27  and  C_28 
ROOT
HETATM    1  N           1     -21.315  -5.101  -5.210  0.00  0.00    -0.344 N 
HETATM    2  C           1     -22.467  -5.167  -5.947  0.00  0.00     0.249 C 
HETATM    3  O           1     -23.369  -5.889  -5.594  0.00  0.00    -0.271 OA
HETATM    4  H           1     -21.229  -4.422  -4.464  0.00  0.00     0.163 HD
ENDROOT
BRANCH   2   5
HETATM    5  C           1     -22.611  -4.335  -7.198  0.00  0.00     0.278 C 
BRANCH   5   6
HETATM    6  C           1     -22.371  -5.212  -8.420  0.00  0.00     0.081 C 
BRANCH   6   7
HETATM    7  C           1     -22.443  -4.372  -9.658  0.00  0.00    -0.056 A 
HETATM    8  C           1     -21.302  -4.179 -10.437  0.00  0.00     0.010 A 
HETATM    9  C           1     -21.369  -3.397 -11.590  0.00  0.00     0.038 A 
HETATM   10  C           1     -22.577  -2.808 -11.964  0.00  0.00     0.081 A 
HETATM   11  C           1     -23.717  -3.000 -11.185  0.00  0.00     0.038 A 
HETATM   12  C           1     -23.650  -3.783 -10.032  0.00  0.00     0.010 A 
BRANCH  10  13
HETATM   13  O           1     -22.642  -2.047 -13.084  0.00  0.00    -0.247 OA
BRANCH  13  14
HETATM   14  P           1     -23.293  -2.702 -14.409  0.00  0.00     0.411 P 
HETATM   15  O           1     -24.123  -3.866 -14.026  0.00  0.00    -0.624 OA
HETATM   16  O           1     -24.137  -1.695 -15.091  0.00  0.00    -0.624 OA
BRANCH  14  17
HETATM   17  O           1     -22.118  -3.183 -15.406  0.00  0.00    -0.300 OA
HETATM   18  H           1     -21.495  -2.477 -15.407  0.00  0.00     0.223 HD
ENDBRANCH  14  17
ENDBRANCH  13  14
ENDBRANCH  10  13
ENDBRANCH   6   7
ENDBRANCH   5   6
BRANCH   5  19
HETATM   19  N           1     -21.603  -3.224  -7.176  0.00  0.00    -0.066 N 
HETATM   20  H           1     -21.530  -2.802  -8.129  0.00  0.00     0.275 HD
HETATM   21  H           1     -21.907  -2.492  -6.495  0.00  0.00     0.275 HD
HETATM   22  H           1     -20.672  -3.602  -6.889  0.00  0.00     0.275 HD
ENDBRANCH   5  19
ENDBRANCH   2   5
BRANCH   1  23
HETATM   23  C           1     -20.218  -6.004  -5.498  0.00  0.00     0.190 C 
BRANCH  23  24
HETATM   24  C           1     -19.613  -5.650  -6.834  0.00  0.00     0.197 C 
HETATM   25  O           1     -19.042  -4.549  -6.988  0.00  0.00    -0.646 OA
HETATM   26  O           1     -19.683  -6.456  -7.786  0.00  0.00    -0.646 OA
ENDBRANCH  23  24
BRANCH  23  27
HETATM   27  C           1     -20.737  -7.435  -5.538  0.00  0.00     0.077 C 
BRANCH  27  28
HETATM   28  C           1     -20.450  -8.109  -4.234  0.00  0.00    -0.028 A 
HETATM   29  C           1     -19.574  -9.152  -4.035  0.00  0.00     0.096 A 
HETATM   30  N           1     -19.602  -9.475  -2.704  0.00  0.00    -0.365 N 
HETATM   31  H           1     -19.033 -10.238  -2.259  0.00  0.00     0.165 HD
HETATM   32  C           1     -20.484  -8.657  -2.034  0.00  0.00     0.042 A 
HETATM   33  C           1     -20.835  -8.622  -0.679  0.00  0.00     0.030 A 
HETATM   34  C           1     -21.032  -7.787  -2.977  0.00  0.00    -0.002 A 
HETATM   35  C           1     -21.774  -7.667  -0.280  0.00  0.00     0.002 A 
HETATM   36  C           1     -22.338  -6.785  -1.199  0.00  0.00     0.001 A 
HETATM   37  C           1     -21.975  -6.833  -2.550  0.00  0.00     0.014 A 
ENDBRANCH  27  28
ENDBRANCH  23  27
ENDBRANCH   1  23
TORSDOF 11
ENDMDL
MODEL 7
REMARK VINA RESULT:      -8.6      2.595      4.067
REMARK  11 active torsions:
REMARK  status: ('A' for Active; 'I' for Inactive)
REMARK    1  A    between atoms: N_2  and  C_26 
REMARK       I    between atoms: N_2  and  C_3 
REMARK    2  A    between atoms: C_3  and  C_4 
REMARK    3  A    between atoms: C_4  and  C_5 
REMARK    4  A    between atoms: C_4  and  N_17 
REMARK    5  A    between atoms: C_5  and  C_6 
REMARK    6  A    between atoms: C_9  and  O_10 
REMARK    7  A    between atoms: O_10  and  P_11 
REMARK    8  A    between atoms: P_11  and  O_12 
REMARK    9  A    between atoms: C_24  and  C_26 
REMARK   10  A    between atoms: C_26  and  C_27 
REMARK   11  A    between atoms: C_27  and  C_28 
ROOT
HETATM    1  N           1     -20.805  -7.015  -4.235  0.00  0.00    -0.344 N 
HETATM    2  C           1     -21.603  -6.271  -5.063  0.00  0.00     0.249 C 
HETATM    3  O           1     -22.789  -6.496  -5.119  0.00  0.00    -0.271 OA
HETATM    4  H           1     -20.650  -6.718  -3.280  0.00  0.00     0.163 HD
ENDROOT
BRANCH   2   5
HETATM    5  C           1     -21.002  -5.170  -5.901  0.00  0.00     0.278 C 
BRANCH   5   6
HETATM    6  C           1     -20.524  -5.745  -7.228  0.00  0.00     0.081 C 
BRANCH   6   7
HETATM    7  C           1     -21.086  -4.934  -8.355  0.00  0.00    -0.056 A 
HETATM    8  C           1     -20.321  -4.706  -9.499  0.00  0.00     0.010 A 
HETATM    9  C           1     -20.843  -3.950 -10.548  0.00  0.00     0.038 A 
HETATM   10  C           1     -22.131  -3.422 -10.453  0.00  0.00     0.081 A 
HETATM   11  C           1     -22.895  -3.649  -9.309  0.00  0.00     0.038 A 
HETATM   12  C           1     -22.373  -4.406  -8.260  0.00  0.00     0.010 A 
BRANCH  10  13
HETATM   13  O           1     -22.639  -2.687 -11.472  0.00  0.00    -0.247 OA
BRANCH  13  14
HETATM   14  P           1     -24.018  -3.183 -12.152  0.00  0.00     0.411 P 
HETATM   15  O           1     -23.858  -4.574 -12.632  0.00  0.00    -0.624 OA
HETATM   16  O           1     -25.107  -3.126 -11.152  0.00  0.00    -0.624 OA
BRANCH  14  17
HETATM   17  O           1     -24.380  -2.222 -13.398  0.00  0.00    -0.300 OA
HETATM   18  H           1     -25.310  -2.318 -13.517  0.00  0.00     0.223 HD
ENDBRANCH  14  17
ENDBRANCH  13  14
ENDBRANCH  10  13
ENDBRANCH   6   7
ENDBRANCH   5   6
BRANCH   5  19
HETATM   19  N           1     -19.839  -4.566  -5.171  0.00  0.00    -0.066 N 
HETATM   20  H           1     -19.677  -3.594  -5.518  0.00  0.00     0.275 HD
HETATM   21  H           1     -20.046  -4.541  -4.147  0.00  0.00     0.275 HD
HETATM   22  H           1     -18.984  -5.143  -5.340  0.00  0.00     0.275 HD
ENDBRANCH   5  19
ENDBRANCH   2   5
BRANCH   1  23
HETATM   23  C           1     -20.182  -8.228  -4.728  0.00  0.00     0.190 C 
BRANCH  23  24
HETATM   24  C           1     -21.240  -9.282  -4.952  0.00  0.00     0.197 C 
HETATM   25  O           1     -21.348  -9.830  -6.069  0.00  0.00    -0.646 OA
HETATM   26  O           1     -22.007  -9.604  -4.019  0.00  0.00    -0.646 OA
ENDBRANCH  23  24
BRANCH  23  27
HETATM   27  C           1     -19.171  -8.730  -3.706  0.00  0.00     0.077 C 
BRANCH  27  28
HETATM   28  C           1     -18.076  -9.470  -4.407  0.00  0.00    -0.028 A 
HETATM   29  C           1     -17.872  -9.519  -5.768  0.00  0.00     0.096 A 
HETATM   30  N           1     -16.769 -10.299  -5.998  0.00  0.00    -0.365 N 
HETATM   31  H           1     -16.375 -10.515  -6.947  0.00  0.00     0.165 HD
HETATM   32  C           1     -16.253 -10.757  -4.807  0.00  0.00     0.042 A 
HETATM   33  C           1     -15.145 -11.575  -4.556  0.00  0.00     0.030 A 
HETATM   34  C           1     -17.059 -10.249  -3.788  0.00  0.00    -0.002 A 
HETATM   35  C           1     -14.855 -11.880  -3.223  0.00  0.00     0.002 A 
HETATM   36  C           1     -15.643 -11.386  -2.186  0.00  0.00     0.001 A 
HETATM   37  C           1     -16.747 -10.569  -2.454  0.00  0.00     0.014 A 
ENDBRANCH  27  28
ENDBRANCH  23  27
ENDBRANCH   1  23
TORSDOF 11
ENDMDL
MODEL 8
REMARK VINA RESULT:      -8.3      2.251      3.059
REMARK  11 active torsions:
REMARK  status: ('A' for Active; 'I' for Inactive)
REMARK    1  A    between atoms: N_2  and  C_26 
REMARK       I    between atoms: N_2  and  C_3 
REMARK    2  A    between atoms: C_3  and  C_4 
REMARK    3  A    between atoms: C_4  and  C_5 
REMARK    4  A    between atoms: C_4  and  N_17 
REMARK    5  A    between atoms: C_5  and  C_6 
REMARK    6  A    between atoms: C_9  and  O_10 
REMARK    7  A    between atoms: O_10  and  P_11 
REMARK    8  A    between atoms: P_11  and  O_12 
REMARK    9  A    between atoms: C_24  and  C_26 
REMARK   10  A    between atoms: C_26  and  C_27 
REMARK   11  A    between atoms: C_27  and  C_28 
ROOT
HETATM    1  N           1     -20.770  -7.195  -3.530  0.00  0.00    -0.344 N 
HETATM    2  C           1     -21.245  -6.518  -4.621  0.00  0.00     0.249 C 
HETATM    3  O           1     -22.422  -6.260  -4.706  0.00  0.00    -0.271 OA
HETATM    4  H           1     -20.457  -6.684  -2.713  0.00  0.00     0.163 HD
ENDROOT
BRANCH   2   5
HETATM    5  C           1     -20.297  -6.091  -5.716  0.00  0.00     0.278 C 
BRANCH   5   6
HETATM    6  C           1     -20.373  -4.581  -5.893  0.00  0.00     0.081 C 
BRANCH   6   7
HETATM    7  C           1     -20.878  -4.264  -7.267  0.00  0.00    -0.056 A 
HETATM    8  C           1     -22.226  -3.964  -7.462  0.00  0.00     0.010 A 
HETATM    9  C           1     -22.696  -3.670  -8.743  0.00  0.00     0.038 A 
HETATM   10  C           1     -21.818  -3.675  -9.827  0.00  0.00     0.081 A 
HETATM   11  C           1     -20.470  -3.977  -9.631  0.00  0.00     0.038 A 
HETATM   12  C           1     -20.000  -4.271  -8.351  0.00  0.00     0.010 A 
BRANCH  10  13
HETATM   13  O           1     -22.275  -3.390 -11.070  0.00  0.00    -0.247 OA
BRANCH  13  14
HETATM   14  P           1     -23.687  -4.029 -11.524  0.00  0.00     0.411 P 
HETATM   15  O           1     -23.831  -5.377 -10.932  0.00  0.00    -0.624 OA
HETATM   16  O           1     -24.792  -3.163 -11.057  0.00  0.00    -0.624 OA
BRANCH  14  17
HETATM   17  O           1     -23.735  -4.140 -13.135  0.00  0.00    -0.300 OA
HETATM   18  H           1     -24.486  -3.633 -13.392  0.00  0.00     0.223 HD
ENDBRANCH  14  17
ENDBRANCH  13  14
ENDBRANCH  10  13
ENDBRANCH   6   7
ENDBRANCH   5   6
BRANCH   5  19
HETATM   19  N           1     -20.684  -6.765  -6.999  0.00  0.00    -0.066 N 
HETATM   20  H           1     -21.615  -7.226  -6.883  0.00  0.00     0.275 HD
HETATM   21  H           1     -20.742  -6.052  -7.762  0.00  0.00     0.275 HD
HETATM   22  H           1     -19.967  -7.484  -7.246  0.00  0.00     0.275 HD
ENDBRANCH   5  19
ENDBRANCH   2   5
BRANCH   1  23
HETATM   23  C           1     -20.713  -8.643  -3.544  0.00  0.00     0.190 C 
BRANCH  23  24
HETATM   24  C           1     -19.510  -9.092  -4.338  0.00  0.00     0.197 C 
HETATM   25  O           1     -18.386  -9.139  -3.794  0.00  0.00    -0.646 OA
HETATM   26  O           1     -19.638  -9.414  -5.538  0.00  0.00    -0.646 OA
ENDBRANCH  23  24
BRANCH  23  27
HETATM   27  C           1     -21.980  -9.194  -4.187  0.00  0.00     0.077 C 
BRANCH  27  28
HETATM   28  C           1     -22.251 -10.568  -3.661  0.00  0.00    -0.028 A 
HETATM   29  C           1     -22.113 -11.746  -4.360  0.00  0.00     0.096 A 
HETATM   30  N           1     -22.458 -12.773  -3.522  0.00  0.00    -0.365 N 
HETATM   31  H           1     -22.449 -13.790  -3.784  0.00  0.00     0.165 HD
HETATM   32  C           1     -22.819 -12.280  -2.288  0.00  0.00     0.042 A 
HETATM   33  C           1     -23.240 -12.951  -1.134  0.00  0.00     0.030 A 
HETATM   34  C           1     -22.697 -10.892  -2.350  0.00  0.00    -0.002 A 
HETATM   35  C           1     -23.544 -12.176  -0.011  0.00  0.00     0.002 A 
HETATM   36  C           1     -23.431 -10.788  -0.043  0.00  0.00     0.001 A 
HETATM   37  C           1     -23.008 -10.133  -1.206  0.00  0.00     0.014 A 
ENDBRANCH  27  28
ENDBRANCH  23  27
ENDBRANCH   1  23
TORSDOF 11
ENDMDL
MODEL 9
REMARK VINA RESULT:      -8.1      2.238      3.007
REMARK  11 active torsions:
REMARK  status: ('A' for Active; 'I' for Inactive)
REMARK    1  A    between atoms: N_2  and  C_26 
REMARK       I    between atoms: N_2  and  C_3 
REMARK    2  A    between atoms: C_3  and  C_4 
REMARK    3  A    between atoms: C_4  and  C_5 
REMARK    4  A    between atoms: C_4  and  N_17 
REMARK    5  A    between atoms: C_5  and  C_6 
REMARK    6  A    between atoms: C_9  and  O_10 
REMARK    7  A    between atoms: O_10  and  P_11 
REMARK    8  A    between atoms: P_11  and  O_12 
REMARK    9  A    between atoms: C_24  and  C_26 
REMARK   10  A    between atoms: C_26  and  C_27 
REMARK   11  A    between atoms: C_27  and  C_28 
ROOT
HETATM    1  N           1     -22.364  -6.506  -4.820  0.00  0.00    -0.344 N 
HETATM    2  C           1     -21.433  -6.705  -5.804  0.00  0.00     0.249 C 
HETATM    3  O           1     -21.561  -7.623  -6.579  0.00  0.00    -0.271 OA
HETATM    4  H           1     -23.167  -5.914  -4.995  0.00  0.00     0.163 HD
ENDROOT
BRANCH   2   5
HETATM    5  C           1     -20.249  -5.778  -5.921  0.00  0.00     0.278 C 
BRANCH   5   6
HETATM    6  C           1     -20.728  -4.392  -6.336  0.00  0.00     0.081 C 
BRANCH   6   7
HETATM    7  C           1     -21.302  -4.455  -7.717  0.00  0.00    -0.056 A 
HETATM    8  C           1     -20.455  -4.432  -8.826  0.00  0.00     0.010 A 
HETATM    9  C           1     -20.990  -4.490 -10.113  0.00  0.00     0.038 A 
HETATM   10  C           1     -22.371  -4.572 -10.291  0.00  0.00     0.081 A 
HETATM   11  C           1     -23.217  -4.595  -9.182  0.00  0.00     0.038 A 
HETATM   12  C           1     -22.682  -4.537  -7.895  0.00  0.00     0.010 A 
BRANCH  10  13
HETATM   13  O           1     -22.891  -4.628 -11.541  0.00  0.00    -0.247 OA
BRANCH  13  14
HETATM   14  P           1     -23.725  -3.352 -12.074  0.00  0.00     0.411 P 
HETATM   15  O           1     -22.856  -2.154 -12.057  0.00  0.00    -0.624 OA
HETATM   16  O           1     -24.188  -3.609 -13.456  0.00  0.00    -0.624 OA
BRANCH  14  17
HETATM   17  O           1     -25.002  -3.105 -11.116  0.00  0.00    -0.300 OA
HETATM   18  H           1     -24.880  -2.239 -10.767  0.00  0.00     0.223 HD
ENDBRANCH  14  17
ENDBRANCH  13  14
ENDBRANCH  10  13
ENDBRANCH   6   7
ENDBRANCH   5   6
BRANCH   5  19
HETATM   19  N           1     -19.301  -6.308  -6.957  0.00  0.00    -0.066 N 
HETATM   20  H           1     -18.567  -5.592  -7.155  0.00  0.00     0.275 HD
HETATM   21  H           1     -18.849  -7.180  -6.600  0.00  0.00     0.275 HD
HETATM   22  H           1     -19.827  -6.521  -7.834  0.00  0.00     0.275 HD
ENDBRANCH   5  19
ENDBRANCH   2   5
BRANCH   1  23
HETATM   23  C           1     -22.200  -7.142  -3.528  0.00  0.00     0.190 C 
BRANCH  23  24
HETATM   24  C           1     -21.887  -6.094  -2.488  0.00  0.00     0.197 C 
HETATM   25  O           1     -22.437  -6.142  -1.367  0.00  0.00    -0.646 OA
HETATM   26  O           1     -21.078  -5.178  -2.748  0.00  0.00    -0.646 OA
ENDBRANCH  23  24
BRANCH  23  27
HETATM   27  C           1     -21.058  -8.146  -3.599  0.00  0.00     0.077 C 
BRANCH  27  28
HETATM   28  C           1     -21.603  -9.534  -3.472  0.00  0.00    -0.028 A 
HETATM   29  C           1     -21.573 -10.510  -4.442  0.00  0.00     0.096 A 
HETATM   30  N           1     -22.173 -11.629  -3.929  0.00  0.00    -0.365 N 
HETATM   31  H           1     -22.294 -12.535  -4.447  0.00  0.00     0.165 HD
HETATM   32  C           1     -22.593 -11.396  -2.639  0.00  0.00     0.042 A 
HETATM   33  C           1     -23.248 -12.240  -1.734  0.00  0.00     0.030 A 
HETATM   34  C           1     -22.246 -10.081  -2.327  0.00  0.00    -0.002 A 
HETATM   35  C           1     -23.554 -11.722  -0.473  0.00  0.00     0.002 A 
HETATM   36  C           1     -23.219 -10.413  -0.133  0.00  0.00     0.001 A 
HETATM   37  C           1     -22.564  -9.582  -1.050  0.00  0.00     0.014 A 
ENDBRANCH  27  28
ENDBRANCH  23  27
ENDBRANCH   1  23
TORSDOF 11
ENDMDL
