MODEL 1
REMARK VINA RESULT:      -7.5      0.000      0.000
REMARK  9 active torsions:
REMARK  status: ('A' for Active; 'I' for Inactive)
REMARK    1  A    between atoms: C_2  and  C_3 
REMARK    2  A    between atoms: C_2  and  C_17 
REMARK    3  A    between atoms: C_3  and  C_4 
REMARK    4  A    between atoms: C_3  and  N_22 
REMARK       I    between atoms: C_4  and  N_5 
REMARK    5  A    between atoms: N_5  and  C_15 
REMARK    6  A    between atoms: C_8  and  C_15 
REMARK    7  A    between atoms: C_9  and  O_11 
REMARK    8  A    between atoms: C_15  and  C_25 
REMARK    9  A    between atoms: C_24  and  C_25 
ROOT
HETATM    1  C           1     -22.401  -5.130  -7.171  0.00  0.00     0.278 C 
ENDROOT
BRANCH   1   2
HETATM    2  C           1     -21.872  -3.780  -7.639  0.00  0.00     0.081 C 
BRANCH   2   3
HETATM    3  C           1     -21.872  -3.735  -9.136  0.00  0.00    -0.056 A 
HETATM    4  C           1     -20.692  -3.975  -9.840  0.00  0.00     0.010 A 
HETATM    5  C           1     -20.691  -3.933 -11.234  0.00  0.00     0.037 A 
HETATM    6  C           1     -21.871  -3.652 -11.923  0.00  0.00     0.065 A 
HETATM    7  C           1     -23.051  -3.414 -11.219  0.00  0.00     0.037 A 
HETATM    8  C           1     -23.052  -3.455  -9.825  0.00  0.00     0.010 A 
BRANCH   6   9
HETATM    9  O           1     -21.871  -3.612 -13.279  0.00  0.00    -0.361 OA
HETATM   10  H           1     -21.036  -3.207 -13.567  0.00  0.00     0.217 HD
ENDBRANCH   6   9
ENDBRANCH   2   3
ENDBRANCH   1   2
BRANCH   1  11
HETATM   11  C           1     -21.360  -5.809  -6.314  0.00  0.00     0.249 C 
HETATM   12  O           1     -20.190  -5.549  -6.466  0.00  0.00    -0.271 OA
HETATM   13  N           1     -21.742  -6.719  -5.366  0.00  0.00    -0.344 N 
HETATM   14  H           1     -22.722  -6.937  -5.239  0.00  0.00     0.163 HD
BRANCH  13  15
HETATM   15  C           1     -20.742  -7.372  -4.544  0.00  0.00     0.189 C 
BRANCH  15  16
HETATM   16  C           1     -20.274  -8.633  -5.228  0.00  0.00     0.197 C 
HETATM   17  O           1     -21.095  -9.531  -5.514  0.00  0.00    -0.646 OA
HETATM   18  O           1     -19.065  -8.779  -5.510  0.00  0.00    -0.646 OA
ENDBRANCH  15  16
BRANCH  15  19
HETATM   19  C           1     -21.347  -7.724  -3.192  0.00  0.00     0.014 C 
HETATM   20  C           1     -20.275  -8.336  -2.299  0.00  0.00     0.012 C 
BRANCH  19  21
HETATM   21  C           1     -21.894  -6.464  -2.535  0.00  0.00     0.002 C 
HETATM   22  C           1     -22.297  -6.772  -1.099  0.00  0.00     0.005 C 
ENDBRANCH  19  21
ENDBRANCH  15  19
ENDBRANCH  13  15
ENDBRANCH   1  11
BRANCH   1  23
HETATM   23  N           1     -23.652  -4.926  -6.369  0.00  0.00    -0.066 N 
HETATM   24  H           1     -23.434  -4.349  -5.526  0.00  0.00     0.275 HD
HETATM   25  H           1     -24.028  -5.854  -6.070  0.00  0.00     0.275 HD
HETATM   26  H           1     -24.364  -4.433  -6.954  0.00  0.00     0.275 HD
ENDBRANCH   1  23
TORSDOF 9
ENDMDL
MODEL 2
REMARK VINA RESULT:      -7.4     13.416     14.694
REMARK  9 active torsions:
REMARK  status: ('A' for Active; 'I' for Inactive)
REMARK    1  A    between atoms: C_2  and  C_3 
REMARK    2  A    between atoms: C_2  and  C_17 
REMARK    3  A    between atoms: C_3  and  C_4 
REMARK    4  A    between atoms: C_3  and  N_22 
REMARK       I    between atoms: C_4  and  N_5 
REMARK    5  A    between atoms: N_5  and  C_15 
REMARK    6  A    between atoms: C_8  and  C_15 
REMARK    7  A    between atoms: C_9  and  O_11 
REMARK    8  A    between atoms: C_15  and  C_25 
REMARK    9  A    between atoms: C_24  and  C_25 
ROOT
HETATM    1  C           1     -33.074  -4.475 -16.632  0.00  0.00     0.278 C 
ENDROOT
BRANCH   1   2
HETATM    2  C           1     -31.617  -4.689 -16.241  0.00  0.00     0.081 C 
BRANCH   2   3
HETATM    3  C           1     -31.036  -5.798 -17.062  0.00  0.00    -0.056 A 
HETATM    4  C           1     -31.878  -6.714 -17.692  0.00  0.00     0.010 A 
HETATM    5  C           1     -31.337  -7.748 -18.457  0.00  0.00     0.037 A 
HETATM    6  C           1     -29.954  -7.863 -18.594  0.00  0.00     0.065 A 
HETATM    7  C           1     -29.111  -6.945 -17.965  0.00  0.00     0.037 A 
HETATM    8  C           1     -29.652  -5.913 -17.199  0.00  0.00     0.010 A 
BRANCH   6   9
HETATM    9  O           1     -29.427  -8.866 -19.338  0.00  0.00    -0.361 OA
HETATM   10  H           1     -29.643  -8.694 -20.269  0.00  0.00     0.217 HD
ENDBRANCH   6   9
ENDBRANCH   2   3
ENDBRANCH   1   2
BRANCH   1  11
HETATM   11  C           1     -33.938  -4.512 -15.396  0.00  0.00     0.249 C 
HETATM   12  O           1     -35.041  -5.003 -15.445  0.00  0.00    -0.271 OA
HETATM   13  N           1     -33.473  -3.989 -14.220  0.00  0.00    -0.344 N 
HETATM   14  H           1     -32.550  -3.578 -14.179  0.00  0.00     0.163 HD
BRANCH  13  15
HETATM   15  C           1     -34.304  -4.025 -13.032  0.00  0.00     0.189 C 
BRANCH  15  16
HETATM   16  C           1     -34.996  -2.694 -12.863  0.00  0.00     0.197 C 
HETATM   17  O           1     -34.764  -1.762 -13.663  0.00  0.00    -0.646 OA
HETATM   18  O           1     -35.801  -2.524 -11.923  0.00  0.00    -0.646 OA
ENDBRANCH  15  16
BRANCH  15  19
HETATM   19  C           1     -33.436  -4.303 -11.813  0.00  0.00     0.014 C 
HETATM   20  C           1     -32.872  -2.992 -11.281  0.00  0.00     0.012 C 
BRANCH  19  21
HETATM   21  C           1     -34.277  -4.968 -10.731  0.00  0.00     0.002 C 
HETATM   22  C           1     -34.052  -6.473 -10.766  0.00  0.00     0.005 C 
ENDBRANCH  19  21
ENDBRANCH  15  19
ENDBRANCH  13  15
ENDBRANCH   1  11
BRANCH   1  23
HETATM   23  N           1     -33.220  -3.143 -17.305  0.00  0.00    -0.066 N 
HETATM   24  H           1     -33.323  -3.283 -18.335  0.00  0.00     0.275 HD
HETATM   25  H           1     -32.371  -2.563 -17.115  0.00  0.00     0.275 HD
HETATM   26  H           1     -34.066  -2.655 -16.934  0.00  0.00     0.275 HD
ENDBRANCH   1  23
TORSDOF 9
ENDMDL
MODEL 3
REMARK VINA RESULT:      -6.7      2.021      2.873
REMARK  9 active torsions:
REMARK  status: ('A' for Active; 'I' for Inactive)
REMARK    1  A    between atoms: C_2  and  C_3 
REMARK    2  A    between atoms: C_2  and  C_17 
REMARK    3  A    between atoms: C_3  and  C_4 
REMARK    4  A    between atoms: C_3  and  N_22 
REMARK       I    between atoms: C_4  and  N_5 
REMARK    5  A    between atoms: N_5  and  C_15 
REMARK    6  A    between atoms: C_8  and  C_15 
REMARK    7  A    between atoms: C_9  and  O_11 
REMARK    8  A    between atoms: C_15  and  C_25 
REMARK    9  A    between atoms: C_24  and  C_25 
ROOT
HETATM    1  C           1     -20.408  -5.154  -6.397  0.00  0.00     0.278 C 
ENDROOT
BRANCH   1   2
HETATM    2  C           1     -21.190  -3.946  -6.897  0.00  0.00     0.081 C 
BRANCH   2   3
HETATM    3  C           1     -21.428  -4.079  -8.369  0.00  0.00    -0.056 A 
HETATM    4  C           1     -22.693  -4.425  -8.843  0.00  0.00     0.010 A 
HETATM    5  C           1     -22.916  -4.548 -10.215  0.00  0.00     0.037 A 
HETATM    6  C           1     -21.871  -4.324 -11.112  0.00  0.00     0.065 A 
HETATM    7  C           1     -20.606  -3.978 -10.638  0.00  0.00     0.037 A 
HETATM    8  C           1     -20.384  -3.855  -9.267  0.00  0.00     0.010 A 
BRANCH   6   9
HETATM    9  O           1     -22.087  -4.444 -12.445  0.00  0.00    -0.361 OA
HETATM   10  H           1     -22.675  -3.721 -12.720  0.00  0.00     0.217 HD
ENDBRANCH   6   9
ENDBRANCH   2   3
ENDBRANCH   1   2
BRANCH   1  11
HETATM   11  C           1     -21.270  -5.958  -5.455  0.00  0.00     0.249 C 
HETATM   12  O           1     -22.472  -5.856  -5.502  0.00  0.00    -0.271 OA
HETATM   13  N           1     -20.689  -6.803  -4.548  0.00  0.00    -0.344 N 
HETATM   14  H           1     -19.681  -6.888  -4.510  0.00  0.00     0.163 HD
BRANCH  13  15
HETATM   15  C           1     -21.517  -7.576  -3.644  0.00  0.00     0.189 C 
BRANCH  15  16
HETATM   16  C           1     -21.587  -6.878  -2.307  0.00  0.00     0.197 C 
HETATM   17  O           1     -22.254  -5.829  -2.184  0.00  0.00    -0.646 OA
HETATM   18  O           1     -20.980  -7.352  -1.323  0.00  0.00    -0.646 OA
ENDBRANCH  15  16
BRANCH  15  19
HETATM   19  C           1     -20.913  -8.962  -3.460  0.00  0.00     0.014 C 
HETATM   20  C           1     -21.784  -9.993  -4.164  0.00  0.00     0.012 C 
BRANCH  19  21
HETATM   21  C           1     -19.512  -8.989  -4.057  0.00  0.00     0.002 C 
HETATM   22  C           1     -18.516  -9.433  -2.995  0.00  0.00     0.005 C 
ENDBRANCH  19  21
ENDBRANCH  15  19
ENDBRANCH  13  15
ENDBRANCH   1  11
BRANCH   1  23
HETATM   23  N           1     -20.009  -6.008  -7.563  0.00  0.00    -0.066 N 
HETATM   24  H           1     -19.203  -5.566  -8.059  0.00  0.00     0.275 HD
HETATM   25  H           1     -20.817  -6.098  -8.220  0.00  0.00     0.275 HD
HETATM   26  H           1     -19.730  -6.956  -7.223  0.00  0.00     0.275 HD
ENDBRANCH   1  23
TORSDOF 9
ENDMDL
MODEL 4
REMARK VINA RESULT:      -6.5      1.748      2.616
REMARK  9 active torsions:
REMARK  status: ('A' for Active; 'I' for Inactive)
REMARK    1  A    between atoms: C_2  and  C_3 
REMARK    2  A    between atoms: C_2  and  C_17 
REMARK    3  A    between atoms: C_3  and  C_4 
REMARK    4  A    between atoms: C_3  and  N_22 
REMARK       I    between atoms: C_4  and  N_5 
REMARK    5  A    between atoms: N_5  and  C_15 
REMARK    6  A    between atoms: C_8  and  C_15 
REMARK    7  A    between atoms: C_9  and  O_11 
REMARK    8  A    between atoms: C_15  and  C_25 
REMARK    9  A    between atoms: C_24  and  C_25 
ROOT
HETATM    1  C           1     -21.294  -6.168  -5.573  0.00  0.00     0.278 C 
ENDROOT
BRANCH   1   2
HETATM    2  C           1     -20.543  -4.912  -5.993  0.00  0.00     0.081 C 
BRANCH   2   3
HETATM    3  C           1     -20.954  -4.523  -7.379  0.00  0.00    -0.056 A 
HETATM    4  C           1     -22.264  -4.114  -7.629  0.00  0.00     0.010 A 
HETATM    5  C           1     -22.648  -3.751  -8.920  0.00  0.00     0.037 A 
HETATM    6  C           1     -21.720  -3.796  -9.961  0.00  0.00     0.065 A 
HETATM    7  C           1     -20.409  -4.204  -9.711  0.00  0.00     0.037 A 
HETATM    8  C           1     -20.026  -4.567  -8.420  0.00  0.00     0.010 A 
BRANCH   6   9
HETATM    9  O           1     -22.092  -3.443 -11.216  0.00  0.00    -0.361 OA
HETATM   10  H           1     -22.934  -3.886 -11.415  0.00  0.00     0.217 HD
ENDBRANCH   6   9
ENDBRANCH   2   3
ENDBRANCH   1   2
BRANCH   1  11
HETATM   11  C           1     -20.339  -7.335  -5.527  0.00  0.00     0.249 C 
HETATM   12  O           1     -19.449  -7.419  -6.341  0.00  0.00    -0.271 OA
HETATM   13  N           1     -20.480  -8.299  -4.566  0.00  0.00    -0.344 N 
HETATM   14  H           1     -21.225  -8.228  -3.885  0.00  0.00     0.163 HD
BRANCH  13  15
HETATM   15  C           1     -19.561  -9.420  -4.522  0.00  0.00     0.189 C 
BRANCH  15  16
HETATM   16  C           1     -20.252 -10.656  -5.045  0.00  0.00     0.197 C 
HETATM   17  O           1     -20.307 -11.687  -4.340  0.00  0.00    -0.646 OA
HETATM   18  O           1     -20.771 -10.648  -6.181  0.00  0.00    -0.646 OA
ENDBRANCH  15  16
BRANCH  15  19
HETATM   19  C           1     -19.117  -9.658  -3.085  0.00  0.00     0.014 C 
HETATM   20  C           1     -17.616  -9.428  -2.972  0.00  0.00     0.012 C 
BRANCH  19  21
HETATM   21  C           1     -19.848  -8.693  -2.161  0.00  0.00     0.002 C 
HETATM   22  C           1     -20.664  -9.481  -1.145  0.00  0.00     0.005 C 
ENDBRANCH  19  21
ENDBRANCH  15  19
ENDBRANCH  13  15
ENDBRANCH   1  11
BRANCH   1  23
HETATM   23  N           1     -21.895  -5.961  -4.214  0.00  0.00    -0.066 N 
HETATM   24  H           1     -21.441  -6.608  -3.531  0.00  0.00     0.275 HD
HETATM   25  H           1     -22.921  -6.158  -4.254  0.00  0.00     0.275 HD
HETATM   26  H           1     -21.743  -4.972  -3.913  0.00  0.00     0.275 HD
ENDBRANCH   1  23
TORSDOF 9
ENDMDL
MODEL 5
REMARK VINA RESULT:      -6.3      2.174      3.496
REMARK  9 active torsions:
REMARK  status: ('A' for Active; 'I' for Inactive)
REMARK    1  A    between atoms: C_2  and  C_3 
REMARK    2  A    between atoms: C_2  and  C_17 
REMARK    3  A    between atoms: C_3  and  C_4 
REMARK    4  A    between atoms: C_3  and  N_22 
REMARK       I    between atoms: C_4  and  N_5 
REMARK    5  A    between atoms: N_5  and  C_15 
REMARK    6  A    between atoms: C_8  and  C_15 
REMARK    7  A    between atoms: C_9  and  O_11 
REMARK    8  A    between atoms: C_15  and  C_25 
REMARK    9  A    between atoms: C_24  and  C_25 
ROOT
HETATM    1  C           1     -21.456  -6.215  -4.895  0.00  0.00     0.278 C 
ENDROOT
BRANCH   1   2
HETATM    2  C           1     -20.368  -5.327  -5.484  0.00  0.00     0.081 C 
BRANCH   2   3
HETATM    3  C           1     -20.791  -4.848  -6.838  0.00  0.00    -0.056 A 
HETATM    4  C           1     -22.132  -4.563  -7.089  0.00  0.00     0.010 A 
HETATM    5  C           1     -22.527  -4.117  -8.350  0.00  0.00     0.037 A 
HETATM    6  C           1     -21.578  -3.955  -9.360  0.00  0.00     0.065 A 
HETATM    7  C           1     -20.236  -4.240  -9.109  0.00  0.00     0.037 A 
HETATM    8  C           1     -19.842  -4.686  -7.848  0.00  0.00     0.010 A 
BRANCH   6   9
HETATM    9  O           1     -21.961  -3.521 -10.587  0.00  0.00    -0.361 OA
HETATM   10  H           1     -21.619  -4.147 -11.246  0.00  0.00     0.217 HD
ENDBRANCH   6   9
ENDBRANCH   2   3
ENDBRANCH   1   2
BRANCH   1  11
HETATM   11  C           1     -21.123  -7.663  -5.160  0.00  0.00     0.249 C 
HETATM   12  O           1     -21.354  -8.147  -6.243  0.00  0.00    -0.271 OA
HETATM   13  N           1     -20.561  -8.428  -4.175  0.00  0.00    -0.344 N 
HETATM   14  H           1     -20.368  -8.022  -3.268  0.00  0.00     0.163 HD
BRANCH  13  15
HETATM   15  C           1     -20.241  -9.819  -4.430  0.00  0.00     0.189 C 
BRANCH  15  16
HETATM   16  C           1     -20.994 -10.694  -3.457  0.00  0.00     0.197 C 
HETATM   17  O           1     -20.662 -11.889  -3.304  0.00  0.00    -0.646 OA
HETATM   18  O           1     -21.950 -10.223  -2.804  0.00  0.00    -0.646 OA
ENDBRANCH  15  16
BRANCH  15  19
HETATM   19  C           1     -18.745 -10.037  -4.252  0.00  0.00     0.014 C 
HETATM   20  C           1     -18.013  -9.595  -5.512  0.00  0.00     0.012 C 
BRANCH  19  21
HETATM   21  C           1     -18.249  -9.221  -3.065  0.00  0.00     0.002 C 
HETATM   22  C           1     -16.763  -9.478  -2.857  0.00  0.00     0.005 C 
ENDBRANCH  19  21
ENDBRANCH  15  19
ENDBRANCH  13  15
ENDBRANCH   1  11
BRANCH   1  23
HETATM   23  N           1     -21.543  -5.985  -3.416  0.00  0.00    -0.066 N 
HETATM   24  H           1     -22.320  -6.560  -3.019  0.00  0.00     0.275 HD
HETATM   25  H           1     -21.728  -4.973  -3.232  0.00  0.00     0.275 HD
HETATM   26  H           1     -20.641  -6.261  -2.966  0.00  0.00     0.275 HD
ENDBRANCH   1  23
TORSDOF 9
ENDMDL
MODEL 6
REMARK VINA RESULT:      -6.2      7.043      9.213
REMARK  9 active torsions:
REMARK  status: ('A' for Active; 'I' for Inactive)
REMARK    1  A    between atoms: C_2  and  C_3 
REMARK    2  A    between atoms: C_2  and  C_17 
REMARK    3  A    between atoms: C_3  and  C_4 
REMARK    4  A    between atoms: C_3  and  N_22 
REMARK       I    between atoms: C_4  and  N_5 
REMARK    5  A    between atoms: N_5  and  C_15 
REMARK    6  A    between atoms: C_8  and  C_15 
REMARK    7  A    between atoms: C_9  and  O_11 
REMARK    8  A    between atoms: C_15  and  C_25 
REMARK    9  A    between atoms: C_24  and  C_25 
ROOT
HETATM    1  C           1     -20.636 -11.659  -0.839  0.00  0.00     0.278 C 
ENDROOT
BRANCH   1   2
HETATM    2  C           1     -20.507 -10.550   0.197  0.00  0.00     0.081 C 
BRANCH   2   3
HETATM    3  C           1     -21.052  -9.273  -0.366  0.00  0.00    -0.056 A 
HETATM    4  C           1     -22.112  -8.628   0.271  0.00  0.00     0.010 A 
HETATM    5  C           1     -22.620  -7.438  -0.253  0.00  0.00     0.037 A 
HETATM    6  C           1     -22.066  -6.895  -1.412  0.00  0.00     0.065 A 
HETATM    7  C           1     -21.005  -7.541  -2.048  0.00  0.00     0.037 A 
HETATM    8  C           1     -20.498  -8.730  -1.524  0.00  0.00     0.010 A 
BRANCH   6   9
HETATM    9  O           1     -22.559  -5.739  -1.922  0.00  0.00    -0.361 OA
HETATM   10  H           1     -21.935  -5.027  -1.706  0.00  0.00     0.217 HD
ENDBRANCH   6   9
ENDBRANCH   2   3
ENDBRANCH   1   2
BRANCH   1  11
HETATM   11  C           1     -19.286 -12.293  -1.069  0.00  0.00     0.249 C 
HETATM   12  O           1     -19.214 -13.445  -1.423  0.00  0.00    -0.271 OA
HETATM   13  N           1     -18.145 -11.562  -0.877  0.00  0.00    -0.344 N 
HETATM   14  H           1     -18.207 -10.597  -0.580  0.00  0.00     0.163 HD
BRANCH  13  15
HETATM   15  C           1     -16.848 -12.171  -1.098  0.00  0.00     0.189 C 
BRANCH  15  16
HETATM   16  C           1     -16.220 -12.514   0.231  0.00  0.00     0.197 C 
HETATM   17  O           1     -15.663 -11.624   0.907  0.00  0.00    -0.646 OA
HETATM   18  O           1     -16.260 -13.689   0.656  0.00  0.00    -0.646 OA
ENDBRANCH  15  16
BRANCH  15  19
HETATM   19  C           1     -15.949 -11.196  -1.845  0.00  0.00     0.014 C 
HETATM   20  C           1     -15.115 -11.955  -2.869  0.00  0.00     0.012 C 
BRANCH  19  21
HETATM   21  C           1     -16.807 -10.159  -2.559  0.00  0.00     0.002 C 
HETATM   22  C           1     -16.051  -9.618  -3.766  0.00  0.00     0.005 C 
ENDBRANCH  19  21
ENDBRANCH  15  19
ENDBRANCH  13  15
ENDBRANCH   1  11
BRANCH   1  23
HETATM   23  N           1     -21.598 -12.697  -0.341  0.00  0.00    -0.066 N 
HETATM   24  H           1     -22.346 -12.848  -1.055  0.00  0.00     0.275 HD
HETATM   25  H           1     -22.028 -12.371   0.554  0.00  0.00     0.275 HD
HETATM   26  H           1     -21.088 -13.594  -0.176  0.00  0.00     0.275 HD
ENDBRANCH   1  23
TORSDOF 9
ENDMDL
MODEL 7
REMARK VINA RESULT:      -6.0      3.064      4.779
REMARK  9 active torsions:
REMARK  status: ('A' for Active; 'I' for Inactive)
REMARK    1  A    between atoms: C_2  and  C_3 
REMARK    2  A    between atoms: C_2  and  C_17 
REMARK    3  A    between atoms: C_3  and  C_4 
REMARK    4  A    between atoms: C_3  and  N_22 
REMARK       I    between atoms: C_4  and  N_5 
REMARK    5  A    between atoms: N_5  and  C_15 
REMARK    6  A    between atoms: C_8  and  C_15 
REMARK    7  A    between atoms: C_9  and  O_11 
REMARK    8  A    between atoms: C_15  and  C_25 
REMARK    9  A    between atoms: C_24  and  C_25 
ROOT
HETATM    1  C           1     -20.772  -8.456  -4.318  0.00  0.00     0.278 C 
ENDROOT
BRANCH   1   2
HETATM    2  C           1     -21.844  -7.399  -4.547  0.00  0.00     0.081 C 
BRANCH   2   3
HETATM    3  C           1     -21.399  -6.459  -5.624  0.00  0.00    -0.056 A 
HETATM    4  C           1     -20.094  -6.525  -6.110  0.00  0.00     0.010 A 
HETATM    5  C           1     -19.678  -5.650  -7.115  0.00  0.00     0.037 A 
HETATM    6  C           1     -20.569  -4.710  -7.632  0.00  0.00     0.065 A 
HETATM    7  C           1     -21.876  -4.645  -7.147  0.00  0.00     0.037 A 
HETATM    8  C           1     -22.290  -5.520  -6.143  0.00  0.00     0.010 A 
BRANCH   6   9
HETATM    9  O           1     -20.166  -3.859  -8.608  0.00  0.00    -0.361 OA
HETATM   10  H           1     -20.518  -2.977  -8.402  0.00  0.00     0.217 HD
ENDBRANCH   6   9
ENDBRANCH   2   3
ENDBRANCH   1   2
BRANCH   1  11
HETATM   11  C           1     -20.527  -8.614  -2.838  0.00  0.00     0.249 C 
HETATM   12  O           1     -19.633  -8.001  -2.305  0.00  0.00    -0.271 OA
HETATM   13  N           1     -21.318  -9.452  -2.099  0.00  0.00    -0.344 N 
HETATM   14  H           1     -22.067  -9.965  -2.546  0.00  0.00     0.163 HD
BRANCH  13  15
HETATM   15  C           1     -21.083  -9.603  -0.676  0.00  0.00     0.189 C 
BRANCH  15  16
HETATM   16  C           1     -20.350 -10.898  -0.423  0.00  0.00     0.197 C 
HETATM   17  O           1     -20.063 -11.236   0.745  0.00  0.00    -0.646 OA
HETATM   18  O           1     -20.032 -11.633  -1.383  0.00  0.00    -0.646 OA
ENDBRANCH  15  16
BRANCH  15  19
HETATM   19  C           1     -22.416  -9.625   0.060  0.00  0.00     0.014 C 
HETATM   20  C           1     -22.930  -8.200   0.222  0.00  0.00     0.012 C 
BRANCH  19  21
HETATM   21  C           1     -23.425 -10.439  -0.740  0.00  0.00     0.002 C 
HETATM   22  C           1     -23.813 -11.683   0.049  0.00  0.00     0.005 C 
ENDBRANCH  19  21
ENDBRANCH  15  19
ENDBRANCH  13  15
ENDBRANCH   1  11
BRANCH   1  23
HETATM   23  N           1     -21.229  -9.764  -4.892  0.00  0.00    -0.066 N 
HETATM   24  H           1     -20.960  -9.815  -5.900  0.00  0.00     0.275 HD
HETATM   25  H           1     -22.268  -9.838  -4.804  0.00  0.00     0.275 HD
HETATM   26  H           1     -20.779 -10.550  -4.371  0.00  0.00     0.275 HD
ENDBRANCH   1  23
TORSDOF 9
ENDMDL
MODEL 8
REMARK VINA RESULT:      -5.9      2.447      3.760
REMARK  9 active torsions:
REMARK  status: ('A' for Active; 'I' for Inactive)
REMARK    1  A    between atoms: C_2  and  C_3 
REMARK    2  A    between atoms: C_2  and  C_17 
REMARK    3  A    between atoms: C_3  and  C_4 
REMARK    4  A    between atoms: C_3  and  N_22 
REMARK       I    between atoms: C_4  and  N_5 
REMARK    5  A    between atoms: N_5  and  C_15 
REMARK    6  A    between atoms: C_8  and  C_15 
REMARK    7  A    between atoms: C_9  and  O_11 
REMARK    8  A    between atoms: C_15  and  C_25 
REMARK    9  A    between atoms: C_24  and  C_25 
ROOT
HETATM    1  C           1     -21.572  -6.886  -4.274  0.00  0.00     0.278 C 
ENDROOT
BRANCH   1   2
HETATM    2  C           1     -20.309  -6.390  -4.967  0.00  0.00     0.081 C 
BRANCH   2   3
HETATM    3  C           1     -20.679  -5.673  -6.228  0.00  0.00    -0.056 A 
HETATM    4  C           1     -19.729  -5.495  -7.233  0.00  0.00     0.010 A 
HETATM    5  C           1     -20.073  -4.827  -8.409  0.00  0.00     0.037 A 
HETATM    6  C           1     -21.368  -4.338  -8.578  0.00  0.00     0.065 A 
HETATM    7  C           1     -22.319  -4.517  -7.573  0.00  0.00     0.037 A 
HETATM    8  C           1     -21.975  -5.185  -6.398  0.00  0.00     0.010 A 
BRANCH   6   9
HETATM    9  O           1     -21.704  -3.689  -9.720  0.00  0.00    -0.361 OA
HETATM   10  H           1     -20.975  -3.799 -10.353  0.00  0.00     0.217 HD
ENDBRANCH   6   9
ENDBRANCH   2   3
ENDBRANCH   1   2
BRANCH   1  11
HETATM   11  C           1     -21.320  -8.253  -3.686  0.00  0.00     0.249 C 
HETATM   12  O           1     -20.474  -8.970  -4.166  0.00  0.00    -0.271 OA
HETATM   13  N           1     -22.051  -8.681  -2.611  0.00  0.00    -0.344 N 
HETATM   14  H           1     -22.760  -8.080  -2.210  0.00  0.00     0.163 HD
BRANCH  13  15
HETATM   15  C           1     -21.809  -9.994  -2.047  0.00  0.00     0.189 C 
BRANCH  15  16
HETATM   16  C           1     -22.811 -10.974  -2.607  0.00  0.00     0.197 C 
HETATM   17  O           1     -22.684 -11.398  -3.776  0.00  0.00    -0.646 OA
HETATM   18  O           1     -23.767 -11.362  -1.902  0.00  0.00    -0.646 OA
ENDBRANCH  15  16
BRANCH  15  19
HETATM   19  C           1     -21.956  -9.932  -0.532  0.00  0.00     0.014 C 
HETATM   20  C           1     -20.652 -10.367   0.123  0.00  0.00     0.012 C 
BRANCH  19  21
HETATM   21  C           1     -22.283  -8.505  -0.112  0.00  0.00     0.002 C 
HETATM   22  C           1     -21.573  -8.185   1.197  0.00  0.00     0.005 C 
ENDBRANCH  19  21
ENDBRANCH  15  19
ENDBRANCH  13  15
ENDBRANCH   1  11
BRANCH   1  23
HETATM   23  N           1     -21.948  -5.933  -3.179  0.00  0.00    -0.066 N 
HETATM   24  H           1     -21.210  -5.944  -2.439  0.00  0.00     0.275 HD
HETATM   25  H           1     -22.863  -6.223  -2.765  0.00  0.00     0.275 HD
HETATM   26  H           1     -22.033  -4.968  -3.570  0.00  0.00     0.275 HD
ENDBRANCH   1  23
TORSDOF 9
ENDMDL
MODEL 9
REMARK VINA RESULT:      -5.9      5.344      8.020
REMARK  9 active torsions:
REMARK  status: ('A' for Active; 'I' for Inactive)
REMARK    1  A    between atoms: C_2  and  C_3 
REMARK    2  A    between atoms: C_2  and  C_17 
REMARK    3  A    between atoms: C_3  and  C_4 
REMARK    4  A    between atoms: C_3  and  N_22 
REMARK       I    between atoms: C_4  and  N_5 
REMARK    5  A    between atoms: N_5  and  C_15 
REMARK    6  A    between atoms: C_8  and  C_15 
REMARK    7  A    between atoms: C_9  and  O_11 
REMARK    8  A    between atoms: C_15  and  C_25 
REMARK    9  A    between atoms: C_24  and  C_25 
ROOT
HETATM    1  C           1     -20.287  -8.525  -4.234  0.00  0.00     0.278 C 
ENDROOT
BRANCH   1   2
HETATM    2  C           1     -19.751  -8.752  -2.826  0.00  0.00     0.081 C 
BRANCH   2   3
HETATM    3  C           1     -20.822  -8.440  -1.827  0.00  0.00    -0.056 A 
HETATM    4  C           1     -21.220  -9.409  -0.906  0.00  0.00     0.010 A 
HETATM    5  C           1     -22.217  -9.118   0.026  0.00  0.00     0.037 A 
HETATM    6  C           1     -22.814  -7.858   0.036  0.00  0.00     0.065 A 
HETATM    7  C           1     -22.415  -6.888  -0.884  0.00  0.00     0.037 A 
HETATM    8  C           1     -21.419  -7.179  -1.816  0.00  0.00     0.010 A 
BRANCH   6   9
HETATM    9  O           1     -23.783  -7.574   0.941  0.00  0.00    -0.361 OA
HETATM   10  H           1     -24.589  -8.046   0.675  0.00  0.00     0.217 HD
ENDBRANCH   6   9
ENDBRANCH   2   3
ENDBRANCH   1   2
BRANCH   1  11
HETATM   11  C           1     -19.269  -8.997  -5.243  0.00  0.00     0.249 C 
HETATM   12  O           1     -18.984  -8.297  -6.185  0.00  0.00    -0.271 OA
HETATM   13  N           1     -18.670 -10.218  -5.091  0.00  0.00    -0.344 N 
HETATM   14  H           1     -18.910 -10.804  -4.301  0.00  0.00     0.163 HD
BRANCH  13  15
HETATM   15  C           1     -17.692 -10.672  -6.060  0.00  0.00     0.189 C 
BRANCH  15  16
HETATM   16  C           1     -18.234 -11.873  -6.796  0.00  0.00     0.197 C 
HETATM   17  O           1     -18.653 -11.752  -7.968  0.00  0.00    -0.646 OA
HETATM   18  O           1     -18.263 -12.989  -6.235  0.00  0.00    -0.646 OA
ENDBRANCH  15  16
BRANCH  15  19
HETATM   19  C           1     -16.406 -11.057  -5.343  0.00  0.00     0.014 C 
HETATM   20  C           1     -15.343 -11.429  -6.369  0.00  0.00     0.012 C 
BRANCH  19  21
HETATM   21  C           1     -15.916  -9.880  -4.510  0.00  0.00     0.002 C 
HETATM   22  C           1     -15.882 -10.276  -3.040  0.00  0.00     0.005 C 
ENDBRANCH  19  21
ENDBRANCH  15  19
ENDBRANCH  13  15
ENDBRANCH   1  11
BRANCH   1  23
HETATM   23  N           1     -21.563  -9.293  -4.413  0.00  0.00    -0.066 N 
HETATM   24  H           1     -21.937  -9.126  -5.374  0.00  0.00     0.275 HD
HETATM   25  H           1     -22.262  -8.975  -3.704  0.00  0.00     0.275 HD
HETATM   26  H           1     -21.376 -10.313  -4.285  0.00  0.00     0.275 HD
ENDBRANCH   1  23
TORSDOF 9
ENDMDL
