MODEL 1
REMARK VINA RESULT:      -5.9      0.000      0.000
REMARK  9 active torsions:
REMARK  status: ('A' for Active; 'I' for Inactive)
REMARK    1  A    between atoms: C_3  and  C_21 
REMARK    2  A    between atoms: C_6  and  C_7 
REMARK    3  A    between atoms: C_6  and  C_21 
REMARK    4  A    between atoms: C_7  and  C_8 
REMARK    5  A    between atoms: C_8  and  C_9 
REMARK    6  A    between atoms: C_9  and  N_15 
REMARK    7  A    between atoms: N_17  and  C_21 
REMARK       I    between atoms: N_17  and  C_18 
REMARK    8  A    between atoms: C_18  and  C_19 
REMARK    9  A    between atoms: C_19  and  N_20 
ROOT
HETATM    1  C           1     -35.223  -1.491 -11.323  0.00  0.00     0.185 C 
ENDROOT
BRANCH   1   2
HETATM    2  C           1     -36.358  -1.159 -10.383  0.00  0.00     0.196 C 
HETATM    3  O           1     -37.533  -1.440 -10.701  0.00  0.00    -0.646 OA
HETATM    4  O           1     -36.122  -0.603  -9.289  0.00  0.00    -0.646 OA
ENDBRANCH   1   2
BRANCH   1   5
HETATM    5  C           1     -34.004  -1.916 -10.515  0.00  0.00     0.036 C 
BRANCH   5   6
HETATM    6  C           1     -33.228  -2.974 -11.288  0.00  0.00     0.004 C 
BRANCH   6   7
HETATM    7  C           1     -33.898  -4.330 -11.107  0.00  0.00     0.027 C 
BRANCH   7   8
HETATM    8  C           1     -34.493  -4.784 -12.434  0.00  0.00     0.229 C 
BRANCH   8   9
HETATM    9  N           1     -33.830  -4.046 -13.559  0.00  0.00    -0.079 N 
HETATM   10  H           1     -33.181  -4.691 -14.063  0.00  0.00     0.274 HD
HETATM   11  H           1     -34.557  -3.693 -14.222  0.00  0.00     0.274 HD
HETATM   12  H           1     -33.289  -3.238 -13.174  0.00  0.00     0.274 HD
ENDBRANCH   8   9
ENDBRANCH   7   8
ENDBRANCH   6   7
ENDBRANCH   5   6
ENDBRANCH   1   5
BRANCH   1  13
HETATM   13  N           1     -34.894  -0.321 -12.114  0.00  0.00    -0.345 N 
HETATM   14  H           1     -34.587   0.528 -11.658  0.00  0.00     0.163 HD
HETATM   15  C           1     -34.997  -0.367 -13.479  0.00  0.00     0.243 C 
HETATM   16  O           1     -35.364  -1.381 -14.023  0.00  0.00    -0.272 OA
BRANCH  15  17
HETATM   17  C           1     -34.654   0.849 -14.302  0.00  0.00     0.332 C 
BRANCH  17  18
HETATM   18  N           1     -35.861   1.285 -15.079  0.00  0.00    -0.071 N 
HETATM   19  H           1     -36.456   0.452 -15.292  0.00  0.00     0.274 HD
HETATM   20  H           1     -36.410   1.971 -14.515  0.00  0.00     0.274 HD
HETATM   21  H           1     -35.558   1.733 -15.973  0.00  0.00     0.274 HD
ENDBRANCH  17  18
ENDBRANCH  15  17
ENDBRANCH   1  13
TORSDOF 9
ENDMDL
MODEL 2
REMARK VINA RESULT:      -5.2      2.139      4.462
REMARK  9 active torsions:
REMARK  status: ('A' for Active; 'I' for Inactive)
REMARK    1  A    between atoms: C_3  and  C_21 
REMARK    2  A    between atoms: C_6  and  C_7 
REMARK    3  A    between atoms: C_6  and  C_21 
REMARK    4  A    between atoms: C_7  and  C_8 
REMARK    5  A    between atoms: C_8  and  C_9 
REMARK    6  A    between atoms: C_9  and  N_15 
REMARK    7  A    between atoms: N_17  and  C_21 
REMARK       I    between atoms: N_17  and  C_18 
REMARK    8  A    between atoms: C_18  and  C_19 
REMARK    9  A    between atoms: C_19  and  N_20 
ROOT
HETATM    1  C           1     -35.362  -1.529 -11.956  0.00  0.00     0.185 C 
ENDROOT
BRANCH   1   2
HETATM    2  C           1     -34.111  -2.154 -11.388  0.00  0.00     0.196 C 
HETATM    3  O           1     -33.544  -3.083 -12.002  0.00  0.00    -0.646 OA
HETATM    4  O           1     -33.642  -1.743 -10.305  0.00  0.00    -0.646 OA
ENDBRANCH   1   2
BRANCH   1   5
HETATM    5  C           1     -35.104  -1.092 -13.392  0.00  0.00     0.036 C 
BRANCH   5   6
HETATM    6  C           1     -35.125   0.429 -13.471  0.00  0.00     0.004 C 
BRANCH   6   7
HETATM    7  C           1     -35.160   0.861 -14.931  0.00  0.00     0.027 C 
BRANCH   7   8
HETATM    8  C           1     -36.501   0.476 -15.543  0.00  0.00     0.229 C 
BRANCH   8   9
HETATM    9  N           1     -36.270  -0.340 -16.781  0.00  0.00    -0.079 N 
HETATM   10  H           1     -37.177  -0.480 -17.280  0.00  0.00     0.274 HD
HETATM   11  H           1     -35.601   0.160 -17.409  0.00  0.00     0.274 HD
HETATM   12  H           1     -35.870  -1.268 -16.516  0.00  0.00     0.274 HD
ENDBRANCH   8   9
ENDBRANCH   7   8
ENDBRANCH   6   7
ENDBRANCH   5   6
ENDBRANCH   1   5
BRANCH   1  13
HETATM   13  N           1     -35.730  -0.375 -11.159  0.00  0.00    -0.345 N 
HETATM   14  H           1     -35.062   0.370 -11.008  0.00  0.00     0.163 HD
HETATM   15  C           1     -36.982  -0.293 -10.611  0.00  0.00     0.243 C 
HETATM   16  O           1     -37.780  -1.182 -10.791  0.00  0.00    -0.272 OA
BRANCH  15  17
HETATM   17  C           1     -37.366   0.908  -9.782  0.00  0.00     0.332 C 
BRANCH  17  18
HETATM   18  N           1     -36.286   1.189  -8.779  0.00  0.00    -0.071 N 
HETATM   19  H           1     -35.792   2.072  -9.039  0.00  0.00     0.274 HD
HETATM   20  H           1     -36.711   1.293  -7.830  0.00  0.00     0.274 HD
HETATM   21  H           1     -35.603   0.398  -8.770  0.00  0.00     0.274 HD
ENDBRANCH  17  18
ENDBRANCH  15  17
ENDBRANCH   1  13
TORSDOF 9
ENDMDL
MODEL 3
REMARK VINA RESULT:      -5.2      3.036      4.046
REMARK  9 active torsions:
REMARK  status: ('A' for Active; 'I' for Inactive)
REMARK    1  A    between atoms: C_3  and  C_21 
REMARK    2  A    between atoms: C_6  and  C_7 
REMARK    3  A    between atoms: C_6  and  C_21 
REMARK    4  A    between atoms: C_7  and  C_8 
REMARK    5  A    between atoms: C_8  and  C_9 
REMARK    6  A    between atoms: C_9  and  N_15 
REMARK    7  A    between atoms: N_17  and  C_21 
REMARK       I    between atoms: N_17  and  C_18 
REMARK    8  A    between atoms: C_18  and  C_19 
REMARK    9  A    between atoms: C_19  and  N_20 
ROOT
HETATM    1  C           1     -34.601  -3.560 -12.048  0.00  0.00     0.185 C 
ENDROOT
BRANCH   1   2
HETATM    2  C           1     -33.406  -2.908 -11.396  0.00  0.00     0.196 C 
HETATM    3  O           1     -33.544  -1.834 -10.772  0.00  0.00    -0.646 OA
HETATM    4  O           1     -32.280  -3.442 -11.479  0.00  0.00    -0.646 OA
ENDBRANCH   1   2
BRANCH   1   5
HETATM    5  C           1     -35.216  -4.569 -11.087  0.00  0.00     0.036 C 
BRANCH   5   6
HETATM    6  C           1     -34.686  -5.961 -11.405  0.00  0.00     0.004 C 
BRANCH   6   7
HETATM    7  C           1     -34.227  -6.636 -10.119  0.00  0.00     0.027 C 
BRANCH   7   8
HETATM    8  C           1     -34.672  -8.093 -10.122  0.00  0.00     0.229 C 
BRANCH   8   9
HETATM    9  N           1     -33.469  -8.983 -10.215  0.00  0.00    -0.079 N 
HETATM   10  H           1     -33.277  -9.407  -9.279  0.00  0.00     0.274 HD
HETATM   11  H           1     -33.649  -9.741 -10.911  0.00  0.00     0.274 HD
HETATM   12  H           1     -32.642  -8.421 -10.519  0.00  0.00     0.274 HD
ENDBRANCH   8   9
ENDBRANCH   7   8
ENDBRANCH   6   7
ENDBRANCH   5   6
ENDBRANCH   1   5
BRANCH   1  13
HETATM   13  N           1     -34.181  -4.239 -13.258  0.00  0.00    -0.345 N 
HETATM   14  H           1     -33.785  -5.168 -13.205  0.00  0.00     0.163 HD
HETATM   15  C           1     -34.321  -3.622 -14.472  0.00  0.00     0.243 C 
HETATM   16  O           1     -34.793  -2.513 -14.535  0.00  0.00    -0.272 OA
BRANCH  15  17
HETATM   17  C           1     -33.883  -4.329 -15.731  0.00  0.00     0.332 C 
BRANCH  17  18
HETATM   18  N           1     -33.936  -3.374 -16.887  0.00  0.00    -0.071 N 
HETATM   19  H           1     -33.287  -3.701 -17.637  0.00  0.00     0.274 HD
HETATM   20  H           1     -34.910  -3.333 -17.260  0.00  0.00     0.274 HD
HETATM   21  H           1     -33.646  -2.422 -16.566  0.00  0.00     0.274 HD
ENDBRANCH  17  18
ENDBRANCH  15  17
ENDBRANCH   1  13
TORSDOF 9
ENDMDL
MODEL 4
REMARK VINA RESULT:      -5.2      9.743     11.476
REMARK  9 active torsions:
REMARK  status: ('A' for Active; 'I' for Inactive)
REMARK    1  A    between atoms: C_3  and  C_21 
REMARK    2  A    between atoms: C_6  and  C_7 
REMARK    3  A    between atoms: C_6  and  C_21 
REMARK    4  A    between atoms: C_7  and  C_8 
REMARK    5  A    between atoms: C_8  and  C_9 
REMARK    6  A    between atoms: C_9  and  N_15 
REMARK    7  A    between atoms: N_17  and  C_21 
REMARK       I    between atoms: N_17  and  C_18 
REMARK    8  A    between atoms: C_18  and  C_19 
REMARK    9  A    between atoms: C_19  and  N_20 
ROOT
HETATM    1  C           1     -27.766  -6.710 -18.057  0.00  0.00     0.185 C 
ENDROOT
BRANCH   1   2
HETATM    2  C           1     -26.845  -6.284 -16.940  0.00  0.00     0.196 C 
HETATM    3  O           1     -27.317  -5.985 -15.821  0.00  0.00    -0.646 OA
HETATM    4  O           1     -25.611  -6.231 -17.132  0.00  0.00    -0.646 OA
ENDBRANCH   1   2
BRANCH   1   5
HETATM    5  C           1     -27.390  -5.970 -19.334  0.00  0.00     0.036 C 
BRANCH   5   6
HETATM    6  C           1     -26.790  -6.951 -20.333  0.00  0.00     0.004 C 
BRANCH   6   7
HETATM    7  C           1     -25.348  -6.561 -20.624  0.00  0.00     0.027 C 
BRANCH   7   8
HETATM    8  C           1     -24.420  -7.696 -20.210  0.00  0.00     0.229 C 
BRANCH   8   9
HETATM    9  N           1     -23.713  -7.325 -18.940  0.00  0.00    -0.079 N 
HETATM   10  H           1     -24.080  -6.411 -18.591  0.00  0.00     0.274 HD
HETATM   11  H           1     -23.877  -8.064 -18.220  0.00  0.00     0.274 HD
HETATM   12  H           1     -22.687  -7.241 -19.124  0.00  0.00     0.274 HD
ENDBRANCH   8   9
ENDBRANCH   7   8
ENDBRANCH   6   7
ENDBRANCH   5   6
ENDBRANCH   1   5
BRANCH   1  13
HETATM   13  N           1     -29.135  -6.395 -17.701  0.00  0.00    -0.345 N 
HETATM   14  H           1     -29.351  -5.516 -17.249  0.00  0.00     0.163 HD
HETATM   15  C           1     -30.137  -7.287 -17.977  0.00  0.00     0.243 C 
HETATM   16  O           1     -29.879  -8.336 -18.516  0.00  0.00    -0.272 OA
BRANCH  15  17
HETATM   17  C           1     -31.562  -6.958 -17.607  0.00  0.00     0.332 C 
BRANCH  17  18
HETATM   18  N           1     -31.593  -5.687 -16.810  0.00  0.00    -0.071 N 
HETATM   19  H           1     -32.480  -5.644 -16.260  0.00  0.00     0.274 HD
HETATM   20  H           1     -30.776  -5.664 -16.160  0.00  0.00     0.274 HD
HETATM   21  H           1     -31.545  -4.868 -17.458  0.00  0.00     0.274 HD
ENDBRANCH  17  18
ENDBRANCH  15  17
ENDBRANCH   1  13
TORSDOF 9
ENDMDL
MODEL 5
REMARK VINA RESULT:      -5.1     13.331     15.005
REMARK  9 active torsions:
REMARK  status: ('A' for Active; 'I' for Inactive)
REMARK    1  A    between atoms: C_3  and  C_21 
REMARK    2  A    between atoms: C_6  and  C_7 
REMARK    3  A    between atoms: C_6  and  C_21 
REMARK    4  A    between atoms: C_7  and  C_8 
REMARK    5  A    between atoms: C_8  and  C_9 
REMARK    6  A    between atoms: C_9  and  N_15 
REMARK    7  A    between atoms: N_17  and  C_21 
REMARK       I    between atoms: N_17  and  C_18 
REMARK    8  A    between atoms: C_18  and  C_19 
REMARK    9  A    between atoms: C_19  and  N_20 
ROOT
HETATM    1  C           1     -21.668  -4.771  -8.531  0.00  0.00     0.185 C 
ENDROOT
BRANCH   1   2
HETATM    2  C           1     -20.339  -4.359  -9.116  0.00  0.00     0.196 C 
HETATM    3  O           1     -20.030  -4.713 -10.274  0.00  0.00    -0.646 OA
HETATM    4  O           1     -19.548  -3.664  -8.443  0.00  0.00    -0.646 OA
ENDBRANCH   1   2
BRANCH   1   5
HETATM    5  C           1     -22.753  -3.819  -9.016  0.00  0.00     0.036 C 
BRANCH   5   6
HETATM    6  C           1     -23.422  -4.399 -10.255  0.00  0.00     0.004 C 
BRANCH   6   7
HETATM    7  C           1     -23.779  -3.272 -11.215  0.00  0.00     0.027 C 
BRANCH   7   8
HETATM    8  C           1     -22.509  -2.723 -11.851  0.00  0.00     0.229 C 
BRANCH   8   9
HETATM    9  N           1     -21.810  -3.819 -12.599  0.00  0.00    -0.079 N 
HETATM   10  H           1     -22.293  -3.980 -13.511  0.00  0.00     0.274 HD
HETATM   11  H           1     -20.817  -3.543 -12.775  0.00  0.00     0.274 HD
HETATM   12  H           1     -21.832  -4.697 -12.032  0.00  0.00     0.274 HD
ENDBRANCH   8   9
ENDBRANCH   7   8
ENDBRANCH   6   7
ENDBRANCH   5   6
ENDBRANCH   1   5
BRANCH   1  13
HETATM   13  N           1     -21.595  -4.722  -7.084  0.00  0.00    -0.345 N 
HETATM   14  H           1     -21.835  -3.871  -6.593  0.00  0.00     0.163 HD
HETATM   15  C           1     -21.202  -5.830  -6.381  0.00  0.00     0.243 C 
HETATM   16  O           1     -20.914  -6.846  -6.967  0.00  0.00    -0.272 OA
BRANCH  15  17
HETATM   17  C           1     -21.126  -5.779  -4.875  0.00  0.00     0.332 C 
BRANCH  17  18
HETATM   18  N           1     -22.420  -6.264  -4.291  0.00  0.00    -0.071 N 
HETATM   19  H           1     -22.957  -5.450  -3.916  0.00  0.00     0.274 HD
HETATM   20  H           1     -22.980  -6.740  -5.034  0.00  0.00     0.274 HD
HETATM   21  H           1     -22.223  -6.938  -3.517  0.00  0.00     0.274 HD
ENDBRANCH  17  18
ENDBRANCH  15  17
ENDBRANCH   1  13
TORSDOF 9
ENDMDL
MODEL 6
REMARK VINA RESULT:      -5.1      8.283     10.205
REMARK  9 active torsions:
REMARK  status: ('A' for Active; 'I' for Inactive)
REMARK    1  A    between atoms: C_3  and  C_21 
REMARK    2  A    between atoms: C_6  and  C_7 
REMARK    3  A    between atoms: C_6  and  C_21 
REMARK    4  A    between atoms: C_7  and  C_8 
REMARK    5  A    between atoms: C_8  and  C_9 
REMARK    6  A    between atoms: C_9  and  N_15 
REMARK    7  A    between atoms: N_17  and  C_21 
REMARK       I    between atoms: N_17  and  C_18 
REMARK    8  A    between atoms: C_18  and  C_19 
REMARK    9  A    between atoms: C_19  and  N_20 
ROOT
HETATM    1  C           1     -28.647  -6.590 -17.020  0.00  0.00     0.185 C 
ENDROOT
BRANCH   1   2
HETATM    2  C           1     -27.887  -6.719 -15.722  0.00  0.00     0.196 C 
HETATM    3  O           1     -27.037  -5.858 -15.409  0.00  0.00    -0.646 OA
HETATM    4  O           1     -28.109  -7.684 -14.960  0.00  0.00    -0.646 OA
ENDBRANCH   1   2
BRANCH   1   5
HETATM    5  C           1     -29.861  -7.509 -16.990  0.00  0.00     0.036 C 
BRANCH   5   6
HETATM    6  C           1     -31.107  -6.717 -17.363  0.00  0.00     0.004 C 
BRANCH   6   7
HETATM    7  C           1     -30.970  -5.287 -16.857  0.00  0.00     0.027 C 
BRANCH   7   8
HETATM    8  C           1     -32.333  -4.607 -16.877  0.00  0.00     0.229 C 
BRANCH   8   9
HETATM    9  N           1     -32.203  -3.242 -17.485  0.00  0.00    -0.079 N 
HETATM   10  H           1     -31.898  -3.333 -18.480  0.00  0.00     0.274 HD
HETATM   11  H           1     -33.126  -2.754 -17.446  0.00  0.00     0.274 HD
HETATM   12  H           1     -31.495  -2.690 -16.951  0.00  0.00     0.274 HD
ENDBRANCH   8   9
ENDBRANCH   7   8
ENDBRANCH   6   7
ENDBRANCH   5   6
ENDBRANCH   1   5
BRANCH   1  13
HETATM   13  N           1     -27.785  -6.965 -18.124  0.00  0.00    -0.345 N 
HETATM   14  H           1     -27.248  -7.822 -18.078  0.00  0.00     0.163 HD
HETATM   15  C           1     -27.697  -6.160 -19.227  0.00  0.00     0.243 C 
HETATM   16  O           1     -28.336  -5.137 -19.281  0.00  0.00    -0.272 OA
BRANCH  15  17
HETATM   17  C           1     -26.799  -6.550 -20.376  0.00  0.00     0.332 C 
BRANCH  17  18
HETATM   18  N           1     -25.511  -7.101 -19.840  0.00  0.00    -0.071 N 
HETATM   19  H           1     -25.716  -7.882 -19.177  0.00  0.00     0.274 HD
HETATM   20  H           1     -24.929  -7.458 -20.631  0.00  0.00     0.274 HD
HETATM   21  H           1     -24.990  -6.346 -19.338  0.00  0.00     0.274 HD
ENDBRANCH  17  18
ENDBRANCH  15  17
ENDBRANCH   1  13
TORSDOF 9
ENDMDL
MODEL 7
REMARK VINA RESULT:      -5.0      8.870     10.789
REMARK  9 active torsions:
REMARK  status: ('A' for Active; 'I' for Inactive)
REMARK    1  A    between atoms: C_3  and  C_21 
REMARK    2  A    between atoms: C_6  and  C_7 
REMARK    3  A    between atoms: C_6  and  C_21 
REMARK    4  A    between atoms: C_7  and  C_8 
REMARK    5  A    between atoms: C_8  and  C_9 
REMARK    6  A    between atoms: C_9  and  N_15 
REMARK    7  A    between atoms: N_17  and  C_21 
REMARK       I    between atoms: N_17  and  C_18 
REMARK    8  A    between atoms: C_18  and  C_19 
REMARK    9  A    between atoms: C_19  and  N_20 
ROOT
HETATM    1  C           1     -28.600  -6.549 -16.578  0.00  0.00     0.185 C 
ENDROOT
BRANCH   1   2
HETATM    2  C           1     -29.441  -5.895 -15.508  0.00  0.00     0.196 C 
HETATM    3  O           1     -30.431  -5.202 -15.829  0.00  0.00    -0.646 OA
HETATM    4  O           1     -29.149  -6.046 -14.303  0.00  0.00    -0.646 OA
ENDBRANCH   1   2
BRANCH   1   5
HETATM    5  C           1     -29.423  -7.613 -17.290  0.00  0.00     0.036 C 
BRANCH   5   6
HETATM    6  C           1     -29.421  -7.339 -18.788  0.00  0.00     0.004 C 
BRANCH   6   7
HETATM    7  C           1     -28.386  -6.269 -19.107  0.00  0.00     0.027 C 
BRANCH   7   8
HETATM    8  C           1     -27.394  -6.809 -20.129  0.00  0.00     0.229 C 
BRANCH   8   9
HETATM    9  N           1     -26.031  -6.892 -19.508  0.00  0.00    -0.079 N 
HETATM   10  H           1     -25.701  -7.883 -19.524  0.00  0.00     0.274 HD
HETATM   11  H           1     -25.365  -6.294 -20.046  0.00  0.00     0.274 HD
HETATM   12  H           1     -26.078  -6.557 -18.519  0.00  0.00     0.274 HD
ENDBRANCH   8   9
ENDBRANCH   7   8
ENDBRANCH   6   7
ENDBRANCH   5   6
ENDBRANCH   1   5
BRANCH   1  13
HETATM   13  N           1     -27.438  -7.165 -15.968  0.00  0.00    -0.345 N 
HETATM   14  H           1     -27.542  -8.006 -15.417  0.00  0.00     0.163 HD
HETATM   15  C           1     -26.199  -6.607 -16.140  0.00  0.00     0.243 C 
HETATM   16  O           1     -26.075  -5.602 -16.799  0.00  0.00    -0.272 OA
BRANCH  15  17
HETATM   17  C           1     -24.989  -7.249 -15.507  0.00  0.00     0.332 C 
BRANCH  17  18
HETATM   18  N           1     -24.141  -7.880 -16.571  0.00  0.00    -0.071 N 
HETATM   19  H           1     -24.608  -7.766 -17.499  0.00  0.00     0.274 HD
HETATM   20  H           1     -23.205  -7.417 -16.591  0.00  0.00     0.274 HD
HETATM   21  H           1     -24.022  -8.897 -16.364  0.00  0.00     0.274 HD
ENDBRANCH  17  18
ENDBRANCH  15  17
ENDBRANCH   1  13
TORSDOF 9
ENDMDL
MODEL 8
REMARK VINA RESULT:      -4.9     13.922     15.625
REMARK  9 active torsions:
REMARK  status: ('A' for Active; 'I' for Inactive)
REMARK    1  A    between atoms: C_3  and  C_21 
REMARK    2  A    between atoms: C_6  and  C_7 
REMARK    3  A    between atoms: C_6  and  C_21 
REMARK    4  A    between atoms: C_7  and  C_8 
REMARK    5  A    between atoms: C_8  and  C_9 
REMARK    6  A    between atoms: C_9  and  N_15 
REMARK    7  A    between atoms: N_17  and  C_21 
REMARK       I    between atoms: N_17  and  C_18 
REMARK    8  A    between atoms: C_18  and  C_19 
REMARK    9  A    between atoms: C_19  and  N_20 
ROOT
HETATM    1  C           1     -21.304  -5.433  -6.553  0.00  0.00     0.185 C 
ENDROOT
BRANCH   1   2
HETATM    2  C           1     -20.010  -5.672  -7.292  0.00  0.00     0.196 C 
HETATM    3  O           1     -19.419  -6.768  -7.177  0.00  0.00    -0.646 OA
HETATM    4  O           1     -19.529  -4.776  -8.018  0.00  0.00    -0.646 OA
ENDBRANCH   1   2
BRANCH   1   5
HETATM    5  C           1     -21.882  -4.086  -6.965  0.00  0.00     0.036 C 
BRANCH   5   6
HETATM    6  C           1     -23.185  -4.302  -7.723  0.00  0.00     0.004 C 
BRANCH   6   7
HETATM    7  C           1     -22.988  -3.937  -9.188  0.00  0.00     0.027 C 
BRANCH   7   8
HETATM    8  C           1     -24.189  -4.410  -9.997  0.00  0.00     0.229 C 
BRANCH   8   9
HETATM    9  N           1     -25.376  -3.549  -9.681  0.00  0.00    -0.079 N 
HETATM   10  H           1     -26.231  -3.962 -10.116  0.00  0.00     0.274 HD
HETATM   11  H           1     -25.502  -3.495  -8.645  0.00  0.00     0.274 HD
HETATM   12  H           1     -25.219  -2.588 -10.062  0.00  0.00     0.274 HD
ENDBRANCH   8   9
ENDBRANCH   7   8
ENDBRANCH   6   7
ENDBRANCH   5   6
ENDBRANCH   1   5
BRANCH   1  13
HETATM   13  N           1     -21.053  -5.434  -5.125  0.00  0.00    -0.345 N 
HETATM   14  H           1     -20.523  -4.682  -4.704  0.00  0.00     0.163 HD
HETATM   15  C           1     -21.532  -6.453  -4.347  0.00  0.00     0.243 C 
HETATM   16  O           1     -22.164  -7.352  -4.850  0.00  0.00    -0.272 OA
BRANCH  15  17
HETATM   17  C           1     -21.271  -6.454  -2.861  0.00  0.00     0.332 C 
BRANCH  17  18
HETATM   18  N           1     -22.442  -5.849  -2.146  0.00  0.00    -0.071 N 
HETATM   19  H           1     -23.329  -6.231  -2.547  0.00  0.00     0.274 HD
HETATM   20  H           1     -22.389  -6.085  -1.130  0.00  0.00     0.274 HD
HETATM   21  H           1     -22.425  -4.811  -2.264  0.00  0.00     0.274 HD
ENDBRANCH  17  18
ENDBRANCH  15  17
ENDBRANCH   1  13
TORSDOF 9
ENDMDL
MODEL 9
REMARK VINA RESULT:      -4.8      9.978     11.875
REMARK  9 active torsions:
REMARK  status: ('A' for Active; 'I' for Inactive)
REMARK    1  A    between atoms: C_3  and  C_21 
REMARK    2  A    between atoms: C_6  and  C_7 
REMARK    3  A    between atoms: C_6  and  C_21 
REMARK    4  A    between atoms: C_7  and  C_8 
REMARK    5  A    between atoms: C_8  and  C_9 
REMARK    6  A    between atoms: C_9  and  N_15 
REMARK    7  A    between atoms: N_17  and  C_21 
REMARK       I    between atoms: N_17  and  C_18 
REMARK    8  A    between atoms: C_18  and  C_19 
REMARK    9  A    between atoms: C_19  and  N_20 
ROOT
HETATM    1  C           1     -27.282  -6.004 -18.786  0.00  0.00     0.185 C 
ENDROOT
BRANCH   1   2
HETATM    2  C           1     -26.765  -6.124 -17.373  0.00  0.00     0.196 C 
HETATM    3  O           1     -27.532  -5.916 -16.408  0.00  0.00    -0.646 OA
HETATM    4  O           1     -25.572  -6.432 -17.167  0.00  0.00    -0.646 OA
ENDBRANCH   1   2
BRANCH   1   5
HETATM    5  C           1     -28.804  -5.984 -18.770  0.00  0.00     0.036 C 
BRANCH   5   6
HETATM    6  C           1     -29.327  -7.366 -18.400  0.00  0.00     0.004 C 
BRANCH   6   7
HETATM    7  C           1     -30.638  -7.227 -17.639  0.00  0.00     0.027 C 
BRANCH   7   8
HETATM    8  C           1     -30.840  -5.772 -17.235  0.00  0.00     0.229 C 
BRANCH   8   9
HETATM    9  N           1     -30.493  -5.602 -15.786  0.00  0.00    -0.079 N 
HETATM   10  H           1     -31.371  -5.531 -15.224  0.00  0.00     0.274 HD
HETATM   11  H           1     -29.937  -6.425 -15.462  0.00  0.00     0.274 HD
HETATM   12  H           1     -29.929  -4.731 -15.663  0.00  0.00     0.274 HD
ENDBRANCH   8   9
ENDBRANCH   7   8
ENDBRANCH   6   7
ENDBRANCH   5   6
ENDBRANCH   1   5
BRANCH   1  13
HETATM   13  N           1     -26.822  -7.137 -19.566  0.00  0.00    -0.345 N 
HETATM   14  H           1     -27.210  -8.057 -19.400  0.00  0.00     0.163 HD
HETATM   15  C           1     -25.864  -6.961 -20.528  0.00  0.00     0.243 C 
HETATM   16  O           1     -25.400  -5.864 -20.726  0.00  0.00    -0.272 OA
BRANCH  15  17
HETATM   17  C           1     -25.386  -8.140 -21.340  0.00  0.00     0.332 C 
BRANCH  17  18
HETATM   18  N           1     -23.984  -8.491 -20.936  0.00  0.00    -0.071 N 
HETATM   19  H           1     -23.423  -7.615 -20.832  0.00  0.00     0.274 HD
HETATM   20  H           1     -24.002  -9.005 -20.027  0.00  0.00     0.274 HD
HETATM   21  H           1     -23.551  -9.096 -21.670  0.00  0.00     0.274 HD
ENDBRANCH  17  18
ENDBRANCH  15  17
ENDBRANCH   1  13
TORSDOF 9
ENDMDL
