MODEL 1
REMARK VINA RESULT:      -7.1      0.000      0.000
REMARK  6 active torsions:
REMARK  status: ('A' for Active; 'I' for Inactive)
REMARK    1  A    between atoms: C_3  and  C_4 
REMARK    2  A    between atoms: C_4  and  C_5 
REMARK    3  A    between atoms: C_4  and  N_9 
REMARK    4  A    between atoms: C_5  and  C_8 
REMARK       I    between atoms: C_6  and  N_9 
REMARK    5  A    between atoms: C_6  and  C_15 
REMARK    6  A    between atoms: C_8  and  C_10 
ROOT
HETATM    1  C           1     -21.984  -4.655  -8.049  0.00  0.00     0.251 C 
HETATM    2  O           1     -22.361  -3.652  -7.492  0.00  0.00    -0.271 OA
HETATM    3  N           1     -22.175  -4.803  -9.396  0.00  0.00    -0.345 N 
HETATM    4  H           1     -21.858  -5.644  -9.863  0.00  0.00     0.163 HD
ENDROOT
BRANCH   3   5
HETATM    5  C           1     -22.831  -3.757 -10.155  0.00  0.00     0.186 C 
BRANCH   5   6
HETATM    6  C           1     -24.318  -3.815  -9.909  0.00  0.00     0.196 C 
HETATM    7  O           1     -24.924  -4.906  -9.989  0.00  0.00    -0.646 OA
HETATM    8  O           1     -24.947  -2.771  -9.626  0.00  0.00    -0.646 OA
ENDBRANCH   5   6
BRANCH   5   9
HETATM    9  C           1     -22.554  -3.954 -11.639  0.00  0.00     0.046 C 
BRANCH   9  10
HETATM   10  C           1     -22.761  -2.638 -12.375  0.00  0.00     0.116 C 
BRANCH  10  11
HETATM   11  C           1     -23.809  -2.819 -13.446  0.00  0.00     0.172 C 
HETATM   12  O           1     -23.465  -2.954 -14.640  0.00  0.00    -0.648 OA
HETATM   13  O           1     -25.020  -2.836 -13.139  0.00  0.00    -0.648 OA
ENDBRANCH  10  11
ENDBRANCH   9  10
ENDBRANCH   5   9
ENDBRANCH   3   5
BRANCH   1  14
HETATM   14  C           1     -21.300  -5.745  -7.259  0.00  0.00     0.311 C 
HETATM   15  C           1     -21.194  -5.363  -5.792  0.00  0.00     0.047 C 
HETATM   16  C           1     -19.812  -4.738  -5.644  0.00  0.00     0.033 C 
HETATM   17  C           1     -19.197  -4.800  -7.031  0.00  0.00     0.271 C 
HETATM   18  N           1     -19.910  -5.897  -7.679  0.00  0.00     0.097 N 
HETATM   19  H           1     -19.530  -6.787  -7.357  0.00  0.00     0.317 HD
ENDBRANCH   1  14
TORSDOF 6
ENDMDL
MODEL 2
REMARK VINA RESULT:      -6.0      8.741     11.427
REMARK  6 active torsions:
REMARK  status: ('A' for Active; 'I' for Inactive)
REMARK    1  A    between atoms: C_3  and  C_4 
REMARK    2  A    between atoms: C_4  and  C_5 
REMARK    3  A    between atoms: C_4  and  N_9 
REMARK    4  A    between atoms: C_5  and  C_8 
REMARK       I    between atoms: C_6  and  N_9 
REMARK    5  A    between atoms: C_6  and  C_15 
REMARK    6  A    between atoms: C_8  and  C_10 
ROOT
HETATM    1  C           1     -28.333  -6.469 -18.890  0.00  0.00     0.251 C 
HETATM    2  O           1     -28.231  -5.287 -19.120  0.00  0.00    -0.271 OA
HETATM    3  N           1     -27.288  -7.311 -19.159  0.00  0.00    -0.345 N 
HETATM    4  H           1     -27.373  -8.301 -18.966  0.00  0.00     0.163 HD
ENDROOT
BRANCH   3   5
HETATM    5  C           1     -26.059  -6.786 -19.719  0.00  0.00     0.186 C 
BRANCH   5   6
HETATM    6  C           1     -25.671  -7.598 -20.930  0.00  0.00     0.196 C 
HETATM    7  O           1     -24.596  -7.362 -21.524  0.00  0.00    -0.646 OA
HETATM    8  O           1     -26.424  -8.509 -21.340  0.00  0.00    -0.646 OA
ENDBRANCH   5   6
BRANCH   5   9
HETATM    9  C           1     -24.950  -6.865 -18.678  0.00  0.00     0.046 C 
BRANCH   9  10
HETATM   10  C           1     -25.482  -6.391 -17.332  0.00  0.00     0.116 C 
BRANCH  10  11
HETATM   11  C           1     -24.955  -7.289 -16.239  0.00  0.00     0.172 C 
HETATM   12  O           1     -25.292  -7.091 -15.052  0.00  0.00    -0.648 OA
HETATM   13  O           1     -24.183  -8.230 -16.522  0.00  0.00    -0.648 OA
ENDBRANCH  10  11
ENDBRANCH   9  10
ENDBRANCH   5   9
ENDBRANCH   3   5
BRANCH   1  14
HETATM   14  C           1     -29.613  -7.015 -18.306  0.00  0.00     0.311 C 
HETATM   15  C           1     -30.362  -5.936 -17.542  0.00  0.00     0.047 C 
HETATM   16  C           1     -29.926  -6.102 -16.091  0.00  0.00     0.033 C 
HETATM   17  C           1     -28.956  -7.271 -16.099  0.00  0.00     0.271 C 
HETATM   18  N           1     -29.330  -8.026 -17.291  0.00  0.00     0.097 N 
HETATM   19  H           1     -30.162  -8.583 -17.094  0.00  0.00     0.317 HD
ENDBRANCH   1  14
TORSDOF 6
ENDMDL
MODEL 3
REMARK VINA RESULT:      -5.8      4.744      7.871
REMARK  6 active torsions:
REMARK  status: ('A' for Active; 'I' for Inactive)
REMARK    1  A    between atoms: C_3  and  C_4 
REMARK    2  A    between atoms: C_4  and  C_5 
REMARK    3  A    between atoms: C_4  and  N_9 
REMARK    4  A    between atoms: C_5  and  C_8 
REMARK       I    between atoms: C_6  and  N_9 
REMARK    5  A    between atoms: C_6  and  C_15 
REMARK    6  A    between atoms: C_8  and  C_10 
ROOT
HETATM    1  C           1     -20.635  -4.636  -6.088  0.00  0.00     0.251 C 
HETATM    2  O           1     -19.523  -4.559  -5.623  0.00  0.00    -0.271 OA
HETATM    3  N           1     -21.494  -5.607  -5.650  0.00  0.00    -0.345 N 
HETATM    4  H           1     -22.426  -5.672  -6.039  0.00  0.00     0.163 HD
ENDROOT
BRANCH   3   5
HETATM    5  C           1     -21.069  -6.543  -4.628  0.00  0.00     0.186 C 
BRANCH   5   6
HETATM    6  C           1     -20.699  -7.856  -5.271  0.00  0.00     0.196 C 
HETATM    7  O           1     -19.626  -7.963  -5.904  0.00  0.00    -0.646 OA
HETATM    8  O           1     -21.466  -8.840  -5.173  0.00  0.00    -0.646 OA
ENDBRANCH   5   6
BRANCH   5   9
HETATM    9  C           1     -22.205  -6.765  -3.638  0.00  0.00     0.046 C 
BRANCH   9  10
HETATM   10  C           1     -21.847  -6.130  -2.301  0.00  0.00     0.116 C 
BRANCH  10  11
HETATM   11  C           1     -21.973  -7.160  -1.205  0.00  0.00     0.172 C 
HETATM   12  O           1     -22.933  -7.107  -0.406  0.00  0.00    -0.648 OA
HETATM   13  O           1     -21.118  -8.064  -1.096  0.00  0.00    -0.648 OA
ENDBRANCH  10  11
ENDBRANCH   9  10
ENDBRANCH   5   9
ENDBRANCH   3   5
BRANCH   1  14
HETATM   14  C           1     -21.077  -3.660  -7.152  0.00  0.00     0.311 C 
HETATM   15  C           1     -22.344  -4.147  -7.837  0.00  0.00     0.047 C 
HETATM   16  C           1     -21.862  -4.890  -9.077  0.00  0.00     0.033 C 
HETATM   17  C           1     -20.348  -4.785  -9.041  0.00  0.00     0.271 C 
HETATM   18  N           1     -20.101  -3.593  -8.234  0.00  0.00     0.097 N 
HETATM   19  H           1     -20.248  -2.760  -8.804  0.00  0.00     0.317 HD
ENDBRANCH   1  14
TORSDOF 6
ENDMDL
MODEL 4
REMARK VINA RESULT:      -5.7      5.919      8.417
REMARK  6 active torsions:
REMARK  status: ('A' for Active; 'I' for Inactive)
REMARK    1  A    between atoms: C_3  and  C_4 
REMARK    2  A    between atoms: C_4  and  C_5 
REMARK    3  A    between atoms: C_4  and  N_9 
REMARK    4  A    between atoms: C_5  and  C_8 
REMARK       I    between atoms: C_6  and  N_9 
REMARK    5  A    between atoms: C_6  and  C_15 
REMARK    6  A    between atoms: C_8  and  C_10 
ROOT
HETATM    1  C           1     -20.875  -7.720  -5.513  0.00  0.00     0.251 C 
HETATM    2  O           1     -19.820  -8.235  -5.799  0.00  0.00    -0.271 OA
HETATM    3  N           1     -21.599  -8.189  -4.450  0.00  0.00    -0.345 N 
HETATM    4  H           1     -22.483  -7.758  -4.210  0.00  0.00     0.163 HD
ENDROOT
BRANCH   3   5
HETATM    5  C           1     -21.102  -9.304  -3.669  0.00  0.00     0.186 C 
BRANCH   5   6
HETATM    6  C           1     -21.844 -10.559  -4.055  0.00  0.00     0.196 C 
HETATM    7  O           1     -22.767 -10.989  -3.328  0.00  0.00    -0.646 OA
HETATM    8  O           1     -21.537 -11.172  -5.101  0.00  0.00    -0.646 OA
ENDBRANCH   5   6
BRANCH   5   9
HETATM    9  C           1     -21.316  -9.023  -2.188  0.00  0.00     0.046 C 
BRANCH   9  10
HETATM   10  C           1     -20.897  -7.592  -1.876  0.00  0.00     0.116 C 
BRANCH  10  11
HETATM   11  C           1     -22.125  -6.755  -1.611  0.00  0.00     0.172 C 
HETATM   12  O           1     -22.457  -5.862  -2.420  0.00  0.00    -0.648 OA
HETATM   13  O           1     -22.807  -6.954  -0.583  0.00  0.00    -0.648 OA
ENDBRANCH  10  11
ENDBRANCH   9  10
ENDBRANCH   5   9
ENDBRANCH   3   5
BRANCH   1  14
HETATM   14  C           1     -21.392  -6.559  -6.326  0.00  0.00     0.311 C 
HETATM   15  C           1     -20.320  -6.039  -7.269  0.00  0.00     0.047 C 
HETATM   16  C           1     -19.655  -4.891  -6.520  0.00  0.00     0.033 C 
HETATM   17  C           1     -20.386  -4.808  -5.191  0.00  0.00     0.271 C 
HETATM   18  N           1     -21.685  -5.414  -5.469  0.00  0.00     0.097 N 
HETATM   19  H           1     -22.277  -4.740  -5.955  0.00  0.00     0.317 HD
ENDBRANCH   1  14
TORSDOF 6
ENDMDL
MODEL 5
REMARK VINA RESULT:      -5.6      8.930     11.481
REMARK  6 active torsions:
REMARK  status: ('A' for Active; 'I' for Inactive)
REMARK    1  A    between atoms: C_3  and  C_4 
REMARK    2  A    between atoms: C_4  and  C_5 
REMARK    3  A    between atoms: C_4  and  N_9 
REMARK    4  A    between atoms: C_5  and  C_8 
REMARK       I    between atoms: C_6  and  N_9 
REMARK    5  A    between atoms: C_6  and  C_15 
REMARK    6  A    between atoms: C_8  and  C_10 
ROOT
HETATM    1  C           1     -27.354  -7.167 -19.946  0.00  0.00     0.251 C 
HETATM    2  O           1     -27.826  -8.187 -20.387  0.00  0.00    -0.271 OA
HETATM    3  N           1     -27.904  -6.581 -18.838  0.00  0.00    -0.345 N 
HETATM    4  H           1     -27.509  -5.726 -18.468  0.00  0.00     0.163 HD
ENDROOT
BRANCH   3   5
HETATM    5  C           1     -29.055  -7.184 -18.195  0.00  0.00     0.186 C 
BRANCH   5   6
HETATM    6  C           1     -30.122  -6.139 -17.989  0.00  0.00     0.196 C 
HETATM    7  O           1     -29.937  -4.969 -18.389  0.00  0.00    -0.646 OA
HETATM    8  O           1     -31.193  -6.441 -17.418  0.00  0.00    -0.646 OA
ENDBRANCH   5   6
BRANCH   5   9
HETATM    9  C           1     -28.640  -7.758 -16.846  0.00  0.00     0.046 C 
BRANCH   9  10
HETATM   10  C           1     -28.139  -6.636 -15.948  0.00  0.00     0.116 C 
BRANCH  10  11
HETATM   11  C           1     -26.632  -6.575 -16.011  0.00  0.00     0.172 C 
HETATM   12  O           1     -25.946  -7.410 -15.384  0.00  0.00    -0.648 OA
HETATM   13  O           1     -26.071  -5.689 -16.692  0.00  0.00    -0.648 OA
ENDBRANCH  10  11
ENDBRANCH   9  10
ENDBRANCH   5   9
ENDBRANCH   3   5
BRANCH   1  14
HETATM   14  C           1     -26.155  -6.539 -20.615  0.00  0.00     0.311 C 
HETATM   15  C           1     -25.424  -7.555 -21.476  0.00  0.00     0.047 C 
HETATM   16  C           1     -24.318  -8.108 -20.585  0.00  0.00     0.033 C 
HETATM   17  C           1     -24.470  -7.375 -19.263  0.00  0.00     0.271 C 
HETATM   18  N           1     -25.158  -6.139 -19.627  0.00  0.00     0.097 N 
HETATM   19  H           1     -24.489  -5.484 -20.032  0.00  0.00     0.317 HD
ENDBRANCH   1  14
TORSDOF 6
ENDMDL
MODEL 6
REMARK VINA RESULT:      -5.6      2.708      6.649
REMARK  6 active torsions:
REMARK  status: ('A' for Active; 'I' for Inactive)
REMARK    1  A    between atoms: C_3  and  C_4 
REMARK    2  A    between atoms: C_4  and  C_5 
REMARK    3  A    between atoms: C_4  and  N_9 
REMARK    4  A    between atoms: C_5  and  C_8 
REMARK       I    between atoms: C_6  and  N_9 
REMARK    5  A    between atoms: C_6  and  C_15 
REMARK    6  A    between atoms: C_8  and  C_10 
ROOT
HETATM    1  C           1     -21.524  -4.242 -10.052  0.00  0.00     0.251 C 
HETATM    2  O           1     -20.655  -3.408 -10.141  0.00  0.00    -0.271 OA
HETATM    3  N           1     -21.796  -4.819  -8.841  0.00  0.00    -0.345 N 
HETATM    4  H           1     -22.524  -5.519  -8.766  0.00  0.00     0.163 HD
ENDROOT
BRANCH   3   5
HETATM    5  C           1     -21.043  -4.430  -7.666  0.00  0.00     0.186 C 
BRANCH   5   6
HETATM    6  C           1     -19.708  -5.132  -7.668  0.00  0.00     0.196 C 
HETATM    7  O           1     -19.657  -6.378  -7.758  0.00  0.00    -0.646 OA
HETATM    8  O           1     -18.652  -4.469  -7.579  0.00  0.00    -0.646 OA
ENDBRANCH   5   6
BRANCH   5   9
HETATM    9  C           1     -21.818  -4.816  -6.414  0.00  0.00     0.046 C 
BRANCH   9  10
HETATM   10  C           1     -20.844  -5.088  -5.275  0.00  0.00     0.116 C 
BRANCH  10  11
HETATM   11  C           1     -21.322  -6.275  -4.475  0.00  0.00     0.172 C 
HETATM   12  O           1     -20.730  -7.371  -4.570  0.00  0.00    -0.648 OA
HETATM   13  O           1     -22.310  -6.160  -3.717  0.00  0.00    -0.648 OA
ENDBRANCH  10  11
ENDBRANCH   9  10
ENDBRANCH   5   9
ENDBRANCH   3   5
BRANCH   1  14
HETATM   14  C           1     -22.309  -4.648 -11.276  0.00  0.00     0.311 C 
HETATM   15  C           1     -22.251  -3.562 -12.338  0.00  0.00     0.047 C 
HETATM   16  C           1     -23.507  -2.727 -12.120  0.00  0.00     0.033 C 
HETATM   17  C           1     -24.221  -3.381 -10.950  0.00  0.00     0.271 C 
HETATM   18  N           1     -23.731  -4.757 -10.968  0.00  0.00     0.097 N 
HETATM   19  H           1     -24.219  -5.282 -11.693  0.00  0.00     0.317 HD
ENDBRANCH   1  14
TORSDOF 6
ENDMDL
MODEL 7
REMARK VINA RESULT:      -5.5      6.648      9.370
REMARK  6 active torsions:
REMARK  status: ('A' for Active; 'I' for Inactive)
REMARK    1  A    between atoms: C_3  and  C_4 
REMARK    2  A    between atoms: C_4  and  C_5 
REMARK    3  A    between atoms: C_4  and  N_9 
REMARK    4  A    between atoms: C_5  and  C_8 
REMARK       I    between atoms: C_6  and  N_9 
REMARK    5  A    between atoms: C_6  and  C_15 
REMARK    6  A    between atoms: C_8  and  C_10 
ROOT
HETATM    1  C           1     -21.286 -10.178  -1.190  0.00  0.00     0.251 C 
HETATM    2  O           1     -20.451  -9.978  -0.340  0.00  0.00    -0.271 OA
HETATM    3  N           1     -21.729  -9.144  -1.969  0.00  0.00    -0.345 N 
HETATM    4  H           1     -22.429  -9.311  -2.681  0.00  0.00     0.163 HD
ENDROOT
BRANCH   3   5
HETATM    5  C           1     -21.198  -7.809  -1.775  0.00  0.00     0.186 C 
BRANCH   5   6
HETATM    6  C           1     -22.289  -6.903  -1.264  0.00  0.00     0.196 C 
HETATM    7  O           1     -22.487  -5.794  -1.806  0.00  0.00    -0.646 OA
HETATM    8  O           1     -22.997  -7.259  -0.296  0.00  0.00    -0.646 OA
ENDBRANCH   5   6
BRANCH   5   9
HETATM    9  C           1     -20.672  -7.274  -3.100  0.00  0.00     0.046 C 
BRANCH   9  10
HETATM   10  C           1     -21.342  -8.013  -4.250  0.00  0.00     0.116 C 
BRANCH  10  11
HETATM   11  C           1     -21.696  -7.032  -5.341  0.00  0.00     0.172 C 
HETATM   12  O           1     -22.525  -6.123  -5.119  0.00  0.00    -0.648 OA
HETATM   13  O           1     -21.160  -7.129  -6.466  0.00  0.00    -0.648 OA
ENDBRANCH  10  11
ENDBRANCH   9  10
ENDBRANCH   5   9
ENDBRANCH   3   5
BRANCH   1  14
HETATM   14  C           1     -21.839 -11.567  -1.392  0.00  0.00     0.311 C 
HETATM   15  C           1     -23.182 -11.516  -2.101  0.00  0.00     0.047 C 
HETATM   16  C           1     -24.220 -11.540  -0.985  0.00  0.00     0.033 C 
HETATM   17  C           1     -23.417 -11.611   0.302  0.00  0.00     0.271 C 
HETATM   18  N           1     -22.146 -12.196  -0.112  0.00  0.00     0.097 N 
HETATM   19  H           1     -22.255 -13.205  -0.220  0.00  0.00     0.317 HD
ENDBRANCH   1  14
TORSDOF 6
ENDMDL
MODEL 8
REMARK VINA RESULT:      -5.5      4.321      7.956
REMARK  6 active torsions:
REMARK  status: ('A' for Active; 'I' for Inactive)
REMARK    1  A    between atoms: C_3  and  C_4 
REMARK    2  A    between atoms: C_4  and  C_5 
REMARK    3  A    between atoms: C_4  and  N_9 
REMARK    4  A    between atoms: C_5  and  C_8 
REMARK       I    between atoms: C_6  and  N_9 
REMARK    5  A    between atoms: C_6  and  C_15 
REMARK    6  A    between atoms: C_8  and  C_10 
ROOT
HETATM    1  C           1     -21.334  -5.433  -5.547  0.00  0.00     0.251 C 
HETATM    2  O           1     -22.523  -5.479  -5.754  0.00  0.00    -0.271 OA
HETATM    3  N           1     -20.756  -6.319  -4.678  0.00  0.00    -0.345 N 
HETATM    4  H           1     -19.760  -6.280  -4.503  0.00  0.00     0.163 HD
ENDROOT
BRANCH   3   5
HETATM    5  C           1     -21.571  -7.312  -4.007  0.00  0.00     0.186 C 
BRANCH   5   6
HETATM    6  C           1     -21.722  -6.939  -2.553  0.00  0.00     0.196 C 
HETATM    7  O           1     -22.419  -5.953  -2.229  0.00  0.00    -0.646 OA
HETATM    8  O           1     -21.150  -7.617  -1.671  0.00  0.00    -0.646 OA
ENDBRANCH   5   6
BRANCH   5   9
HETATM    9  C           1     -20.902  -8.676  -4.114  0.00  0.00     0.046 C 
BRANCH   9  10
HETATM   10  C           1     -19.574  -8.535  -4.846  0.00  0.00     0.116 C 
BRANCH  10  11
HETATM   11  C           1     -18.488  -9.224  -4.056  0.00  0.00     0.172 C 
HETATM   12  O           1     -18.584  -9.318  -2.813  0.00  0.00    -0.648 OA
HETATM   13  O           1     -17.493  -9.700  -4.644  0.00  0.00    -0.648 OA
ENDBRANCH  10  11
ENDBRANCH   9  10
ENDBRANCH   5   9
ENDBRANCH   3   5
BRANCH   1  14
HETATM   14  C           1     -20.485  -4.399  -6.246  0.00  0.00     0.311 C 
HETATM   15  C           1     -21.310  -3.616  -7.254  0.00  0.00     0.047 C 
HETATM   16  C           1     -21.090  -4.327  -8.584  0.00  0.00     0.033 C 
HETATM   17  C           1     -20.147  -5.475  -8.269  0.00  0.00     0.271 C 
HETATM   18  N           1     -19.456  -5.036  -7.060  0.00  0.00     0.097 N 
HETATM   19  H           1     -18.726  -4.368  -7.309  0.00  0.00     0.317 HD
ENDBRANCH   1  14
TORSDOF 6
ENDMDL
MODEL 9
REMARK VINA RESULT:      -5.4      8.277     11.057
REMARK  6 active torsions:
REMARK  status: ('A' for Active; 'I' for Inactive)
REMARK    1  A    between atoms: C_3  and  C_4 
REMARK    2  A    between atoms: C_4  and  C_5 
REMARK    3  A    between atoms: C_4  and  N_9 
REMARK    4  A    between atoms: C_5  and  C_8 
REMARK       I    between atoms: C_6  and  N_9 
REMARK    5  A    between atoms: C_6  and  C_15 
REMARK    6  A    between atoms: C_8  and  C_10 
ROOT
HETATM    1  C           1     -27.209  -6.096 -19.183  0.00  0.00     0.251 C 
HETATM    2  O           1     -28.120  -5.331 -18.974  0.00  0.00    -0.271 OA
HETATM    3  N           1     -26.512  -6.632 -18.133  0.00  0.00    -0.345 N 
HETATM    4  H           1     -25.748  -7.273 -18.308  0.00  0.00     0.163 HD
ENDROOT
BRANCH   3   5
HETATM    5  C           1     -26.867  -6.281 -16.773  0.00  0.00     0.186 C 
BRANCH   5   6
HETATM    6  C           1     -25.665  -6.458 -15.878  0.00  0.00     0.196 C 
HETATM    7  O           1     -25.015  -5.460 -15.499  0.00  0.00    -0.646 OA
HETATM    8  O           1     -25.318  -7.604 -15.516  0.00  0.00    -0.646 OA
ENDBRANCH   5   6
BRANCH   5   9
HETATM    9  C           1     -27.995  -7.184 -16.292  0.00  0.00     0.046 C 
BRANCH   9  10
HETATM   10  C           1     -29.046  -6.348 -15.574  0.00  0.00     0.116 C 
BRANCH  10  11
HETATM   11  C           1     -30.206  -6.091 -16.504  0.00  0.00     0.172 C 
HETATM   12  O           1     -30.790  -4.986 -16.483  0.00  0.00    -0.648 OA
HETATM   13  O           1     -30.584  -6.983 -17.293  0.00  0.00    -0.648 OA
ENDBRANCH  10  11
ENDBRANCH   9  10
ENDBRANCH   5   9
ENDBRANCH   3   5
BRANCH   1  14
HETATM   14  C           1     -26.840  -6.462 -20.600  0.00  0.00     0.311 C 
HETATM   15  C           1     -26.486  -7.936 -20.702  0.00  0.00     0.047 C 
HETATM   16  C           1     -24.970  -7.991 -20.562  0.00  0.00     0.033 C 
HETATM   17  C           1     -24.534  -6.546 -20.394  0.00  0.00     0.271 C 
HETATM   18  N           1     -25.615  -5.782 -21.010  0.00  0.00     0.097 N 
HETATM   19  H           1     -25.511  -5.804 -22.024  0.00  0.00     0.317 HD
ENDBRANCH   1  14
TORSDOF 6
ENDMDL
