MODEL 1
REMARK VINA RESULT:      -6.1      0.000      0.000
REMARK  10 active torsions:
REMARK  status: ('A' for Active; 'I' for Inactive)
REMARK       I    between atoms: C_4  and  N_5 
REMARK    1  A    between atoms: C_4  and  C_19 
REMARK    2  A    between atoms: N_5  and  C_8 
REMARK    3  A    between atoms: C_8  and  C_20 
REMARK    4  A    between atoms: C_8  and  C_9 
REMARK    5  A    between atoms: N_10  and  C_11 
REMARK    6  A    between atoms: C_11  and  C_21 
REMARK    7  A    between atoms: C_13  and  C_18 
REMARK    8  A    between atoms: N_15  and  C_19 
REMARK    9  A    between atoms: C_18  and  C_19 
REMARK   10  A    between atoms: C_20  and  C_21 
ROOT
HETATM    1  C           1     -21.448  -4.553  -7.966  0.00  0.00     0.249 C 
HETATM    2  N           1     -21.914  -4.762  -9.236  0.00  0.00    -0.345 N 
HETATM    3  O           1     -21.604  -3.480  -7.434  0.00  0.00    -0.271 OA
HETATM    4  H           1     -21.782  -5.661  -9.682  0.00  0.00     0.163 HD
ENDROOT
BRANCH   2   5
HETATM    5  C           1     -22.596  -3.695  -9.943  0.00  0.00     0.185 C 
BRANCH   5   6
HETATM    6  C           1     -22.212  -3.735 -11.415  0.00  0.00     0.038 C 
BRANCH   6   7
HETATM    7  C           1     -22.836  -2.547 -12.136  0.00  0.00     0.030 C 
BRANCH   7   8
HETATM    8  C           1     -23.508  -3.025 -13.417  0.00  0.00     0.230 C 
BRANCH   8   9
HETATM    9  N           1     -22.520  -2.991 -14.545  0.00  0.00    -0.079 N 
HETATM   10  H           1     -21.971  -2.103 -14.500  0.00  0.00     0.274 HD
HETATM   11  H           1     -23.030  -3.042 -15.455  0.00  0.00     0.274 HD
HETATM   12  H           1     -21.871  -3.806 -14.464  0.00  0.00     0.274 HD
ENDBRANCH   8   9
ENDBRANCH   7   8
ENDBRANCH   6   7
ENDBRANCH   5   6
BRANCH   5  13
HETATM   13  C           1     -24.089  -3.877  -9.807  0.00  0.00     0.196 C 
HETATM   14  O           1     -24.607  -4.990 -10.044  0.00  0.00    -0.646 OA
HETATM   15  O           1     -24.806  -2.915  -9.456  0.00  0.00    -0.646 OA
ENDBRANCH   5  13
ENDBRANCH   2   5
BRANCH   1  16
HETATM   16  C           1     -20.737  -5.662  -7.231  0.00  0.00     0.278 C 
BRANCH  16  17
HETATM   17  N           1     -19.347  -5.221  -6.882  0.00  0.00    -0.066 N 
HETATM   18  H           1     -18.930  -5.893  -6.199  0.00  0.00     0.275 HD
HETATM   19  H           1     -18.762  -5.195  -7.749  0.00  0.00     0.275 HD
HETATM   20  H           1     -19.380  -4.268  -6.456  0.00  0.00     0.275 HD
ENDBRANCH  16  17
BRANCH  16  21
HETATM   21  C           1     -21.498  -5.996  -5.955  0.00  0.00     0.021 C 
HETATM   22  C           1     -21.575  -7.509  -5.790  0.00  0.00     0.012 C 
BRANCH  21  23
HETATM   23  C           1     -20.773  -5.392  -4.760  0.00  0.00     0.002 C 
HETATM   24  C           1     -21.231  -6.084  -3.483  0.00  0.00     0.005 C 
ENDBRANCH  21  23
ENDBRANCH  16  21
ENDBRANCH   1  16
TORSDOF 10
ENDMDL
MODEL 2
REMARK VINA RESULT:      -5.9      2.188      6.978
REMARK  10 active torsions:
REMARK  status: ('A' for Active; 'I' for Inactive)
REMARK       I    between atoms: C_4  and  N_5 
REMARK    1  A    between atoms: C_4  and  C_19 
REMARK    2  A    between atoms: N_5  and  C_8 
REMARK    3  A    between atoms: C_8  and  C_20 
REMARK    4  A    between atoms: C_8  and  C_9 
REMARK    5  A    between atoms: N_10  and  C_11 
REMARK    6  A    between atoms: C_11  and  C_21 
REMARK    7  A    between atoms: C_13  and  C_18 
REMARK    8  A    between atoms: N_15  and  C_19 
REMARK    9  A    between atoms: C_18  and  C_19 
REMARK   10  A    between atoms: C_20  and  C_21 
ROOT
HETATM    1  C           1     -22.443  -4.100  -8.246  0.00  0.00     0.249 C 
HETATM    2  N           1     -22.119  -5.273  -7.619  0.00  0.00    -0.345 N 
HETATM    3  O           1     -21.984  -3.056  -7.847  0.00  0.00    -0.271 OA
HETATM    4  H           1     -22.503  -6.148  -7.951  0.00  0.00     0.163 HD
ENDROOT
BRANCH   2   5
HETATM    5  C           1     -21.224  -5.262  -6.477  0.00  0.00     0.185 C 
BRANCH   5   6
HETATM    6  C           1     -21.701  -6.279  -5.450  0.00  0.00     0.038 C 
BRANCH   6   7
HETATM    7  C           1     -21.125  -5.930  -4.083  0.00  0.00     0.030 C 
BRANCH   7   8
HETATM    8  C           1     -21.833  -6.747  -3.009  0.00  0.00     0.230 C 
BRANCH   8   9
HETATM    9  N           1     -22.338  -5.832  -1.934  0.00  0.00    -0.079 N 
HETATM   10  H           1     -22.920  -6.377  -1.258  0.00  0.00     0.274 HD
HETATM   11  H           1     -22.918  -5.077  -2.365  0.00  0.00     0.274 HD
HETATM   12  H           1     -21.528  -5.404  -1.432  0.00  0.00     0.274 HD
ENDBRANCH   8   9
ENDBRANCH   7   8
ENDBRANCH   6   7
ENDBRANCH   5   6
BRANCH   5  13
HETATM   13  C           1     -19.829  -5.618  -6.929  0.00  0.00     0.196 C 
HETATM   14  O           1     -19.511  -6.817  -7.089  0.00  0.00    -0.646 OA
HETATM   15  O           1     -18.991  -4.715  -7.143  0.00  0.00    -0.646 OA
ENDBRANCH   5  13
ENDBRANCH   2   5
BRANCH   1  16
HETATM   16  C           1     -23.373  -4.112  -9.432  0.00  0.00     0.278 C 
BRANCH  16  17
HETATM   17  N           1     -24.638  -3.383  -9.083  0.00  0.00    -0.066 N 
HETATM   18  H           1     -25.454  -3.880  -9.508  0.00  0.00     0.275 HD
HETATM   19  H           1     -24.747  -3.356  -8.044  0.00  0.00     0.275 HD
HETATM   20  H           1     -24.592  -2.408  -9.455  0.00  0.00     0.275 HD
ENDBRANCH  16  17
BRANCH  16  21
HETATM   21  C           1     -22.702  -3.423 -10.613  0.00  0.00     0.021 C 
HETATM   22  C           1     -21.778  -4.408 -11.318  0.00  0.00     0.012 C 
BRANCH  21  23
HETATM   23  C           1     -23.765  -2.936 -11.589  0.00  0.00     0.002 C 
HETATM   24  C           1     -23.554  -3.599 -12.943  0.00  0.00     0.005 C 
ENDBRANCH  21  23
ENDBRANCH  16  21
ENDBRANCH   1  16
TORSDOF 10
ENDMDL
MODEL 3
REMARK VINA RESULT:      -5.7      3.171      4.937
REMARK  10 active torsions:
REMARK  status: ('A' for Active; 'I' for Inactive)
REMARK       I    between atoms: C_4  and  N_5 
REMARK    1  A    between atoms: C_4  and  C_19 
REMARK    2  A    between atoms: N_5  and  C_8 
REMARK    3  A    between atoms: C_8  and  C_20 
REMARK    4  A    between atoms: C_8  and  C_9 
REMARK    5  A    between atoms: N_10  and  C_11 
REMARK    6  A    between atoms: C_11  and  C_21 
REMARK    7  A    between atoms: C_13  and  C_18 
REMARK    8  A    between atoms: N_15  and  C_19 
REMARK    9  A    between atoms: C_18  and  C_19 
REMARK   10  A    between atoms: C_20  and  C_21 
ROOT
HETATM    1  C           1     -21.589  -6.540  -4.174  0.00  0.00     0.249 C 
HETATM    2  N           1     -21.033  -5.604  -5.004  0.00  0.00    -0.345 N 
HETATM    3  O           1     -22.325  -7.385  -4.624  0.00  0.00    -0.271 OA
HETATM    4  H           1     -20.417  -4.895  -4.627  0.00  0.00     0.163 HD
ENDROOT
BRANCH   2   5
HETATM    5  C           1     -21.327  -5.628  -6.424  0.00  0.00     0.185 C 
BRANCH   5   6
HETATM    6  C           1     -21.853  -4.267  -6.856  0.00  0.00     0.038 C 
BRANCH   6   7
HETATM    7  C           1     -23.234  -4.430  -7.480  0.00  0.00     0.030 C 
BRANCH   7   8
HETATM    8  C           1     -23.239  -3.814  -8.873  0.00  0.00     0.230 C 
BRANCH   8   9
HETATM    9  N           1     -24.597  -3.251  -9.168  0.00  0.00    -0.079 N 
HETATM   10  H           1     -24.821  -3.393 -10.179  0.00  0.00     0.274 HD
HETATM   11  H           1     -24.605  -2.230  -8.948  0.00  0.00     0.274 HD
HETATM   12  H           1     -25.311  -3.739  -8.581  0.00  0.00     0.274 HD
ENDBRANCH   8   9
ENDBRANCH   7   8
ENDBRANCH   6   7
ENDBRANCH   5   6
BRANCH   5  13
HETATM   13  C           1     -20.068  -5.949  -7.192  0.00  0.00     0.196 C 
HETATM   14  O           1     -19.399  -6.964  -6.900  0.00  0.00    -0.646 OA
HETATM   15  O           1     -19.694  -5.200  -8.121  0.00  0.00    -0.646 OA
ENDBRANCH   5  13
ENDBRANCH   2   5
BRANCH   1  16
HETATM   16  C           1     -21.284  -6.514  -2.697  0.00  0.00     0.278 C 
BRANCH  16  17
HETATM   17  N           1     -22.332  -5.712  -1.984  0.00  0.00    -0.066 N 
HETATM   18  H           1     -23.060  -6.356  -1.598  0.00  0.00     0.275 HD
HETATM   19  H           1     -21.889  -5.178  -1.202  0.00  0.00     0.275 HD
HETATM   20  H           1     -22.776  -5.045  -2.654  0.00  0.00     0.275 HD
ENDBRANCH  16  17
BRANCH  16  21
HETATM   21  C           1     -21.278  -7.936  -2.154  0.00  0.00     0.021 C 
HETATM   22  C           1     -19.902  -8.556  -2.363  0.00  0.00     0.012 C 
BRANCH  21  23
HETATM   23  C           1     -21.602  -7.913  -0.666  0.00  0.00     0.002 C 
HETATM   24  C           1     -22.606  -9.012  -0.346  0.00  0.00     0.005 C 
ENDBRANCH  21  23
ENDBRANCH  16  21
ENDBRANCH   1  16
TORSDOF 10
ENDMDL
MODEL 4
REMARK VINA RESULT:      -5.5      3.174      4.619
REMARK  10 active torsions:
REMARK  status: ('A' for Active; 'I' for Inactive)
REMARK       I    between atoms: C_4  and  N_5 
REMARK    1  A    between atoms: C_4  and  C_19 
REMARK    2  A    between atoms: N_5  and  C_8 
REMARK    3  A    between atoms: C_8  and  C_20 
REMARK    4  A    between atoms: C_8  and  C_9 
REMARK    5  A    between atoms: N_10  and  C_11 
REMARK    6  A    between atoms: C_11  and  C_21 
REMARK    7  A    between atoms: C_13  and  C_18 
REMARK    8  A    between atoms: N_15  and  C_19 
REMARK    9  A    between atoms: C_18  and  C_19 
REMARK   10  A    between atoms: C_20  and  C_21 
ROOT
HETATM    1  C           1     -21.333  -7.281  -5.264  0.00  0.00     0.249 C 
HETATM    2  N           1     -21.691  -6.026  -5.676  0.00  0.00    -0.345 N 
HETATM    3  O           1     -20.590  -7.951  -5.942  0.00  0.00    -0.271 OA
HETATM    4  H           1     -22.314  -5.465  -5.109  0.00  0.00     0.163 HD
ENDROOT
BRANCH   2   5
HETATM    5  C           1     -21.178  -5.500  -6.926  0.00  0.00     0.185 C 
BRANCH   5   6
HETATM    6  C           1     -22.198  -4.545  -7.531  0.00  0.00     0.038 C 
BRANCH   6   7
HETATM    7  C           1     -22.184  -4.680  -9.049  0.00  0.00     0.030 C 
BRANCH   7   8
HETATM    8  C           1     -23.200  -3.720  -9.654  0.00  0.00     0.230 C 
BRANCH   8   9
HETATM    9  N           1     -24.367  -3.573  -8.723  0.00  0.00    -0.079 N 
HETATM   10  H           1     -24.894  -4.474  -8.681  0.00  0.00     0.274 HD
HETATM   11  H           1     -24.997  -2.816  -9.073  0.00  0.00     0.274 HD
HETATM   12  H           1     -24.022  -3.326  -7.769  0.00  0.00     0.274 HD
ENDBRANCH   8   9
ENDBRANCH   7   8
ENDBRANCH   6   7
ENDBRANCH   5   6
BRANCH   5  13
HETATM   13  C           1     -19.888  -4.760  -6.668  0.00  0.00     0.196 C 
HETATM   14  O           1     -19.109  -4.512  -7.614  0.00  0.00    -0.646 OA
HETATM   15  O           1     -19.598  -4.396  -5.508  0.00  0.00    -0.646 OA
ENDBRANCH   5  13
ENDBRANCH   2   5
BRANCH   1  16
HETATM   16  C           1     -21.867  -7.830  -3.964  0.00  0.00     0.278 C 
BRANCH  16  17
HETATM   17  N           1     -21.613  -9.307  -3.902  0.00  0.00    -0.066 N 
HETATM   18  H           1     -22.526  -9.816  -3.877  0.00  0.00     0.275 HD
HETATM   19  H           1     -21.072  -9.602  -4.746  0.00  0.00     0.275 HD
HETATM   20  H           1     -21.066  -9.531  -3.041  0.00  0.00     0.275 HD
ENDBRANCH  16  17
BRANCH  16  21
HETATM   21  C           1     -21.167  -7.146  -2.797  0.00  0.00     0.021 C 
HETATM   22  C           1     -22.157  -6.250  -2.064  0.00  0.00     0.012 C 
BRANCH  21  23
HETATM   23  C           1     -20.631  -8.201  -1.838  0.00  0.00     0.002 C 
HETATM   24  C           1     -21.314  -8.053  -0.486  0.00  0.00     0.005 C 
ENDBRANCH  21  23
ENDBRANCH  16  21
ENDBRANCH   1  16
TORSDOF 10
ENDMDL
MODEL 5
REMARK VINA RESULT:      -5.5      2.995      7.391
REMARK  10 active torsions:
REMARK  status: ('A' for Active; 'I' for Inactive)
REMARK       I    between atoms: C_4  and  N_5 
REMARK    1  A    between atoms: C_4  and  C_19 
REMARK    2  A    between atoms: N_5  and  C_8 
REMARK    3  A    between atoms: C_8  and  C_20 
REMARK    4  A    between atoms: C_8  and  C_9 
REMARK    5  A    between atoms: N_10  and  C_11 
REMARK    6  A    between atoms: C_11  and  C_21 
REMARK    7  A    between atoms: C_13  and  C_18 
REMARK    8  A    between atoms: N_15  and  C_19 
REMARK    9  A    between atoms: C_18  and  C_19 
REMARK   10  A    between atoms: C_20  and  C_21 
ROOT
HETATM    1  C           1     -21.579  -5.168  -6.789  0.00  0.00     0.249 C 
HETATM    2  N           1     -21.632  -6.442  -6.291  0.00  0.00    -0.345 N 
HETATM    3  O           1     -21.010  -4.301  -6.169  0.00  0.00    -0.271 OA
HETATM    4  H           1     -22.109  -7.168  -6.810  0.00  0.00     0.163 HD
ENDROOT
BRANCH   2   5
HETATM    5  C           1     -21.005  -6.751  -5.021  0.00  0.00     0.185 C 
BRANCH   5   6
HETATM    6  C           1     -22.053  -6.725  -3.918  0.00  0.00     0.038 C 
BRANCH   6   7
HETATM    7  C           1     -21.474  -6.049  -2.681  0.00  0.00     0.030 C 
BRANCH   7   8
HETATM    8  C           1     -22.182  -6.571  -1.438  0.00  0.00     0.230 C 
BRANCH   8   9
HETATM    9  N           1     -21.928  -8.043  -1.297  0.00  0.00    -0.079 N 
HETATM   10  H           1     -22.654  -8.574  -1.830  0.00  0.00     0.274 HD
HETATM   11  H           1     -21.972  -8.308  -0.288  0.00  0.00     0.274 HD
HETATM   12  H           1     -20.981  -8.270  -1.676  0.00  0.00     0.274 HD
ENDBRANCH   8   9
ENDBRANCH   7   8
ENDBRANCH   6   7
ENDBRANCH   5   6
BRANCH   5  13
HETATM   13  C           1     -20.381  -8.124  -5.090  0.00  0.00     0.196 C 
HETATM   14  O           1     -20.854  -8.987  -5.861  0.00  0.00    -0.646 OA
HETATM   15  O           1     -19.391  -8.398  -4.377  0.00  0.00    -0.646 OA
ENDBRANCH   5  13
ENDBRANCH   2   5
BRANCH   1  16
HETATM   16  C           1     -22.232  -4.846  -8.110  0.00  0.00     0.278 C 
BRANCH  16  17
HETATM   17  N           1     -23.503  -4.086  -7.867  0.00  0.00    -0.066 N 
HETATM   18  H           1     -23.353  -3.394  -7.098  0.00  0.00     0.275 HD
HETATM   19  H           1     -23.779  -3.583  -8.741  0.00  0.00     0.275 HD
HETATM   20  H           1     -24.260  -4.752  -7.594  0.00  0.00     0.275 HD
ENDBRANCH  16  17
BRANCH  16  21
HETATM   21  C           1     -21.288  -3.998  -8.951  0.00  0.00     0.021 C 
HETATM   22  C           1     -20.034  -4.800  -9.273  0.00  0.00     0.012 C 
BRANCH  21  23
HETATM   23  C           1     -21.982  -3.599 -10.247  0.00  0.00     0.002 C 
HETATM   24  C           1     -20.938  -3.350 -11.327  0.00  0.00     0.005 C 
ENDBRANCH  21  23
ENDBRANCH  16  21
ENDBRANCH   1  16
TORSDOF 10
ENDMDL
MODEL 6
REMARK VINA RESULT:      -5.5      3.364      7.315
REMARK  10 active torsions:
REMARK  status: ('A' for Active; 'I' for Inactive)
REMARK       I    between atoms: C_4  and  N_5 
REMARK    1  A    between atoms: C_4  and  C_19 
REMARK    2  A    between atoms: N_5  and  C_8 
REMARK    3  A    between atoms: C_8  and  C_20 
REMARK    4  A    between atoms: C_8  and  C_9 
REMARK    5  A    between atoms: N_10  and  C_11 
REMARK    6  A    between atoms: C_11  and  C_21 
REMARK    7  A    between atoms: C_13  and  C_18 
REMARK    8  A    between atoms: N_15  and  C_19 
REMARK    9  A    between atoms: C_18  and  C_19 
REMARK   10  A    between atoms: C_20  and  C_21 
ROOT
HETATM    1  C           1     -21.691  -5.520  -5.836  0.00  0.00     0.249 C 
HETATM    2  N           1     -20.969  -6.360  -5.033  0.00  0.00    -0.345 N 
HETATM    3  O           1     -22.899  -5.571  -5.832  0.00  0.00    -0.271 OA
HETATM    4  H           1     -19.957  -6.318  -5.037  0.00  0.00     0.163 HD
ENDROOT
BRANCH   2   5
HETATM    5  C           1     -21.652  -7.309  -4.176  0.00  0.00     0.185 C 
BRANCH   5   6
HETATM    6  C           1     -20.955  -8.660  -4.260  0.00  0.00     0.038 C 
BRANCH   6   7
HETATM    7  C           1     -19.652  -8.514  -5.035  0.00  0.00     0.030 C 
BRANCH   7   8
HETATM    8  C           1     -18.553  -9.304  -4.336  0.00  0.00     0.230 C 
BRANCH   8   9
HETATM    9  N           1     -18.748  -9.227  -2.851  0.00  0.00    -0.079 N 
HETATM   10  H           1     -19.248  -8.342  -2.611  0.00  0.00     0.274 HD
HETATM   11  H           1     -17.816  -9.241  -2.378  0.00  0.00     0.274 HD
HETATM   12  H           1     -19.313 -10.045  -2.531  0.00  0.00     0.274 HD
ENDBRANCH   8   9
ENDBRANCH   7   8
ENDBRANCH   6   7
ENDBRANCH   5   6
BRANCH   5  13
HETATM   13  C           1     -21.618  -6.813  -2.750  0.00  0.00     0.196 C 
HETATM   14  O           1     -20.824  -7.322  -1.930  0.00  0.00    -0.646 OA
HETATM   15  O           1     -22.385  -5.894  -2.390  0.00  0.00    -0.646 OA
ENDBRANCH   5  13
ENDBRANCH   2   5
BRANCH   1  16
HETATM   16  C           1     -20.981  -4.533  -6.729  0.00  0.00     0.278 C 
BRANCH  16  17
HETATM   17  N           1     -19.499  -4.673  -6.549  0.00  0.00    -0.066 N 
HETATM   18  H           1     -19.112  -3.789  -6.145  0.00  0.00     0.275 HD
HETATM   19  H           1     -19.300  -5.469  -5.902  0.00  0.00     0.275 HD
HETATM   20  H           1     -19.051  -4.855  -7.475  0.00  0.00     0.275 HD
ENDBRANCH  16  17
BRANCH  16  21
HETATM   21  C           1     -21.344  -4.807  -8.182  0.00  0.00     0.021 C 
HETATM   22  C           1     -22.347  -3.766  -8.662  0.00  0.00     0.012 C 
BRANCH  21  23
HETATM   23  C           1     -20.088  -4.736  -9.041  0.00  0.00     0.002 C 
HETATM   24  C           1     -20.465  -4.333 -10.460  0.00  0.00     0.005 C 
ENDBRANCH  21  23
ENDBRANCH  16  21
ENDBRANCH   1  16
TORSDOF 10
ENDMDL
MODEL 7
REMARK VINA RESULT:      -5.4      1.687      2.022
REMARK  10 active torsions:
REMARK  status: ('A' for Active; 'I' for Inactive)
REMARK       I    between atoms: C_4  and  N_5 
REMARK    1  A    between atoms: C_4  and  C_19 
REMARK    2  A    between atoms: N_5  and  C_8 
REMARK    3  A    between atoms: C_8  and  C_20 
REMARK    4  A    between atoms: C_8  and  C_9 
REMARK    5  A    between atoms: N_10  and  C_11 
REMARK    6  A    between atoms: C_11  and  C_21 
REMARK    7  A    between atoms: C_13  and  C_18 
REMARK    8  A    between atoms: N_15  and  C_19 
REMARK    9  A    between atoms: C_18  and  C_19 
REMARK   10  A    between atoms: C_20  and  C_21 
ROOT
HETATM    1  C           1     -21.954  -4.478  -7.148  0.00  0.00     0.249 C 
HETATM    2  N           1     -22.848  -4.828  -8.124  0.00  0.00    -0.345 N 
HETATM    3  O           1     -21.318  -3.456  -7.250  0.00  0.00    -0.271 OA
HETATM    4  H           1     -23.380  -5.685  -8.039  0.00  0.00     0.163 HD
ENDROOT
BRANCH   2   5
HETATM    5  C           1     -23.032  -3.972  -9.280  0.00  0.00     0.185 C 
BRANCH   5   6
HETATM    6  C           1     -22.320  -4.580 -10.480  0.00  0.00     0.038 C 
BRANCH   6   7
HETATM    7  C           1     -22.679  -3.795 -11.736  0.00  0.00     0.030 C 
BRANCH   7   8
HETATM    8  C           1     -21.808  -2.548 -11.821  0.00  0.00     0.230 C 
BRANCH   8   9
HETATM    9  N           1     -20.379  -2.915 -11.547  0.00  0.00    -0.079 N 
HETATM   10  H           1     -20.302  -3.320 -10.587  0.00  0.00     0.274 HD
HETATM   11  H           1     -19.782  -2.060 -11.614  0.00  0.00     0.274 HD
HETATM   12  H           1     -20.059  -3.619 -12.249  0.00  0.00     0.274 HD
ENDBRANCH   8   9
ENDBRANCH   7   8
ENDBRANCH   6   7
ENDBRANCH   5   6
BRANCH   5  13
HETATM   13  C           1     -24.505  -3.843  -9.579  0.00  0.00     0.196 C 
HETATM   14  O           1     -25.193  -4.866  -9.788  0.00  0.00    -0.646 OA
HETATM   15  O           1     -25.039  -2.712  -9.619  0.00  0.00    -0.646 OA
ENDBRANCH   5  13
ENDBRANCH   2   5
BRANCH   1  16
HETATM   16  C           1     -21.762  -5.369  -5.946  0.00  0.00     0.278 C 
BRANCH  16  17
HETATM   17  N           1     -23.101  -5.781  -5.409  0.00  0.00    -0.066 N 
HETATM   18  H           1     -23.136  -6.823  -5.325  0.00  0.00     0.275 HD
HETATM   19  H           1     -23.246  -5.349  -4.469  0.00  0.00     0.275 HD
HETATM   20  H           1     -23.851  -5.460  -6.061  0.00  0.00     0.275 HD
ENDBRANCH  16  17
BRANCH  16  21
HETATM   21  C           1     -20.976  -6.609  -6.352  0.00  0.00     0.021 C 
HETATM   22  C           1     -19.541  -6.216  -6.682  0.00  0.00     0.012 C 
BRANCH  21  23
HETATM   23  C           1     -20.976  -7.609  -5.203  0.00  0.00     0.002 C 
HETATM   24  C           1     -19.631  -8.321  -5.148  0.00  0.00     0.005 C 
ENDBRANCH  21  23
ENDBRANCH  16  21
ENDBRANCH   1  16
TORSDOF 10
ENDMDL
MODEL 8
REMARK VINA RESULT:      -5.4      5.254      7.554
REMARK  10 active torsions:
REMARK  status: ('A' for Active; 'I' for Inactive)
REMARK       I    between atoms: C_4  and  N_5 
REMARK    1  A    between atoms: C_4  and  C_19 
REMARK    2  A    between atoms: N_5  and  C_8 
REMARK    3  A    between atoms: C_8  and  C_20 
REMARK    4  A    between atoms: C_8  and  C_9 
REMARK    5  A    between atoms: N_10  and  C_11 
REMARK    6  A    between atoms: C_11  and  C_21 
REMARK    7  A    between atoms: C_13  and  C_18 
REMARK    8  A    between atoms: N_15  and  C_19 
REMARK    9  A    between atoms: C_18  and  C_19 
REMARK   10  A    between atoms: C_20  and  C_21 
ROOT
HETATM    1  C           1     -21.254  -8.541  -2.255  0.00  0.00     0.249 C 
HETATM    2  N           1     -20.867  -7.786  -3.329  0.00  0.00    -0.345 N 
HETATM    3  O           1     -21.505  -9.714  -2.400  0.00  0.00    -0.271 OA
HETATM    4  H           1     -20.657  -6.803  -3.208  0.00  0.00     0.163 HD
ENDROOT
BRANCH   2   5
HETATM    5  C           1     -20.759  -8.394  -4.641  0.00  0.00     0.185 C 
BRANCH   5   6
HETATM    6  C           1     -21.289  -7.429  -5.693  0.00  0.00     0.038 C 
BRANCH   6   7
HETATM    7  C           1     -21.073  -5.996  -5.223  0.00  0.00     0.030 C 
BRANCH   7   8
HETATM    8  C           1     -20.164  -5.270  -6.207  0.00  0.00     0.230 C 
BRANCH   8   9
HETATM    9  N           1     -19.986  -6.109  -7.437  0.00  0.00    -0.079 N 
HETATM   10  H           1     -19.444  -5.570  -8.150  0.00  0.00     0.274 HD
HETATM   11  H           1     -20.924  -6.358  -7.826  0.00  0.00     0.274 HD
HETATM   12  H           1     -19.468  -6.982  -7.192  0.00  0.00     0.274 HD
ENDBRANCH   8   9
ENDBRANCH   7   8
ENDBRANCH   6   7
ENDBRANCH   5   6
BRANCH   5  13
HETATM   13  C           1     -19.311  -8.709  -4.931  0.00  0.00     0.196 C 
HETATM   14  O           1     -18.544  -9.037  -3.999  0.00  0.00    -0.646 OA
HETATM   15  O           1     -18.878  -8.641  -6.102  0.00  0.00    -0.646 OA
ENDBRANCH   5  13
ENDBRANCH   2   5
BRANCH   1  16
HETATM   16  C           1     -21.367  -7.909  -0.890  0.00  0.00     0.278 C 
BRANCH  16  17
HETATM   17  N           1     -22.408  -6.828  -0.924  0.00  0.00    -0.066 N 
HETATM   18  H           1     -22.494  -6.398   0.025  0.00  0.00     0.275 HD
HETATM   19  H           1     -22.126  -6.096  -1.615  0.00  0.00     0.275 HD
HETATM   20  H           1     -23.326  -7.238  -1.205  0.00  0.00     0.275 HD
ENDBRANCH  16  17
BRANCH  16  21
HETATM   21  C           1     -21.769  -8.966   0.129  0.00  0.00     0.021 C 
HETATM   22  C           1     -21.080  -8.680   1.457  0.00  0.00     0.012 C 
BRANCH  21  23
HETATM   23  C           1     -23.279  -8.936   0.324  0.00  0.00     0.002 C 
HETATM   24  C           1     -23.859 -10.312   0.025  0.00  0.00     0.005 C 
ENDBRANCH  21  23
ENDBRANCH  16  21
ENDBRANCH   1  16
TORSDOF 10
ENDMDL
MODEL 9
REMARK VINA RESULT:      -5.2      2.174      6.417
REMARK  10 active torsions:
REMARK  status: ('A' for Active; 'I' for Inactive)
REMARK       I    between atoms: C_4  and  N_5 
REMARK    1  A    between atoms: C_4  and  C_19 
REMARK    2  A    between atoms: N_5  and  C_8 
REMARK    3  A    between atoms: C_8  and  C_20 
REMARK    4  A    between atoms: C_8  and  C_9 
REMARK    5  A    between atoms: N_10  and  C_11 
REMARK    6  A    between atoms: C_11  and  C_21 
REMARK    7  A    between atoms: C_13  and  C_18 
REMARK    8  A    between atoms: N_15  and  C_19 
REMARK    9  A    between atoms: C_18  and  C_19 
REMARK   10  A    between atoms: C_20  and  C_21 
ROOT
HETATM    1  C           1     -23.023  -4.190  -8.993  0.00  0.00     0.249 C 
HETATM    2  N           1     -22.120  -4.998  -8.356  0.00  0.00    -0.345 N 
HETATM    3  O           1     -22.982  -2.994  -8.830  0.00  0.00    -0.271 OA
HETATM    4  H           1     -22.154  -6.001  -8.491  0.00  0.00     0.163 HD
ENDROOT
BRANCH   2   5
HETATM    5  C           1     -21.113  -4.418  -7.488  0.00  0.00     0.185 C 
BRANCH   5   6
HETATM    6  C           1     -21.123  -5.140  -6.147  0.00  0.00     0.038 C 
BRANCH   6   7
HETATM    7  C           1     -21.152  -6.646  -6.381  0.00  0.00     0.030 C 
BRANCH   7   8
HETATM    8  C           1     -20.254  -7.336  -5.362  0.00  0.00     0.230 C 
BRANCH   8   9
HETATM    9  N           1     -20.444  -8.821  -5.451  0.00  0.00    -0.079 N 
HETATM   10  H           1     -21.306  -9.094  -4.928  0.00  0.00     0.274 HD
HETATM   11  H           1     -19.615  -9.302  -5.034  0.00  0.00     0.274 HD
HETATM   12  H           1     -20.540  -9.100  -6.453  0.00  0.00     0.274 HD
ENDBRANCH   8   9
ENDBRANCH   7   8
ENDBRANCH   6   7
ENDBRANCH   5   6
BRANCH   5  13
HETATM   13  C           1     -19.754  -4.562  -8.128  0.00  0.00     0.196 C 
HETATM   14  O           1     -19.661  -4.899  -9.328  0.00  0.00    -0.646 OA
HETATM   15  O           1     -18.721  -4.343  -7.458  0.00  0.00    -0.646 OA
ENDBRANCH   5  13
ENDBRANCH   2   5
BRANCH   1  16
HETATM   16  C           1     -24.070  -4.793  -9.895  0.00  0.00     0.278 C 
BRANCH  16  17
HETATM   17  N           1     -25.400  -4.162  -9.610  0.00  0.00    -0.066 N 
HETATM   18  H           1     -25.626  -4.270  -8.595  0.00  0.00     0.275 HD
HETATM   19  H           1     -25.362  -3.146  -9.853  0.00  0.00     0.275 HD
HETATM   20  H           1     -26.138  -4.630 -10.182  0.00  0.00     0.275 HD
ENDBRANCH  16  17
BRANCH  16  21
HETATM   21  C           1     -23.693  -4.545 -11.349  0.00  0.00     0.021 C 
HETATM   22  C           1     -24.283  -3.218 -11.809  0.00  0.00     0.012 C 
BRANCH  21  23
HETATM   23  C           1     -22.176  -4.497 -11.479  0.00  0.00     0.002 C 
HETATM   24  C           1     -21.764  -3.198 -12.158  0.00  0.00     0.005 C 
ENDBRANCH  21  23
ENDBRANCH  16  21
ENDBRANCH   1  16
TORSDOF 10
ENDMDL
