MODEL 1
REMARK VINA RESULT:      -7.8      0.000      0.000
REMARK  11 active torsions:
REMARK  status: ('A' for Active; 'I' for Inactive)
REMARK       I    between atoms: C_1  and  N_2 
REMARK    1  A    between atoms: C_1  and  C_26 
REMARK    2  A    between atoms: N_2  and  C_10 
REMARK    3  A    between atoms: O_5  and  C_8 
REMARK    4  A    between atoms: C_6  and  O_13 
REMARK    5  A    between atoms: C_8  and  C_26 
REMARK    6  A    between atoms: C_10  and  C_17 
REMARK    7  A    between atoms: C_10  and  C_18 
REMARK    8  A    between atoms: O_13  and  P_27 
REMARK    9  A    between atoms: C_18  and  C_19 
REMARK   10  A    between atoms: O_21  and  P_27 
REMARK   11  A    between atoms: N_24  and  C_26 
ROOT
HETATM    1  C           1     -32.381  -4.512 -16.327  0.00  0.00     0.189 C 
ENDROOT
BRANCH   1   2
HETATM    2  N           1     -33.728  -4.664 -15.811  0.00  0.00    -0.344 N 
HETATM    3  C           1     -34.129  -3.940 -14.721  0.00  0.00     0.251 C 
HETATM    4  O           1     -34.635  -2.853 -14.871  0.00  0.00    -0.271 OA
HETATM    5  H           1     -34.369  -5.306 -16.257  0.00  0.00     0.163 HD
BRANCH   3   6
HETATM    6  C           1     -33.939  -4.500 -13.332  0.00  0.00     0.302 C 
BRANCH   6   7
HETATM    7  C           1     -34.734  -3.666 -12.336  0.00  0.00     0.153 C 
HETATM    8  C           1     -34.933  -4.464 -11.053  0.00  0.00     0.042 C 
BRANCH   7   9
HETATM    9  O           1     -34.035  -2.486 -12.047  0.00  0.00    -0.393 OA
HETATM   10  H           1     -34.555  -1.772 -12.372  0.00  0.00     0.210 HD
ENDBRANCH   7   9
ENDBRANCH   6   7
BRANCH   6  11
HETATM   11  N           1     -32.484  -4.454 -12.971  0.00  0.00    -0.064 N 
HETATM   12  H           1     -32.369  -4.681 -11.957  0.00  0.00     0.275 HD
HETATM   13  H           1     -31.961  -5.155 -13.545  0.00  0.00     0.275 HD
HETATM   14  H           1     -32.107  -3.498 -13.158  0.00  0.00     0.275 HD
ENDBRANCH   6  11
ENDBRANCH   3   6
ENDBRANCH   1   2
BRANCH   1  15
HETATM   15  C           1     -32.335  -3.334 -17.269  0.00  0.00     0.197 C 
HETATM   16  O           1     -31.233  -2.889 -17.659  0.00  0.00    -0.646 OA
HETATM   17  O           1     -33.397  -2.803 -17.658  0.00  0.00    -0.646 OA
ENDBRANCH   1  15
BRANCH   1  18
HETATM   18  C           1     -31.977  -5.776 -17.074  0.00  0.00     0.074 C 
BRANCH  18  19
HETATM   19  C           1     -30.624  -6.218 -16.612  0.00  0.00    -0.056 A 
HETATM   20  C           1     -29.975  -7.269 -17.260  0.00  0.00     0.010 A 
HETATM   21  C           1     -28.713  -7.682 -16.830  0.00  0.00     0.038 A 
HETATM   22  C           1     -28.102  -7.044 -15.752  0.00  0.00     0.081 A 
HETATM   23  C           1     -28.750  -5.993 -15.103  0.00  0.00     0.038 A 
HETATM   24  C           1     -30.012  -5.580 -15.533  0.00  0.00     0.010 A 
BRANCH  22  25
HETATM   25  O           1     -26.877  -7.444 -15.333  0.00  0.00    -0.247 OA
BRANCH  25  26
HETATM   26  P           1     -25.583  -6.714 -15.967  0.00  0.00     0.411 P 
HETATM   27  O           1     -25.982  -5.974 -17.184  0.00  0.00    -0.624 OA
HETATM   28  O           1     -24.566  -7.730 -16.318  0.00  0.00    -0.624 OA
BRANCH  26  29
HETATM   29  O           1     -24.966  -5.682 -14.888  0.00  0.00    -0.300 OA
HETATM   30  H           1     -25.713  -5.295 -14.466  0.00  0.00     0.223 HD
ENDBRANCH  26  29
ENDBRANCH  25  26
ENDBRANCH  22  25
ENDBRANCH  18  19
ENDBRANCH   1  18
TORSDOF 11
ENDMDL
MODEL 2
REMARK VINA RESULT:      -7.6     11.417     14.025
REMARK  11 active torsions:
REMARK  status: ('A' for Active; 'I' for Inactive)
REMARK       I    between atoms: C_1  and  N_2 
REMARK    1  A    between atoms: C_1  and  C_26 
REMARK    2  A    between atoms: N_2  and  C_10 
REMARK    3  A    between atoms: O_5  and  C_8 
REMARK    4  A    between atoms: C_6  and  O_13 
REMARK    5  A    between atoms: C_8  and  C_26 
REMARK    6  A    between atoms: C_10  and  C_17 
REMARK    7  A    between atoms: C_10  and  C_18 
REMARK    8  A    between atoms: O_13  and  P_27 
REMARK    9  A    between atoms: C_18  and  C_19 
REMARK   10  A    between atoms: O_21  and  P_27 
REMARK   11  A    between atoms: N_24  and  C_26 
ROOT
HETATM    1  C           1     -21.724  -6.554  -5.631  0.00  0.00     0.189 C 
ENDROOT
BRANCH   1   2
HETATM    2  N           1     -22.303  -6.402  -4.310  0.00  0.00    -0.344 N 
HETATM    3  C           1     -21.519  -6.558  -3.198  0.00  0.00     0.251 C 
HETATM    4  O           1     -20.946  -5.605  -2.725  0.00  0.00    -0.271 OA
HETATM    5  H           1     -23.285  -6.182  -4.211  0.00  0.00     0.163 HD
BRANCH   3   6
HETATM    6  C           1     -21.373  -7.919  -2.564  0.00  0.00     0.302 C 
BRANCH   6   7
HETATM    7  C           1     -22.129  -7.947  -1.241  0.00  0.00     0.153 C 
HETATM    8  C           1     -21.157  -8.250  -0.109  0.00  0.00     0.042 C 
BRANCH   7   9
HETATM    9  O           1     -22.729  -6.700  -1.019  0.00  0.00    -0.393 OA
HETATM   10  H           1     -23.652  -6.854  -0.917  0.00  0.00     0.210 HD
ENDBRANCH   7   9
ENDBRANCH   6   7
BRANCH   6  11
HETATM   11  N           1     -19.921  -8.199  -2.314  0.00  0.00    -0.064 N 
HETATM   12  H           1     -19.338  -7.615  -2.955  0.00  0.00     0.275 HD
HETATM   13  H           1     -19.687  -7.966  -1.322  0.00  0.00     0.275 HD
HETATM   14  H           1     -19.725  -9.211  -2.491  0.00  0.00     0.275 HD
ENDBRANCH   6  11
ENDBRANCH   3   6
ENDBRANCH   1   2
BRANCH   1  15
HETATM   15  C           1     -20.880  -7.804  -5.668  0.00  0.00     0.197 C 
HETATM   16  O           1     -21.424  -8.923  -5.795  0.00  0.00    -0.646 OA
HETATM   17  O           1     -19.636  -7.721  -5.573  0.00  0.00    -0.646 OA
ENDBRANCH   1  15
BRANCH   1  18
HETATM   18  C           1     -20.856  -5.344  -5.948  0.00  0.00     0.074 C 
BRANCH  18  19
HETATM   19  C           1     -21.237  -4.792  -7.286  0.00  0.00    -0.056 A 
HETATM   20  C           1     -22.508  -4.251  -7.480  0.00  0.00     0.010 A 
HETATM   21  C           1     -22.864  -3.737  -8.728  0.00  0.00     0.038 A 
HETATM   22  C           1     -21.949  -3.764  -9.780  0.00  0.00     0.081 A 
HETATM   23  C           1     -20.678  -4.306  -9.586  0.00  0.00     0.038 A 
HETATM   24  C           1     -20.322  -4.820  -8.338  0.00  0.00     0.010 A 
BRANCH  22  25
HETATM   25  O           1     -22.294  -3.265 -10.992  0.00  0.00    -0.247 OA
BRANCH  25  26
HETATM   26  P           1     -23.593  -3.886 -11.724  0.00  0.00     0.411 P 
HETATM   27  O           1     -24.794  -3.114 -11.336  0.00  0.00    -0.624 OA
HETATM   28  O           1     -23.762  -5.299 -11.316  0.00  0.00    -0.624 OA
BRANCH  26  29
HETATM   29  O           1     -23.397  -3.806 -13.325  0.00  0.00    -0.300 OA
HETATM   30  H           1     -24.120  -3.289 -13.634  0.00  0.00     0.223 HD
ENDBRANCH  26  29
ENDBRANCH  25  26
ENDBRANCH  22  25
ENDBRANCH  18  19
ENDBRANCH   1  18
TORSDOF 11
ENDMDL
MODEL 3
REMARK VINA RESULT:      -7.5     10.212     13.026
REMARK  11 active torsions:
REMARK  status: ('A' for Active; 'I' for Inactive)
REMARK       I    between atoms: C_1  and  N_2 
REMARK    1  A    between atoms: C_1  and  C_26 
REMARK    2  A    between atoms: N_2  and  C_10 
REMARK    3  A    between atoms: O_5  and  C_8 
REMARK    4  A    between atoms: C_6  and  O_13 
REMARK    5  A    between atoms: C_8  and  C_26 
REMARK    6  A    between atoms: C_10  and  C_17 
REMARK    7  A    between atoms: C_10  and  C_18 
REMARK    8  A    between atoms: O_13  and  P_27 
REMARK    9  A    between atoms: C_18  and  C_19 
REMARK   10  A    between atoms: O_21  and  P_27 
REMARK   11  A    between atoms: N_24  and  C_26 
ROOT
HETATM    1  C           1     -21.195  -6.059  -7.141  0.00  0.00     0.189 C 
ENDROOT
BRANCH   1   2
HETATM    2  N           1     -21.834  -6.958  -6.200  0.00  0.00    -0.344 N 
HETATM    3  C           1     -22.335  -6.471  -5.022  0.00  0.00     0.251 C 
HETATM    4  O           1     -23.478  -6.085  -4.965  0.00  0.00    -0.271 OA
HETATM    5  H           1     -21.910  -7.943  -6.414  0.00  0.00     0.163 HD
BRANCH   3   6
HETATM    6  C           1     -21.457  -6.418  -3.795  0.00  0.00     0.302 C 
BRANCH   6   7
HETATM    7  C           1     -20.898  -7.806  -3.511  0.00  0.00     0.153 C 
HETATM    8  C           1     -20.728  -7.985  -2.008  0.00  0.00     0.042 C 
BRANCH   7   9
HETATM    9  O           1     -21.783  -8.777  -3.999  0.00  0.00    -0.393 OA
HETATM   10  H           1     -21.966  -8.555  -4.895  0.00  0.00     0.210 HD
ENDBRANCH   7   9
ENDBRANCH   6   7
BRANCH   6  11
HETATM   11  N           1     -22.268  -5.957  -2.621  0.00  0.00    -0.064 N 
HETATM   12  H           1     -22.567  -4.967  -2.771  0.00  0.00     0.275 HD
HETATM   13  H           1     -23.114  -6.564  -2.522  0.00  0.00     0.275 HD
HETATM   14  H           1     -21.691  -6.018  -1.752  0.00  0.00     0.275 HD
ENDBRANCH   6  11
ENDBRANCH   3   6
ENDBRANCH   1   2
BRANCH   1  15
HETATM   15  C           1     -19.722  -5.965  -6.824  0.00  0.00     0.197 C 
HETATM   16  O           1     -19.026  -7.001  -6.775  0.00  0.00    -0.646 OA
HETATM   17  O           1     -19.200  -4.849  -6.610  0.00  0.00    -0.646 OA
ENDBRANCH   1  15
BRANCH   1  18
HETATM   18  C           1     -21.828  -4.678  -7.035  0.00  0.00     0.074 C 
BRANCH  18  19
HETATM   19  C           1     -22.111  -4.152  -8.408  0.00  0.00    -0.056 A 
HETATM   20  C           1     -21.087  -4.081  -9.352  0.00  0.00     0.010 A 
HETATM   21  C           1     -21.351  -3.590 -10.632  0.00  0.00     0.038 A 
HETATM   22  C           1     -22.639  -3.171 -10.965  0.00  0.00     0.081 A 
HETATM   23  C           1     -23.663  -3.241 -10.021  0.00  0.00     0.038 A 
HETATM   24  C           1     -23.399  -3.732  -8.741  0.00  0.00     0.010 A 
BRANCH  22  25
HETATM   25  O           1     -22.895  -2.694 -12.208  0.00  0.00    -0.247 OA
BRANCH  25  26
HETATM   26  P           1     -23.943  -3.507 -13.130  0.00  0.00     0.411 P 
HETATM   27  O           1     -23.631  -3.271 -14.557  0.00  0.00    -0.624 OA
HETATM   28  O           1     -25.318  -3.040 -12.842  0.00  0.00    -0.624 OA
BRANCH  26  29
HETATM   29  O           1     -23.830  -5.086 -12.809  0.00  0.00    -0.300 OA
HETATM   30  H           1     -24.104  -5.173 -11.913  0.00  0.00     0.223 HD
ENDBRANCH  26  29
ENDBRANCH  25  26
ENDBRANCH  22  25
ENDBRANCH  18  19
ENDBRANCH   1  18
TORSDOF 11
ENDMDL
MODEL 4
REMARK VINA RESULT:      -7.3     10.456     13.217
REMARK  11 active torsions:
REMARK  status: ('A' for Active; 'I' for Inactive)
REMARK       I    between atoms: C_1  and  N_2 
REMARK    1  A    between atoms: C_1  and  C_26 
REMARK    2  A    between atoms: N_2  and  C_10 
REMARK    3  A    between atoms: O_5  and  C_8 
REMARK    4  A    between atoms: C_6  and  O_13 
REMARK    5  A    between atoms: C_8  and  C_26 
REMARK    6  A    between atoms: C_10  and  C_17 
REMARK    7  A    between atoms: C_10  and  C_18 
REMARK    8  A    between atoms: O_13  and  P_27 
REMARK    9  A    between atoms: C_18  and  C_19 
REMARK   10  A    between atoms: O_21  and  P_27 
REMARK   11  A    between atoms: N_24  and  C_26 
ROOT
HETATM    1  C           1     -21.549  -5.488  -6.622  0.00  0.00     0.189 C 
ENDROOT
BRANCH   1   2
HETATM    2  N           1     -22.036  -5.601  -5.261  0.00  0.00    -0.344 N 
HETATM    3  C           1     -21.230  -6.128  -4.287  0.00  0.00     0.251 C 
HETATM    4  O           1     -20.505  -5.405  -3.646  0.00  0.00    -0.271 OA
HETATM    5  H           1     -22.971  -5.290  -5.031  0.00  0.00     0.163 HD
BRANCH   3   6
HETATM    6  C           1     -21.249  -7.613  -4.016  0.00  0.00     0.302 C 
BRANCH   6   7
HETATM    7  C           1     -21.680  -7.859  -2.575  0.00  0.00     0.153 C 
HETATM    8  C           1     -20.468  -8.265  -1.747  0.00  0.00     0.042 C 
BRANCH   7   9
HETATM    9  O           1     -22.235  -6.687  -2.045  0.00  0.00    -0.393 OA
HETATM   10  H           1     -22.892  -6.395  -2.653  0.00  0.00     0.210 HD
ENDBRANCH   7   9
ENDBRANCH   6   7
BRANCH   6  11
HETATM   11  N           1     -19.877  -8.177  -4.230  0.00  0.00    -0.064 N 
HETATM   12  H           1     -19.293  -8.006  -3.380  0.00  0.00     0.275 HD
HETATM   13  H           1     -19.946  -9.206  -4.402  0.00  0.00     0.275 HD
HETATM   14  H           1     -19.434  -7.713  -5.055  0.00  0.00     0.275 HD
ENDBRANCH   6  11
ENDBRANCH   3   6
ENDBRANCH   1   2
BRANCH   1  15
HETATM   15  C           1     -20.063  -5.747  -6.647  0.00  0.00     0.197 C 
HETATM   16  O           1     -19.633  -6.900  -6.866  0.00  0.00    -0.646 OA
HETATM   17  O           1     -19.262  -4.808  -6.449  0.00  0.00    -0.646 OA
ENDBRANCH   1  15
BRANCH   1  18
HETATM   18  C           1     -21.831  -4.087  -7.148  0.00  0.00     0.074 C 
BRANCH  18  19
HETATM   19  C           1     -22.331  -4.173  -8.556  0.00  0.00    -0.056 A 
HETATM   20  C           1     -23.701  -4.122  -8.813  0.00  0.00     0.010 A 
HETATM   21  C           1     -24.169  -4.203 -10.125  0.00  0.00     0.038 A 
HETATM   22  C           1     -23.266  -4.336 -11.179  0.00  0.00     0.081 A 
HETATM   23  C           1     -21.896  -4.388 -10.923  0.00  0.00     0.038 A 
HETATM   24  C           1     -21.428  -4.307  -9.610  0.00  0.00     0.010 A 
BRANCH  22  25
HETATM   25  O           1     -23.719  -4.415 -12.454  0.00  0.00    -0.247 OA
BRANCH  25  26
HETATM   26  P           1     -24.089  -3.038 -13.213  0.00  0.00     0.411 P 
HETATM   27  O           1     -25.513  -2.713 -12.980  0.00  0.00    -0.624 OA
HETATM   28  O           1     -23.852  -3.197 -14.666  0.00  0.00    -0.624 OA
BRANCH  26  29
HETATM   29  O           1     -23.164  -1.843 -12.642  0.00  0.00    -0.300 OA
HETATM   30  H           1     -22.285  -2.080 -12.882  0.00  0.00     0.223 HD
ENDBRANCH  26  29
ENDBRANCH  25  26
ENDBRANCH  22  25
ENDBRANCH  18  19
ENDBRANCH   1  18
TORSDOF 11
ENDMDL
MODEL 5
REMARK VINA RESULT:      -7.0      8.650     11.168
REMARK  11 active torsions:
REMARK  status: ('A' for Active; 'I' for Inactive)
REMARK       I    between atoms: C_1  and  N_2 
REMARK    1  A    between atoms: C_1  and  C_26 
REMARK    2  A    between atoms: N_2  and  C_10 
REMARK    3  A    between atoms: O_5  and  C_8 
REMARK    4  A    between atoms: C_6  and  O_13 
REMARK    5  A    between atoms: C_8  and  C_26 
REMARK    6  A    between atoms: C_10  and  C_17 
REMARK    7  A    between atoms: C_10  and  C_18 
REMARK    8  A    between atoms: O_13  and  P_27 
REMARK    9  A    between atoms: C_18  and  C_19 
REMARK   10  A    between atoms: O_21  and  P_27 
REMARK   11  A    between atoms: N_24  and  C_26 
ROOT
HETATM    1  C           1     -23.793  -3.761 -11.104  0.00  0.00     0.189 C 
ENDROOT
BRANCH   1   2
HETATM    2  N           1     -24.441  -3.144 -12.244  0.00  0.00    -0.344 N 
HETATM    3  C           1     -23.976  -3.386 -13.509  0.00  0.00     0.251 C 
HETATM    4  O           1     -24.414  -4.314 -14.146  0.00  0.00    -0.271 OA
HETATM    5  H           1     -25.236  -2.535 -12.105  0.00  0.00     0.163 HD
BRANCH   3   6
HETATM    6  C           1     -22.916  -2.493 -14.106  0.00  0.00     0.302 C 
BRANCH   6   7
HETATM    7  C           1     -23.523  -1.134 -14.434  0.00  0.00     0.153 C 
HETATM    8  C           1     -23.167  -0.752 -15.865  0.00  0.00     0.042 C 
BRANCH   7   9
HETATM    9  O           1     -24.917  -1.200 -14.303  0.00  0.00    -0.393 OA
HETATM   10  H           1     -25.284  -0.813 -15.079  0.00  0.00     0.210 HD
ENDBRANCH   7   9
ENDBRANCH   6   7
BRANCH   6  11
HETATM   11  N           1     -22.386  -3.118 -15.362  0.00  0.00    -0.064 N 
HETATM   12  H           1     -22.133  -2.369 -16.045  0.00  0.00     0.275 HD
HETATM   13  H           1     -21.536  -3.684 -15.136  0.00  0.00     0.275 HD
HETATM   14  H           1     -23.118  -3.736 -15.780  0.00  0.00     0.275 HD
ENDBRANCH   6  11
ENDBRANCH   3   6
ENDBRANCH   1   2
BRANCH   1  15
HETATM   15  C           1     -24.775  -3.865  -9.963  0.00  0.00     0.197 C 
HETATM   16  O           1     -25.077  -4.985  -9.498  0.00  0.00    -0.646 OA
HETATM   17  O           1     -25.286  -2.830  -9.483  0.00  0.00    -0.646 OA
ENDBRANCH   1  15
BRANCH   1  18
HETATM   18  C           1     -22.603  -2.913 -10.675  0.00  0.00     0.074 C 
BRANCH  18  19
HETATM   19  C           1     -21.823  -3.640  -9.624  0.00  0.00    -0.056 A 
HETATM   20  C           1     -20.781  -4.490  -9.993  0.00  0.00     0.010 A 
HETATM   21  C           1     -20.054  -5.169  -9.014  0.00  0.00     0.038 A 
HETATM   22  C           1     -20.371  -4.997  -7.667  0.00  0.00     0.081 A 
HETATM   23  C           1     -21.414  -4.148  -7.298  0.00  0.00     0.038 A 
HETATM   24  C           1     -22.141  -3.469  -8.277  0.00  0.00     0.010 A 
BRANCH  22  25
HETATM   25  O           1     -19.666  -5.656  -6.716  0.00  0.00    -0.247 OA
BRANCH  25  26
HETATM   26  P           1     -20.414  -6.827  -5.893  0.00  0.00     0.411 P 
HETATM   27  O           1     -21.579  -7.308  -6.668  0.00  0.00    -0.624 OA
HETATM   28  O           1     -20.874  -6.297  -4.590  0.00  0.00    -0.624 OA
BRANCH  26  29
HETATM   29  O           1     -19.389  -8.051  -5.647  0.00  0.00    -0.300 OA
HETATM   30  H           1     -18.549  -7.725  -5.920  0.00  0.00     0.223 HD
ENDBRANCH  26  29
ENDBRANCH  25  26
ENDBRANCH  22  25
ENDBRANCH  18  19
ENDBRANCH   1  18
TORSDOF 11
ENDMDL
MODEL 6
REMARK VINA RESULT:      -6.8     11.737     14.358
REMARK  11 active torsions:
REMARK  status: ('A' for Active; 'I' for Inactive)
REMARK       I    between atoms: C_1  and  N_2 
REMARK    1  A    between atoms: C_1  and  C_26 
REMARK    2  A    between atoms: N_2  and  C_10 
REMARK    3  A    between atoms: O_5  and  C_8 
REMARK    4  A    between atoms: C_6  and  O_13 
REMARK    5  A    between atoms: C_8  and  C_26 
REMARK    6  A    between atoms: C_10  and  C_17 
REMARK    7  A    between atoms: C_10  and  C_18 
REMARK    8  A    between atoms: O_13  and  P_27 
REMARK    9  A    between atoms: C_18  and  C_19 
REMARK   10  A    between atoms: O_21  and  P_27 
REMARK   11  A    between atoms: N_24  and  C_26 
ROOT
HETATM    1  C           1     -21.289  -7.553  -5.585  0.00  0.00     0.189 C 
ENDROOT
BRANCH   1   2
HETATM    2  N           1     -22.230  -7.484  -4.484  0.00  0.00    -0.344 N 
HETATM    3  C           1     -21.790  -7.165  -3.227  0.00  0.00     0.251 C 
HETATM    4  O           1     -21.756  -6.011  -2.874  0.00  0.00    -0.271 OA
HETATM    5  H           1     -23.211  -7.671  -4.645  0.00  0.00     0.163 HD
BRANCH   3   6
HETATM    6  C           1     -21.348  -8.258  -2.284  0.00  0.00     0.302 C 
BRANCH   6   7
HETATM    7  C           1     -22.205  -8.219  -1.025  0.00  0.00     0.153 C 
HETATM    8  C           1     -22.726  -9.618  -0.725  0.00  0.00     0.042 C 
BRANCH   7   9
HETATM    9  O           1     -21.433  -7.768   0.054  0.00  0.00    -0.393 OA
HETATM   10  H           1     -20.803  -8.442   0.241  0.00  0.00     0.210 HD
ENDBRANCH   7   9
ENDBRANCH   6   7
BRANCH   6  11
HETATM   11  N           1     -19.910  -8.046  -1.915  0.00  0.00    -0.064 N 
HETATM   12  H           1     -19.476  -7.366  -2.580  0.00  0.00     0.275 HD
HETATM   13  H           1     -19.852  -7.667  -0.943  0.00  0.00     0.275 HD
HETATM   14  H           1     -19.399  -8.957  -1.966  0.00  0.00     0.275 HD
ENDBRANCH   6  11
ENDBRANCH   3   6
ENDBRANCH   1   2
BRANCH   1  15
HETATM   15  C           1     -20.311  -8.675  -5.339  0.00  0.00     0.197 C 
HETATM   16  O           1     -19.160  -8.421  -4.922  0.00  0.00    -0.646 OA
HETATM   17  O           1     -20.651  -9.859  -5.553  0.00  0.00    -0.646 OA
ENDBRANCH   1  15
BRANCH   1  18
HETATM   18  C           1     -20.535  -6.235  -5.692  0.00  0.00     0.074 C 
BRANCH  18  19
HETATM   19  C           1     -21.066  -5.448  -6.849  0.00  0.00    -0.056 A 
HETATM   20  C           1     -20.306  -5.317  -8.011  0.00  0.00     0.010 A 
HETATM   21  C           1     -20.801  -4.583  -9.090  0.00  0.00     0.038 A 
HETATM   22  C           1     -22.055  -3.980  -9.005  0.00  0.00     0.081 A 
HETATM   23  C           1     -22.815  -4.109  -7.843  0.00  0.00     0.038 A 
HETATM   24  C           1     -22.320  -4.844  -6.764  0.00  0.00     0.010 A 
BRANCH  22  25
HETATM   25  O           1     -22.536  -3.267 -10.053  0.00  0.00    -0.247 OA
BRANCH  25  26
HETATM   26  P           1     -23.833  -3.839 -10.827  0.00  0.00     0.411 P 
HETATM   27  O           1     -23.862  -5.314 -10.718  0.00  0.00    -0.624 OA
HETATM   28  O           1     -23.765  -3.452 -12.255  0.00  0.00    -0.624 OA
BRANCH  26  29
HETATM   29  O           1     -25.171  -3.224 -10.164  0.00  0.00    -0.300 OA
HETATM   30  H           1     -25.223  -2.343 -10.492  0.00  0.00     0.223 HD
ENDBRANCH  26  29
ENDBRANCH  25  26
ENDBRANCH  22  25
ENDBRANCH  18  19
ENDBRANCH   1  18
TORSDOF 11
ENDMDL
MODEL 7
REMARK VINA RESULT:      -6.7      9.568     12.490
REMARK  11 active torsions:
REMARK  status: ('A' for Active; 'I' for Inactive)
REMARK       I    between atoms: C_1  and  N_2 
REMARK    1  A    between atoms: C_1  and  C_26 
REMARK    2  A    between atoms: N_2  and  C_10 
REMARK    3  A    between atoms: O_5  and  C_8 
REMARK    4  A    between atoms: C_6  and  O_13 
REMARK    5  A    between atoms: C_8  and  C_26 
REMARK    6  A    between atoms: C_10  and  C_17 
REMARK    7  A    between atoms: C_10  and  C_18 
REMARK    8  A    between atoms: O_13  and  P_27 
REMARK    9  A    between atoms: C_18  and  C_19 
REMARK   10  A    between atoms: O_21  and  P_27 
REMARK   11  A    between atoms: N_24  and  C_26 
ROOT
HETATM    1  C           1     -21.266  -5.258  -7.691  0.00  0.00     0.189 C 
ENDROOT
BRANCH   1   2
HETATM    2  N           1     -20.757  -5.598  -6.376  0.00  0.00    -0.344 N 
HETATM    3  C           1     -20.493  -6.905  -6.062  0.00  0.00     0.251 C 
HETATM    4  O           1     -19.397  -7.367  -6.273  0.00  0.00    -0.271 OA
HETATM    5  H           1     -20.598  -4.871  -5.693  0.00  0.00     0.163 HD
BRANCH   3   6
HETATM    6  C           1     -21.572  -7.766  -5.452  0.00  0.00     0.302 C 
BRANCH   6   7
HETATM    7  C           1     -21.722  -7.422  -3.975  0.00  0.00     0.153 C 
HETATM    8  C           1     -20.528  -7.970  -3.204  0.00  0.00     0.042 C 
BRANCH   7   9
HETATM    9  O           1     -21.776  -6.030  -3.822  0.00  0.00    -0.393 OA
HETATM   10  H           1     -20.972  -5.684  -4.169  0.00  0.00     0.210 HD
ENDBRANCH   7   9
ENDBRANCH   6   7
BRANCH   6  11
HETATM   11  N           1     -21.196  -9.211  -5.592  0.00  0.00    -0.064 N 
HETATM   12  H           1     -21.633  -9.761  -4.819  0.00  0.00     0.275 HD
HETATM   13  H           1     -21.537  -9.572  -6.512  0.00  0.00     0.275 HD
HETATM   14  H           1     -20.156  -9.307  -5.543  0.00  0.00     0.275 HD
ENDBRANCH   6  11
ENDBRANCH   3   6
ENDBRANCH   1   2
BRANCH   1  15
HETATM   15  C           1     -20.244  -4.426  -8.426  0.00  0.00     0.197 C 
HETATM   16  O           1     -19.891  -3.320  -7.964  0.00  0.00    -0.646 OA
HETATM   17  O           1     -19.751  -4.844  -9.495  0.00  0.00    -0.646 OA
ENDBRANCH   1  15
BRANCH   1  18
HETATM   18  C           1     -22.558  -4.465  -7.546  0.00  0.00     0.074 C 
BRANCH  18  19
HETATM   19  C           1     -23.151  -4.223  -8.899  0.00  0.00    -0.056 A 
HETATM   20  C           1     -22.698  -4.952  -9.998  0.00  0.00     0.010 A 
HETATM   21  C           1     -23.249  -4.726 -11.260  0.00  0.00     0.038 A 
HETATM   22  C           1     -24.253  -3.772 -11.421  0.00  0.00     0.081 A 
HETATM   23  C           1     -24.706  -3.042 -10.322  0.00  0.00     0.038 A 
HETATM   24  C           1     -24.154  -3.268  -9.060  0.00  0.00     0.010 A 
BRANCH  22  25
HETATM   25  O           1     -24.789  -3.552 -12.647  0.00  0.00    -0.247 OA
BRANCH  25  26
HETATM   26  P           1     -23.989  -2.581 -13.660  0.00  0.00     0.411 P 
HETATM   27  O           1     -23.614  -3.338 -14.875  0.00  0.00    -0.624 OA
HETATM   28  O           1     -22.767  -2.075 -12.997  0.00  0.00    -0.624 OA
BRANCH  26  29
HETATM   29  O           1     -24.935  -1.338 -14.072  0.00  0.00    -0.300 OA
HETATM   30  H           1     -25.506  -1.211 -13.334  0.00  0.00     0.223 HD
ENDBRANCH  26  29
ENDBRANCH  25  26
ENDBRANCH  22  25
ENDBRANCH  18  19
ENDBRANCH   1  18
TORSDOF 11
ENDMDL
MODEL 8
REMARK VINA RESULT:      -6.6      9.338     12.003
REMARK  11 active torsions:
REMARK  status: ('A' for Active; 'I' for Inactive)
REMARK       I    between atoms: C_1  and  N_2 
REMARK    1  A    between atoms: C_1  and  C_26 
REMARK    2  A    between atoms: N_2  and  C_10 
REMARK    3  A    between atoms: O_5  and  C_8 
REMARK    4  A    between atoms: C_6  and  O_13 
REMARK    5  A    between atoms: C_8  and  C_26 
REMARK    6  A    between atoms: C_10  and  C_17 
REMARK    7  A    between atoms: C_10  and  C_18 
REMARK    8  A    between atoms: O_13  and  P_27 
REMARK    9  A    between atoms: C_18  and  C_19 
REMARK   10  A    between atoms: O_21  and  P_27 
REMARK   11  A    between atoms: N_24  and  C_26 
ROOT
HETATM    1  C           1     -23.285  -4.755 -10.100  0.00  0.00     0.189 C 
ENDROOT
BRANCH   1   2
HETATM    2  N           1     -23.126  -4.829 -11.540  0.00  0.00    -0.344 N 
HETATM    3  C           1     -22.472  -3.829 -12.209  0.00  0.00     0.251 C 
HETATM    4  O           1     -21.278  -3.897 -12.378  0.00  0.00    -0.271 OA
HETATM    5  H           1     -23.499  -5.620 -12.049  0.00  0.00     0.163 HD
BRANCH   3   6
HETATM    6  C           1     -23.244  -2.644 -12.734  0.00  0.00     0.302 C 
BRANCH   6   7
HETATM    7  C           1     -23.391  -2.764 -14.246  0.00  0.00     0.153 C 
HETATM    8  C           1     -23.805  -1.416 -14.823  0.00  0.00     0.042 C 
BRANCH   7   9
HETATM    9  O           1     -22.166  -3.154 -14.806  0.00  0.00    -0.393 OA
HETATM   10  H           1     -21.521  -2.533 -14.514  0.00  0.00     0.210 HD
ENDBRANCH   7   9
ENDBRANCH   6   7
BRANCH   6  11
HETATM   11  N           1     -22.507  -1.381 -12.403  0.00  0.00    -0.064 N 
HETATM   12  H           1     -22.395  -0.805 -13.268  0.00  0.00     0.275 HD
HETATM   13  H           1     -23.048  -0.839 -11.692  0.00  0.00     0.275 HD
HETATM   14  H           1     -21.564  -1.618 -12.019  0.00  0.00     0.275 HD
ENDBRANCH   6  11
ENDBRANCH   3   6
ENDBRANCH   1   2
BRANCH   1  15
HETATM   15  C           1     -24.611  -4.113  -9.774  0.00  0.00     0.197 C 
HETATM   16  O           1     -24.708  -2.868  -9.729  0.00  0.00    -0.646 OA
HETATM   17  O           1     -25.612  -4.827  -9.549  0.00  0.00    -0.646 OA
ENDBRANCH   1  15
BRANCH   1  18
HETATM   18  C           1     -22.157  -3.921  -9.508  0.00  0.00     0.074 C 
BRANCH  18  19
HETATM   19  C           1     -21.605  -4.613  -8.301  0.00  0.00    -0.056 A 
HETATM   20  C           1     -20.300  -5.105  -8.315  0.00  0.00     0.010 A 
HETATM   21  C           1     -19.785  -5.751  -7.190  0.00  0.00     0.038 A 
HETATM   22  C           1     -20.576  -5.905  -6.052  0.00  0.00     0.081 A 
HETATM   23  C           1     -21.881  -5.413  -6.037  0.00  0.00     0.038 A 
HETATM   24  C           1     -22.396  -4.767  -7.163  0.00  0.00     0.010 A 
BRANCH  22  25
HETATM   25  O           1     -20.077  -6.532  -4.960  0.00  0.00    -0.247 OA
BRANCH  25  26
HETATM   26  P           1     -20.553  -8.048  -4.673  0.00  0.00     0.411 P 
HETATM   27  O           1     -21.611  -8.046  -3.639  0.00  0.00    -0.624 OA
HETATM   28  O           1     -19.400  -8.846  -4.197  0.00  0.00    -0.624 OA
BRANCH  26  29
HETATM   29  O           1     -21.133  -8.697  -6.034  0.00  0.00    -0.300 OA
HETATM   30  H           1     -21.498  -9.525  -5.774  0.00  0.00     0.223 HD
ENDBRANCH  26  29
ENDBRANCH  25  26
ENDBRANCH  22  25
ENDBRANCH  18  19
ENDBRANCH   1  18
TORSDOF 11
ENDMDL
MODEL 9
REMARK VINA RESULT:      -6.6      2.118      2.797
REMARK  11 active torsions:
REMARK  status: ('A' for Active; 'I' for Inactive)
REMARK       I    between atoms: C_1  and  N_2 
REMARK    1  A    between atoms: C_1  and  C_26 
REMARK    2  A    between atoms: N_2  and  C_10 
REMARK    3  A    between atoms: O_5  and  C_8 
REMARK    4  A    between atoms: C_6  and  O_13 
REMARK    5  A    between atoms: C_8  and  C_26 
REMARK    6  A    between atoms: C_10  and  C_17 
REMARK    7  A    between atoms: C_10  and  C_18 
REMARK    8  A    between atoms: O_13  and  P_27 
REMARK    9  A    between atoms: C_18  and  C_19 
REMARK   10  A    between atoms: O_21  and  P_27 
REMARK   11  A    between atoms: N_24  and  C_26 
ROOT
HETATM    1  C           1     -32.901  -4.711 -16.464  0.00  0.00     0.189 C 
ENDROOT
BRANCH   1   2
HETATM    2  N           1     -34.338  -4.807 -16.294  0.00  0.00    -0.344 N 
HETATM    3  C           1     -34.858  -5.565 -15.280  0.00  0.00     0.251 C 
HETATM    4  O           1     -35.068  -5.067 -14.199  0.00  0.00    -0.271 OA
HETATM    5  H           1     -34.955  -4.313 -16.925  0.00  0.00     0.163 HD
BRANCH   3   6
HETATM    6  C           1     -35.168  -7.024 -15.512  0.00  0.00     0.302 C 
BRANCH   6   7
HETATM    7  C           1     -36.291  -7.147 -16.535  0.00  0.00     0.153 C 
HETATM    8  C           1     -37.025  -8.465 -16.324  0.00  0.00     0.042 C 
BRANCH   7   9
HETATM    9  O           1     -37.189  -6.082 -16.375  0.00  0.00    -0.393 OA
HETATM   10  H           1     -37.030  -5.715 -15.523  0.00  0.00     0.210 HD
ENDBRANCH   7   9
ENDBRANCH   6   7
BRANCH   6  11
HETATM   11  N           1     -35.598  -7.654 -14.221  0.00  0.00    -0.064 N 
HETATM   12  H           1     -36.481  -8.192 -14.373  0.00  0.00     0.275 HD
HETATM   13  H           1     -34.850  -8.303 -13.884  0.00  0.00     0.275 HD
HETATM   14  H           1     -35.763  -6.910 -13.507  0.00  0.00     0.275 HD
ENDBRANCH   6  11
ENDBRANCH   3   6
ENDBRANCH   1   2
BRANCH   1  15
HETATM   15  C           1     -32.567  -3.444 -17.212  0.00  0.00     0.197 C 
HETATM   16  O           1     -31.386  -3.210 -17.548  0.00  0.00    -0.646 OA
HETATM   17  O           1     -33.471  -2.629 -17.494  0.00  0.00    -0.646 OA
ENDBRANCH   1  15
BRANCH   1  18
HETATM   18  C           1     -32.402  -5.915 -17.254  0.00  0.00     0.074 C 
BRANCH  18  19
HETATM   19  C           1     -31.037  -6.296 -16.774  0.00  0.00    -0.056 A 
HETATM   20  C           1     -30.346  -7.338 -17.393  0.00  0.00     0.010 A 
HETATM   21  C           1     -29.073  -7.694 -16.945  0.00  0.00     0.038 A 
HETATM   22  C           1     -28.493  -7.009 -15.879  0.00  0.00     0.081 A 
HETATM   23  C           1     -29.184  -5.968 -15.258  0.00  0.00     0.038 A 
HETATM   24  C           1     -30.457  -5.612 -15.706  0.00  0.00     0.010 A 
BRANCH  22  25
HETATM   25  O           1     -27.257  -7.355 -15.443  0.00  0.00    -0.247 OA
BRANCH  25  26
HETATM   26  P           1     -25.986  -6.600 -16.093  0.00  0.00     0.411 P 
HETATM   27  O           1     -25.385  -5.694 -15.089  0.00  0.00    -0.624 OA
HETATM   28  O           1     -26.427  -5.812 -17.266  0.00  0.00    -0.624 OA
BRANCH  26  29
HETATM   29  O           1     -24.890  -7.692 -16.556  0.00  0.00    -0.300 OA
HETATM   30  H           1     -25.361  -8.505 -16.604  0.00  0.00     0.223 HD
ENDBRANCH  26  29
ENDBRANCH  25  26
ENDBRANCH  22  25
ENDBRANCH  18  19
ENDBRANCH   1  18
TORSDOF 11
ENDMDL
