MODEL 1
REMARK VINA RESULT:      -5.7      0.000      0.000
REMARK  10 active torsions:
REMARK  status: ('A' for Active; 'I' for Inactive)
REMARK    1  A    between atoms: N_1  and  C_11 
REMARK       I    between atoms: N_1  and  C_4 
REMARK    2  A    between atoms: C_4  and  C_8 
REMARK    3  A    between atoms: C_5  and  S_13 
REMARK    4  A    between atoms: C_5  and  C_6 
REMARK    5  A    between atoms: C_6  and  C_11 
REMARK    6  A    between atoms: C_8  and  C_19 
REMARK    7  A    between atoms: C_8  and  N_21 
REMARK    8  A    between atoms: C_11  and  C_12 
REMARK    9  A    between atoms: S_16  and  C_17 
REMARK   10  A    between atoms: C_17  and  C_19 
ROOT
HETATM    1  N           1     -22.127  -4.919  -8.980  0.00  0.00    -0.345 N 
HETATM    2  C           1     -21.727  -4.726  -7.685  0.00  0.00     0.249 C 
HETATM    3  H           1     -22.044  -5.834  -9.403  0.00  0.00     0.163 HD
HETATM    4  O           1     -21.826  -3.634  -7.179  0.00  0.00    -0.271 OA
ENDROOT
BRANCH   2   5
HETATM    5  C           1     -21.162  -5.878  -6.890  0.00  0.00     0.275 C 
BRANCH   5   6
HETATM    6  C           1     -21.089  -5.492  -5.418  0.00  0.00     0.053 C 
BRANCH   6   7
HETATM    7  C           1     -21.412  -6.706  -4.558  0.00  0.00     0.076 C 
BRANCH   7   8
HETATM    8  S           1     -21.525  -6.205  -2.818  0.00  0.00    -0.173 SA
HETATM    9  C           1     -20.956  -7.780  -2.119  0.00  0.00     0.089 C 
ENDBRANCH   7   8
ENDBRANCH   6   7
ENDBRANCH   5   6
BRANCH   5  10
HETATM   10  N           1     -19.786  -6.203  -7.390  0.00  0.00    -0.066 N 
HETATM   11  H           1     -19.291  -6.793  -6.684  0.00  0.00     0.275 HD
HETATM   12  H           1     -19.857  -6.723  -8.292  0.00  0.00     0.275 HD
HETATM   13  H           1     -19.251  -5.317  -7.540  0.00  0.00     0.275 HD
ENDBRANCH   5  10
ENDBRANCH   2   5
BRANCH   1  14
HETATM   14  C           1     -22.669  -3.813  -9.744  0.00  0.00     0.186 C 
BRANCH  14  15
HETATM   15  C           1     -22.218  -3.929 -11.194  0.00  0.00     0.046 C 
BRANCH  15  16
HETATM   16  C           1     -22.632  -2.676 -11.956  0.00  0.00     0.076 C 
BRANCH  16  17
HETATM   17  S           1     -23.912  -3.101 -13.170  0.00  0.00    -0.173 SA
HETATM   18  C           1     -22.961  -2.620 -14.639  0.00  0.00     0.089 C 
ENDBRANCH  16  17
ENDBRANCH  15  16
ENDBRANCH  14  15
BRANCH  14  19
HETATM   19  C           1     -24.177  -3.851  -9.680  0.00  0.00     0.196 C 
HETATM   20  O           1     -24.816  -2.815  -9.394  0.00  0.00    -0.646 OA
HETATM   21  O           1     -24.786  -4.918  -9.913  0.00  0.00    -0.646 OA
ENDBRANCH  14  19
ENDBRANCH   1  14
TORSDOF 10
ENDMDL
MODEL 2
REMARK VINA RESULT:      -5.7     12.282     13.720
REMARK  10 active torsions:
REMARK  status: ('A' for Active; 'I' for Inactive)
REMARK    1  A    between atoms: N_1  and  C_11 
REMARK       I    between atoms: N_1  and  C_4 
REMARK    2  A    between atoms: C_4  and  C_8 
REMARK    3  A    between atoms: C_5  and  S_13 
REMARK    4  A    between atoms: C_5  and  C_6 
REMARK    5  A    between atoms: C_6  and  C_11 
REMARK    6  A    between atoms: C_8  and  C_19 
REMARK    7  A    between atoms: C_8  and  N_21 
REMARK    8  A    between atoms: C_11  and  C_12 
REMARK    9  A    between atoms: S_16  and  C_17 
REMARK   10  A    between atoms: C_17  and  C_19 
ROOT
HETATM    1  N           1     -35.311  -1.958 -12.126  0.00  0.00    -0.345 N 
HETATM    2  C           1     -34.218  -2.481 -11.490  0.00  0.00     0.249 C 
HETATM    3  H           1     -35.842  -2.529 -12.771  0.00  0.00     0.163 HD
HETATM    4  O           1     -33.585  -1.799 -10.720  0.00  0.00    -0.271 OA
ENDROOT
BRANCH   2   5
HETATM    5  C           1     -33.804  -3.908 -11.750  0.00  0.00     0.275 C 
BRANCH   5   6
HETATM    6  C           1     -34.138  -4.764 -10.535  0.00  0.00     0.053 C 
BRANCH   6   7
HETATM    7  C           1     -33.933  -6.234 -10.877  0.00  0.00     0.076 C 
BRANCH   7   8
HETATM    8  S           1     -34.940  -7.261  -9.771  0.00  0.00    -0.173 SA
HETATM    9  C           1     -33.896  -8.742  -9.868  0.00  0.00     0.089 C 
ENDBRANCH   7   8
ENDBRANCH   6   7
ENDBRANCH   5   6
BRANCH   5  10
HETATM   10  N           1     -32.327  -3.961 -12.007  0.00  0.00    -0.066 N 
HETATM   11  H           1     -31.943  -2.989 -12.023  0.00  0.00     0.275 HD
HETATM   12  H           1     -31.861  -4.508 -11.250  0.00  0.00     0.275 HD
HETATM   13  H           1     -32.150  -4.420 -12.929  0.00  0.00     0.275 HD
ENDBRANCH   5  10
ENDBRANCH   2   5
BRANCH   1  14
HETATM   14  C           1     -35.709  -0.587 -11.876  0.00  0.00     0.186 C 
BRANCH  14  15
HETATM   15  C           1     -36.303   0.009 -13.146  0.00  0.00     0.046 C 
BRANCH  15  16
HETATM   16  C           1     -35.209   0.159 -14.196  0.00  0.00     0.076 C 
BRANCH  16  17
HETATM   17  S           1     -35.805  -0.482 -15.787  0.00  0.00    -0.173 SA
HETATM   18  C           1     -37.541  -0.006 -15.555  0.00  0.00     0.089 C 
ENDBRANCH  16  17
ENDBRANCH  15  16
ENDBRANCH  14  15
BRANCH  14  19
HETATM   19  C           1     -36.742  -0.556 -10.775  0.00  0.00     0.196 C 
HETATM   20  O           1     -37.902  -0.967 -10.995  0.00  0.00    -0.646 OA
HETATM   21  O           1     -36.437  -0.119  -9.645  0.00  0.00    -0.646 OA
ENDBRANCH  14  19
ENDBRANCH   1  14
TORSDOF 10
ENDMDL
MODEL 3
REMARK VINA RESULT:      -5.2      3.295      4.603
REMARK  10 active torsions:
REMARK  status: ('A' for Active; 'I' for Inactive)
REMARK    1  A    between atoms: N_1  and  C_11 
REMARK       I    between atoms: N_1  and  C_4 
REMARK    2  A    between atoms: C_4  and  C_8 
REMARK    3  A    between atoms: C_5  and  S_13 
REMARK    4  A    between atoms: C_5  and  C_6 
REMARK    5  A    between atoms: C_6  and  C_11 
REMARK    6  A    between atoms: C_8  and  C_19 
REMARK    7  A    between atoms: C_8  and  N_21 
REMARK    8  A    between atoms: C_11  and  C_12 
REMARK    9  A    between atoms: S_16  and  C_17 
REMARK   10  A    between atoms: C_17  and  C_19 
ROOT
HETATM    1  N           1     -21.034  -5.417  -5.091  0.00  0.00    -0.345 N 
HETATM    2  C           1     -21.418  -6.534  -4.400  0.00  0.00     0.249 C 
HETATM    3  H           1     -20.664  -4.617  -4.593  0.00  0.00     0.163 HD
HETATM    4  O           1     -21.859  -7.490  -4.993  0.00  0.00    -0.271 OA
ENDROOT
BRANCH   2   5
HETATM    5  C           1     -21.290  -6.573  -2.897  0.00  0.00     0.275 C 
BRANCH   5   6
HETATM    6  C           1     -21.244  -8.021  -2.427  0.00  0.00     0.053 C 
BRANCH   6   7
HETATM    7  C           1     -21.002  -8.061  -0.924  0.00  0.00     0.076 C 
BRANCH   7   8
HETATM    8  S           1     -22.105  -9.284  -0.163  0.00  0.00    -0.173 SA
HETATM    9  C           1     -23.217  -8.087   0.626  0.00  0.00     0.089 C 
ENDBRANCH   7   8
ENDBRANCH   6   7
ENDBRANCH   5   6
BRANCH   5  10
HETATM   10  N           1     -22.471  -5.886  -2.277  0.00  0.00    -0.066 N 
HETATM   11  H           1     -23.324  -6.076  -2.852  0.00  0.00     0.275 HD
HETATM   12  H           1     -22.616  -6.247  -1.309  0.00  0.00     0.275 HD
HETATM   13  H           1     -22.297  -4.856  -2.243  0.00  0.00     0.275 HD
ENDBRANCH   5  10
ENDBRANCH   2   5
BRANCH   1  14
HETATM   14  C           1     -21.156  -5.380  -6.535  0.00  0.00     0.186 C 
BRANCH  14  15
HETATM   15  C           1     -21.697  -4.022  -6.963  0.00  0.00     0.046 C 
BRANCH  15  16
HETATM   16  C           1     -22.883  -4.220  -7.899  0.00  0.00     0.076 C 
BRANCH  16  17
HETATM   17  S           1     -22.319  -4.121  -9.621  0.00  0.00    -0.173 SA
HETATM   18  C           1     -23.825  -4.809 -10.364  0.00  0.00     0.089 C 
ENDBRANCH  16  17
ENDBRANCH  15  16
ENDBRANCH  14  15
BRANCH  14  19
HETATM   19  C           1     -19.800  -5.602  -7.159  0.00  0.00     0.196 C 
HETATM   20  O           1     -19.155  -4.631  -7.612  0.00  0.00    -0.646 OA
HETATM   21  O           1     -19.323  -6.755  -7.224  0.00  0.00    -0.646 OA
ENDBRANCH  14  19
ENDBRANCH   1  14
TORSDOF 10
ENDMDL
MODEL 4
REMARK VINA RESULT:      -5.1      2.827      7.692
REMARK  10 active torsions:
REMARK  status: ('A' for Active; 'I' for Inactive)
REMARK    1  A    between atoms: N_1  and  C_11 
REMARK       I    between atoms: N_1  and  C_4 
REMARK    2  A    between atoms: C_4  and  C_8 
REMARK    3  A    between atoms: C_5  and  S_13 
REMARK    4  A    between atoms: C_5  and  C_6 
REMARK    5  A    between atoms: C_6  and  C_11 
REMARK    6  A    between atoms: C_8  and  C_19 
REMARK    7  A    between atoms: C_8  and  N_21 
REMARK    8  A    between atoms: C_11  and  C_12 
REMARK    9  A    between atoms: S_16  and  C_17 
REMARK   10  A    between atoms: C_17  and  C_19 
ROOT
HETATM    1  N           1     -21.535  -5.610  -5.754  0.00  0.00    -0.345 N 
HETATM    2  C           1     -20.703  -4.727  -6.387  0.00  0.00     0.249 C 
HETATM    3  H           1     -22.496  -5.706  -6.057  0.00  0.00     0.163 HD
HETATM    4  O           1     -19.556  -4.613  -6.025  0.00  0.00    -0.271 OA
ENDROOT
BRANCH   2   5
HETATM    5  C           1     -21.218  -3.896  -7.536  0.00  0.00     0.275 C 
BRANCH   5   6
HETATM    6  C           1     -22.647  -4.311  -7.864  0.00  0.00     0.053 C 
BRANCH   6   7
HETATM    7  C           1     -23.097  -3.615  -9.142  0.00  0.00     0.076 C 
BRANCH   7   8
HETATM    8  S           1     -23.732  -4.847 -10.313  0.00  0.00    -0.173 SA
HETATM    9  C           1     -22.904  -4.173 -11.781  0.00  0.00     0.089 C 
ENDBRANCH   7   8
ENDBRANCH   6   7
ENDBRANCH   5   6
BRANCH   5  10
HETATM   10  N           1     -20.347  -4.113  -8.739  0.00  0.00    -0.066 N 
HETATM   11  H           1     -19.755  -4.961  -8.590  0.00  0.00     0.275 HD
HETATM   12  H           1     -20.946  -4.249  -9.583  0.00  0.00     0.275 HD
HETATM   13  H           1     -19.732  -3.279  -8.879  0.00  0.00     0.275 HD
ENDBRANCH   5  10
ENDBRANCH   2   5
BRANCH   1  14
HETATM   14  C           1     -21.041  -6.409  -4.650  0.00  0.00     0.186 C 
BRANCH  14  15
HETATM   15  C           1     -22.155  -6.611  -3.631  0.00  0.00     0.046 C 
BRANCH  15  16
HETATM   16  C           1     -21.738  -6.005  -2.296  0.00  0.00     0.076 C 
BRANCH  16  17
HETATM   17  S           1     -22.237  -7.111  -0.947  0.00  0.00    -0.173 SA
HETATM   18  C           1     -21.016  -8.409  -1.293  0.00  0.00     0.089 C 
ENDBRANCH  16  17
ENDBRANCH  15  16
ENDBRANCH  14  15
BRANCH  14  19
HETATM   19  C           1     -20.582  -7.751  -5.167  0.00  0.00     0.196 C 
HETATM   20  O           1     -21.184  -8.292  -6.120  0.00  0.00    -0.646 OA
HETATM   21  O           1     -19.601  -8.321  -4.642  0.00  0.00    -0.646 OA
ENDBRANCH  14  19
ENDBRANCH   1  14
TORSDOF 10
ENDMDL
MODEL 5
REMARK VINA RESULT:      -4.9      3.131      8.109
REMARK  10 active torsions:
REMARK  status: ('A' for Active; 'I' for Inactive)
REMARK    1  A    between atoms: N_1  and  C_11 
REMARK       I    between atoms: N_1  and  C_4 
REMARK    2  A    between atoms: C_4  and  C_8 
REMARK    3  A    between atoms: C_5  and  S_13 
REMARK    4  A    between atoms: C_5  and  C_6 
REMARK    5  A    between atoms: C_6  and  C_11 
REMARK    6  A    between atoms: C_8  and  C_19 
REMARK    7  A    between atoms: C_8  and  N_21 
REMARK    8  A    between atoms: C_11  and  C_12 
REMARK    9  A    between atoms: S_16  and  C_17 
REMARK   10  A    between atoms: C_17  and  C_19 
ROOT
HETATM    1  N           1     -20.770  -6.758  -4.743  0.00  0.00    -0.345 N 
HETATM    2  C           1     -21.414  -5.903  -5.596  0.00  0.00     0.249 C 
HETATM    3  H           1     -19.760  -6.820  -4.756  0.00  0.00     0.163 HD
HETATM    4  O           1     -22.619  -5.828  -5.579  0.00  0.00    -0.271 OA
ENDROOT
BRANCH   2   5
HETATM    5  C           1     -20.618  -5.054  -6.557  0.00  0.00     0.275 C 
BRANCH   5   6
HETATM    6  C           1     -21.527  -4.000  -7.177  0.00  0.00     0.053 C 
BRANCH   6   7
HETATM    7  C           1     -21.828  -4.377  -8.622  0.00  0.00     0.076 C 
BRANCH   7   8
HETATM    8  S           1     -23.568  -4.018  -8.993  0.00  0.00    -0.173 SA
HETATM    9  C           1     -23.610  -4.869 -10.595  0.00  0.00     0.089 C 
ENDBRANCH   7   8
ENDBRANCH   6   7
ENDBRANCH   5   6
BRANCH   5  10
HETATM   10  N           1     -20.051  -5.923  -7.639  0.00  0.00    -0.066 N 
HETATM   11  H           1     -19.220  -5.451  -8.064  0.00  0.00     0.275 HD
HETATM   12  H           1     -19.761  -6.841  -7.233  0.00  0.00     0.275 HD
HETATM   13  H           1     -20.775  -6.081  -8.376  0.00  0.00     0.275 HD
ENDBRANCH   5  10
ENDBRANCH   2   5
BRANCH   1  14
HETATM   14  C           1     -21.534  -7.573  -3.819  0.00  0.00     0.186 C 
BRANCH  14  15
HETATM   15  C           1     -20.894  -8.951  -3.710  0.00  0.00     0.046 C 
BRANCH  15  16
HETATM   16  C           1     -21.984 -10.011  -3.614  0.00  0.00     0.076 C 
BRANCH  16  17
HETATM   17  S           1     -21.646 -11.100  -2.202  0.00  0.00    -0.173 SA
HETATM   18  C           1     -22.810 -10.309  -1.057  0.00  0.00     0.089 C 
ENDBRANCH  16  17
ENDBRANCH  15  16
ENDBRANCH  14  15
BRANCH  14  19
HETATM   19  C           1     -21.547  -6.915  -2.461  0.00  0.00     0.196 C 
HETATM   20  O           1     -22.293  -5.934  -2.250  0.00  0.00    -0.646 OA
HETATM   21  O           1     -20.812  -7.351  -1.548  0.00  0.00    -0.646 OA
ENDBRANCH  14  19
ENDBRANCH   1  14
TORSDOF 10
ENDMDL
MODEL 6
REMARK VINA RESULT:      -4.7     12.388     14.183
REMARK  10 active torsions:
REMARK  status: ('A' for Active; 'I' for Inactive)
REMARK    1  A    between atoms: N_1  and  C_11 
REMARK       I    between atoms: N_1  and  C_4 
REMARK    2  A    between atoms: C_4  and  C_8 
REMARK    3  A    between atoms: C_5  and  S_13 
REMARK    4  A    between atoms: C_5  and  C_6 
REMARK    5  A    between atoms: C_6  and  C_11 
REMARK    6  A    between atoms: C_8  and  C_19 
REMARK    7  A    between atoms: C_8  and  N_21 
REMARK    8  A    between atoms: C_11  and  C_12 
REMARK    9  A    between atoms: S_16  and  C_17 
REMARK   10  A    between atoms: C_17  and  C_19 
ROOT
HETATM    1  N           1     -35.598  -1.671 -13.389  0.00  0.00    -0.345 N 
HETATM    2  C           1     -34.668  -2.175 -12.521  0.00  0.00     0.249 C 
HETATM    3  H           1     -36.025  -2.275 -14.079  0.00  0.00     0.163 HD
HETATM    4  O           1     -34.158  -1.455 -11.696  0.00  0.00    -0.271 OA
ENDROOT
BRANCH   2   5
HETATM    5  C           1     -34.279  -3.632 -12.594  0.00  0.00     0.275 C 
BRANCH   5   6
HETATM    6  C           1     -33.182  -3.916 -11.577  0.00  0.00     0.053 C 
BRANCH   6   7
HETATM    7  C           1     -33.214  -5.390 -11.193  0.00  0.00     0.076 C 
BRANCH   7   8
HETATM    8  S           1     -34.820  -5.788 -10.447  0.00  0.00    -0.173 SA
HETATM    9  C           1     -34.491  -7.554 -10.197  0.00  0.00     0.089 C 
ENDBRANCH   7   8
ENDBRANCH   6   7
ENDBRANCH   5   6
BRANCH   5  10
HETATM   10  N           1     -33.776  -3.946 -13.972  0.00  0.00    -0.066 N 
HETATM   11  H           1     -33.130  -3.187 -14.286  0.00  0.00     0.275 HD
HETATM   12  H           1     -33.264  -4.856 -13.957  0.00  0.00     0.275 HD
HETATM   13  H           1     -34.584  -4.011 -14.632  0.00  0.00     0.275 HD
ENDBRANCH   5  10
ENDBRANCH   2   5
BRANCH   1  14
HETATM   14  C           1     -35.973  -0.272 -13.319  0.00  0.00     0.186 C 
BRANCH  14  15
HETATM   15  C           1     -36.207   0.118 -11.866  0.00  0.00     0.046 C 
BRANCH  15  16
HETATM   16  C           1     -37.654  -0.172 -11.488  0.00  0.00     0.076 C 
BRANCH  16  17
HETATM   17  S           1     -37.999   0.510  -9.842  0.00  0.00    -0.173 SA
HETATM   18  C           1     -36.660  -0.361  -8.981  0.00  0.00     0.089 C 
ENDBRANCH  16  17
ENDBRANCH  15  16
ENDBRANCH  14  15
BRANCH  14  19
HETATM   19  C           1     -34.864   0.574 -13.896  0.00  0.00     0.196 C 
HETATM   20  O           1     -34.393   0.303 -15.022  0.00  0.00    -0.646 OA
HETATM   21  O           1     -34.416   1.544 -13.247  0.00  0.00    -0.646 OA
ENDBRANCH  14  19
ENDBRANCH   1  14
TORSDOF 10
ENDMDL
MODEL 7
REMARK VINA RESULT:      -4.7      3.283      7.672
REMARK  10 active torsions:
REMARK  status: ('A' for Active; 'I' for Inactive)
REMARK    1  A    between atoms: N_1  and  C_11 
REMARK       I    between atoms: N_1  and  C_4 
REMARK    2  A    between atoms: C_4  and  C_8 
REMARK    3  A    between atoms: C_5  and  S_13 
REMARK    4  A    between atoms: C_5  and  C_6 
REMARK    5  A    between atoms: C_6  and  C_11 
REMARK    6  A    between atoms: C_8  and  C_19 
REMARK    7  A    between atoms: C_8  and  N_21 
REMARK    8  A    between atoms: C_11  and  C_12 
REMARK    9  A    between atoms: S_16  and  C_17 
REMARK   10  A    between atoms: C_17  and  C_19 
ROOT
HETATM    1  N           1     -20.879  -6.764  -4.757  0.00  0.00    -0.345 N 
HETATM    2  C           1     -21.588  -5.942  -5.590  0.00  0.00     0.249 C 
HETATM    3  H           1     -19.868  -6.776  -4.800  0.00  0.00     0.163 HD
HETATM    4  O           1     -22.795  -5.927  -5.539  0.00  0.00    -0.271 OA
ENDROOT
BRANCH   2   5
HETATM    5  C           1     -20.863  -5.055  -6.572  0.00  0.00     0.275 C 
BRANCH   5   6
HETATM    6  C           1     -21.875  -4.219  -7.345  0.00  0.00     0.053 C 
BRANCH   6   7
HETATM    7  C           1     -21.418  -4.077  -8.791  0.00  0.00     0.076 C 
BRANCH   7   8
HETATM    8  S           1     -22.805  -4.432  -9.904  0.00  0.00    -0.173 SA
HETATM    9  C           1     -21.848  -4.365 -11.444  0.00  0.00     0.089 C 
ENDBRANCH   7   8
ENDBRANCH   6   7
ENDBRANCH   5   6
BRANCH   5  10
HETATM   10  N           1     -20.082  -5.904  -7.530  0.00  0.00    -0.066 N 
HETATM   11  H           1     -19.078  -5.615  -7.511  0.00  0.00     0.275 HD
HETATM   12  H           1     -20.161  -6.907  -7.250  0.00  0.00     0.275 HD
HETATM   13  H           1     -20.462  -5.781  -8.496  0.00  0.00     0.275 HD
ENDBRANCH   5  10
ENDBRANCH   2   5
BRANCH   1  14
HETATM   14  C           1     -21.575  -7.617  -3.813  0.00  0.00     0.186 C 
BRANCH  14  15
HETATM   15  C           1     -20.860  -8.958  -3.718  0.00  0.00     0.046 C 
BRANCH  15  16
HETATM   16  C           1     -19.496  -8.856  -4.390  0.00  0.00     0.076 C 
BRANCH  16  17
HETATM   17  S           1     -18.834 -10.522  -4.673  0.00  0.00    -0.173 SA
HETATM   18  C           1     -17.712 -10.064  -6.023  0.00  0.00     0.089 C 
ENDBRANCH  16  17
ENDBRANCH  15  16
ENDBRANCH  14  15
BRANCH  14  19
HETATM   19  C           1     -21.589  -6.956  -2.456  0.00  0.00     0.196 C 
HETATM   20  O           1     -22.284  -5.934  -2.266  0.00  0.00    -0.646 OA
HETATM   21  O           1     -20.905  -7.431  -1.523  0.00  0.00    -0.646 OA
ENDBRANCH  14  19
ENDBRANCH   1  14
TORSDOF 10
ENDMDL
MODEL 8
REMARK VINA RESULT:      -4.6      4.921      9.204
REMARK  10 active torsions:
REMARK  status: ('A' for Active; 'I' for Inactive)
REMARK    1  A    between atoms: N_1  and  C_11 
REMARK       I    between atoms: N_1  and  C_4 
REMARK    2  A    between atoms: C_4  and  C_8 
REMARK    3  A    between atoms: C_5  and  S_13 
REMARK    4  A    between atoms: C_5  and  C_6 
REMARK    5  A    between atoms: C_6  and  C_11 
REMARK    6  A    between atoms: C_8  and  C_19 
REMARK    7  A    between atoms: C_8  and  N_21 
REMARK    8  A    between atoms: C_11  and  C_12 
REMARK    9  A    between atoms: S_16  and  C_17 
REMARK   10  A    between atoms: C_17  and  C_19 
ROOT
HETATM    1  N           1     -20.829  -7.865  -2.477  0.00  0.00    -0.345 N 
HETATM    2  C           1     -21.035  -8.281  -3.764  0.00  0.00     0.249 C 
HETATM    3  H           1     -20.080  -7.217  -2.269  0.00  0.00     0.163 HD
HETATM    4  O           1     -21.929  -9.054  -4.013  0.00  0.00    -0.271 OA
ENDROOT
BRANCH   2   5
HETATM    5  C           1     -20.144  -7.775  -4.873  0.00  0.00     0.275 C 
BRANCH   5   6
HETATM    6  C           1     -20.967  -6.939  -5.844  0.00  0.00     0.053 C 
BRANCH   6   7
HETATM    7  C           1     -20.061  -5.933  -6.542  0.00  0.00     0.076 C 
BRANCH   7   8
HETATM    8  S           1     -21.047  -4.520  -7.112  0.00  0.00    -0.173 SA
HETATM    9  C           1     -19.947  -4.045  -8.474  0.00  0.00     0.089 C 
ENDBRANCH   7   8
ENDBRANCH   6   7
ENDBRANCH   5   6
BRANCH   5  10
HETATM   10  N           1     -19.544  -8.941  -5.602  0.00  0.00    -0.066 N 
HETATM   11  H           1     -18.527  -8.763  -5.763  0.00  0.00     0.275 HD
HETATM   12  H           1     -19.660  -9.807  -5.030  0.00  0.00     0.275 HD
HETATM   13  H           1     -20.026  -9.063  -6.521  0.00  0.00     0.275 HD
ENDBRANCH   5  10
ENDBRANCH   2   5
BRANCH   1  14
HETATM   14  C           1     -21.684  -8.350  -1.412  0.00  0.00     0.186 C 
BRANCH  14  15
HETATM   15  C           1     -20.825  -8.941  -0.301  0.00  0.00     0.046 C 
BRANCH  15  16
HETATM   16  C           1     -21.407 -10.281   0.132  0.00  0.00     0.076 C 
BRANCH  16  17
HETATM   17  S           1     -22.485 -10.925  -1.177  0.00  0.00    -0.173 SA
HETATM   18  C           1     -23.999 -10.982  -0.178  0.00  0.00     0.089 C 
ENDBRANCH  16  17
ENDBRANCH  15  16
ENDBRANCH  14  15
BRANCH  14  19
HETATM   19  C           1     -22.501  -7.206  -0.863  0.00  0.00     0.196 C 
HETATM   20  O           1     -23.261  -7.392   0.113  0.00  0.00    -0.646 OA
HETATM   21  O           1     -22.418  -6.072  -1.384  0.00  0.00    -0.646 OA
ENDBRANCH  14  19
ENDBRANCH   1  14
TORSDOF 10
ENDMDL
MODEL 9
REMARK VINA RESULT:      -4.5      2.039      2.381
REMARK  10 active torsions:
REMARK  status: ('A' for Active; 'I' for Inactive)
REMARK    1  A    between atoms: N_1  and  C_11 
REMARK       I    between atoms: N_1  and  C_4 
REMARK    2  A    between atoms: C_4  and  C_8 
REMARK    3  A    between atoms: C_5  and  S_13 
REMARK    4  A    between atoms: C_5  and  C_6 
REMARK    5  A    between atoms: C_6  and  C_11 
REMARK    6  A    between atoms: C_8  and  C_19 
REMARK    7  A    between atoms: C_8  and  N_21 
REMARK    8  A    between atoms: C_11  and  C_12 
REMARK    9  A    between atoms: S_16  and  C_17 
REMARK   10  A    between atoms: C_17  and  C_19 
ROOT
HETATM    1  N           1     -22.802  -4.869  -8.369  0.00  0.00    -0.345 N 
HETATM    2  C           1     -22.019  -4.391  -7.354  0.00  0.00     0.249 C 
HETATM    3  H           1     -23.158  -5.815  -8.331  0.00  0.00     0.163 HD
HETATM    4  O           1     -21.595  -3.260  -7.399  0.00  0.00    -0.271 OA
ENDROOT
BRANCH   2   5
HETATM    5  C           1     -21.686  -5.275  -6.177  0.00  0.00     0.275 C 
BRANCH   5   6
HETATM    6  C           1     -20.910  -6.493  -6.661  0.00  0.00     0.053 C 
BRANCH   6   7
HETATM    7  C           1     -20.170  -7.123  -5.487  0.00  0.00     0.076 C 
BRANCH   7   8
HETATM    8  S           1     -20.926  -8.722  -5.081  0.00  0.00    -0.173 SA
HETATM    9  C           1     -19.370  -9.611  -4.795  0.00  0.00     0.089 C 
ENDBRANCH   7   8
ENDBRANCH   6   7
ENDBRANCH   5   6
BRANCH   5  10
HETATM   10  N           1     -22.954  -5.723  -5.513  0.00  0.00    -0.066 N 
HETATM   11  H           1     -23.773  -5.320  -6.023  0.00  0.00     0.275 HD
HETATM   12  H           1     -23.009  -6.765  -5.533  0.00  0.00     0.275 HD
HETATM   13  H           1     -22.965  -5.392  -4.522  0.00  0.00     0.275 HD
ENDBRANCH   5  10
ENDBRANCH   2   5
BRANCH   1  14
HETATM   14  C           1     -23.123  -4.019  -9.499  0.00  0.00     0.186 C 
BRANCH  14  15
HETATM   15  C           1     -22.661  -4.691 -10.786  0.00  0.00     0.046 C 
BRANCH  15  16
HETATM   16  C           1     -22.080  -3.642 -11.726  0.00  0.00     0.076 C 
BRANCH  16  17
HETATM   17  S           1     -20.476  -3.080 -11.090  0.00  0.00    -0.173 SA
HETATM   18  C           1     -19.898  -4.711 -10.539  0.00  0.00     0.089 C 
ENDBRANCH  16  17
ENDBRANCH  15  16
ENDBRANCH  14  15
BRANCH  14  19
HETATM   19  C           1     -24.615  -3.799  -9.554  0.00  0.00     0.196 C 
HETATM   20  O           1     -25.076  -2.637  -9.518  0.00  0.00    -0.646 OA
HETATM   21  O           1     -25.389  -4.777  -9.633  0.00  0.00    -0.646 OA
ENDBRANCH  14  19
ENDBRANCH   1  14
TORSDOF 10
ENDMDL
