MODEL 1
REMARK VINA RESULT:      -6.7      0.000      0.000
REMARK  9 active torsions:
REMARK  status: ('A' for Active; 'I' for Inactive)
REMARK    1  A    between atoms: C_2  and  C_7 
REMARK    2  A    between atoms: C_2  and  C_3 
REMARK    3  A    between atoms: C_2  and  N_23 
REMARK    4  A    between atoms: C_3  and  C_4 
REMARK       I    between atoms: C_4  and  N_8 
REMARK    5  A    between atoms: N_6  and  C_9 
REMARK       I    between atoms: N_6  and  C_7 
REMARK    6  A    between atoms: C_9  and  C_10 
REMARK    7  A    between atoms: C_9  and  C_15 
REMARK    8  A    between atoms: C_10  and  C_11 
REMARK    9  A    between atoms: C_11  and  C_13 
ROOT
HETATM    1  N           1     -22.275  -4.826  -9.175  0.00  0.00    -0.345 N 
HETATM    2  C           1     -21.748  -4.527  -7.947  0.00  0.00     0.249 C 
HETATM    3  H           1     -22.247  -5.777  -9.519  0.00  0.00     0.163 HD
HETATM    4  O           1     -21.782  -3.393  -7.535  0.00  0.00    -0.271 OA
ENDROOT
BRANCH   2   5
HETATM    5  C           1     -21.125  -5.617  -7.107  0.00  0.00     0.283 C 
BRANCH   5   6
HETATM    6  C           1     -20.891  -5.097  -5.695  0.00  0.00     0.145 C 
BRANCH   6   7
HETATM    7  C           1     -21.038  -6.231  -4.710  0.00  0.00     0.217 C 
HETATM    8  O           1     -20.395  -7.243  -4.854  0.00  0.00    -0.274 OA
HETATM    9  N           1     -21.900  -6.114  -3.654  0.00  0.00    -0.370 N 
HETATM   10  H           1     -21.999  -6.874  -2.994  0.00  0.00     0.159 HD
HETATM   11  H           1     -22.441  -5.266  -3.533  0.00  0.00     0.159 HD
ENDBRANCH   6   7
ENDBRANCH   5   6
BRANCH   5  12
HETATM   12  N           1     -19.816  -6.026  -7.713  0.00  0.00    -0.066 N 
HETATM   13  H           1     -19.823  -7.054  -7.895  0.00  0.00     0.275 HD
HETATM   14  H           1     -19.039  -5.794  -7.052  0.00  0.00     0.275 HD
HETATM   15  H           1     -19.673  -5.514  -8.612  0.00  0.00     0.275 HD
ENDBRANCH   5  12
ENDBRANCH   2   5
BRANCH   1  16
HETATM   16  C           1     -22.873  -3.780  -9.981  0.00  0.00     0.186 C 
BRANCH  16  17
HETATM   17  C           1     -22.542  -4.019 -11.448  0.00  0.00     0.046 C 
BRANCH  17  18
HETATM   18  C           1     -22.730  -2.724 -12.229  0.00  0.00     0.116 C 
BRANCH  18  19
HETATM   19  C           1     -23.773  -2.928 -13.299  0.00  0.00     0.172 C 
HETATM   20  O           1     -24.987  -2.911 -12.999  0.00  0.00    -0.648 OA
HETATM   21  O           1     -23.425  -3.114 -14.485  0.00  0.00    -0.648 OA
ENDBRANCH  18  19
ENDBRANCH  17  18
ENDBRANCH  16  17
BRANCH  16  22
HETATM   22  C           1     -24.370  -3.796  -9.793  0.00  0.00     0.196 C 
HETATM   23  O           1     -24.999  -4.873  -9.879  0.00  0.00    -0.646 OA
HETATM   24  O           1     -24.981  -2.732  -9.553  0.00  0.00    -0.646 OA
ENDBRANCH  16  22
ENDBRANCH   1  16
TORSDOF 9
ENDMDL
MODEL 2
REMARK VINA RESULT:      -6.1      1.978      7.012
REMARK  9 active torsions:
REMARK  status: ('A' for Active; 'I' for Inactive)
REMARK    1  A    between atoms: C_2  and  C_7 
REMARK    2  A    between atoms: C_2  and  C_3 
REMARK    3  A    between atoms: C_2  and  N_23 
REMARK    4  A    between atoms: C_3  and  C_4 
REMARK       I    between atoms: C_4  and  N_8 
REMARK    5  A    between atoms: N_6  and  C_9 
REMARK       I    between atoms: N_6  and  C_7 
REMARK    6  A    between atoms: C_9  and  C_10 
REMARK    7  A    between atoms: C_9  and  C_15 
REMARK    8  A    between atoms: C_10  and  C_11 
REMARK    9  A    between atoms: C_11  and  C_13 
ROOT
HETATM    1  N           1     -22.255  -5.256  -8.612  0.00  0.00    -0.345 N 
HETATM    2  C           1     -23.070  -4.288  -9.135  0.00  0.00     0.249 C 
HETATM    3  H           1     -22.403  -6.227  -8.855  0.00  0.00     0.163 HD
HETATM    4  O           1     -22.894  -3.129  -8.846  0.00  0.00    -0.271 OA
ENDROOT
BRANCH   2   5
HETATM    5  C           1     -24.190  -4.670 -10.072  0.00  0.00     0.283 C 
BRANCH   5   6
HETATM    6  C           1     -23.683  -4.638 -11.508  0.00  0.00     0.145 C 
BRANCH   6   7
HETATM    7  C           1     -24.021  -3.306 -12.132  0.00  0.00     0.217 C 
HETATM    8  O           1     -25.097  -3.140 -12.656  0.00  0.00    -0.274 OA
HETATM    9  N           1     -23.109  -2.286 -12.106  0.00  0.00    -0.370 N 
HETATM   10  H           1     -23.336  -1.393 -12.525  0.00  0.00     0.159 HD
HETATM   11  H           1     -22.207  -2.425 -11.668  0.00  0.00     0.159 HD
ENDBRANCH   6   7
ENDBRANCH   5   6
BRANCH   5  12
HETATM   12  N           1     -25.322  -3.698  -9.920  0.00  0.00    -0.066 N 
HETATM   13  H           1     -25.383  -3.098 -10.773  0.00  0.00     0.275 HD
HETATM   14  H           1     -25.153  -3.096  -9.082  0.00  0.00     0.275 HD
HETATM   15  H           1     -26.217  -4.222  -9.798  0.00  0.00     0.275 HD
ENDBRANCH   5  12
ENDBRANCH   2   5
BRANCH   1  16
HETATM   16  C           1     -21.179  -4.889  -7.712  0.00  0.00     0.186 C 
BRANCH  16  17
HETATM   17  C           1     -20.924  -6.031  -6.735  0.00  0.00     0.046 C 
BRANCH  17  18
HETATM   18  C           1     -20.945  -5.493  -5.310  0.00  0.00     0.116 C 
BRANCH  18  19
HETATM   19  C           1     -21.764  -6.411  -4.437  0.00  0.00     0.172 C 
HETATM   20  O           1     -22.098  -7.540  -4.859  0.00  0.00    -0.648 OA
HETATM   21  O           1     -22.109  -6.044  -3.293  0.00  0.00    -0.648 OA
ENDBRANCH  18  19
ENDBRANCH  17  18
ENDBRANCH  16  17
BRANCH  16  22
HETATM   22  C           1     -19.927  -4.620  -8.510  0.00  0.00     0.196 C 
HETATM   23  O           1     -18.908  -4.172  -7.942  0.00  0.00    -0.646 OA
HETATM   24  O           1     -19.910  -4.844  -9.740  0.00  0.00    -0.646 OA
ENDBRANCH  16  22
ENDBRANCH   1  16
TORSDOF 9
ENDMDL
MODEL 3
REMARK VINA RESULT:      -6.1      9.339     12.139
REMARK  9 active torsions:
REMARK  status: ('A' for Active; 'I' for Inactive)
REMARK    1  A    between atoms: C_2  and  C_7 
REMARK    2  A    between atoms: C_2  and  C_3 
REMARK    3  A    between atoms: C_2  and  N_23 
REMARK    4  A    between atoms: C_3  and  C_4 
REMARK       I    between atoms: C_4  and  N_8 
REMARK    5  A    between atoms: N_6  and  C_9 
REMARK       I    between atoms: N_6  and  C_7 
REMARK    6  A    between atoms: C_9  and  C_10 
REMARK    7  A    between atoms: C_9  and  C_15 
REMARK    8  A    between atoms: C_10  and  C_11 
REMARK    9  A    between atoms: C_11  and  C_13 
ROOT
HETATM    1  N           1     -27.688  -7.091 -18.849  0.00  0.00    -0.345 N 
HETATM    2  C           1     -28.730  -6.236 -18.613  0.00  0.00     0.249 C 
HETATM    3  H           1     -27.754  -8.060 -18.562  0.00  0.00     0.163 HD
HETATM    4  O           1     -28.653  -5.081 -18.956  0.00  0.00    -0.271 OA
ENDROOT
BRANCH   2   5
HETATM    5  C           1     -29.977  -6.737 -17.924  0.00  0.00     0.283 C 
BRANCH   5   6
HETATM    6  C           1     -30.243  -5.895 -16.683  0.00  0.00     0.145 C 
BRANCH   6   7
HETATM    7  C           1     -31.483  -5.062 -16.896  0.00  0.00     0.217 C 
HETATM    8  O           1     -31.388  -3.869 -17.059  0.00  0.00    -0.274 OA
HETATM    9  N           1     -32.715  -5.657 -16.902  0.00  0.00    -0.370 N 
HETATM   10  H           1     -33.547  -5.099 -17.044  0.00  0.00     0.159 HD
HETATM   11  H           1     -32.795  -6.658 -16.764  0.00  0.00     0.159 HD
ENDBRANCH   6   7
ENDBRANCH   5   6
BRANCH   5  12
HETATM   12  N           1     -29.785  -8.170 -17.525  0.00  0.00    -0.066 N 
HETATM   13  H           1     -29.474  -8.723 -18.355  0.00  0.00     0.275 HD
HETATM   14  H           1     -30.688  -8.555 -17.168  0.00  0.00     0.275 HD
HETATM   15  H           1     -29.060  -8.228 -16.775  0.00  0.00     0.275 HD
ENDBRANCH   5  12
ENDBRANCH   2   5
BRANCH   1  16
HETATM   16  C           1     -26.491  -6.611 -19.511  0.00  0.00     0.186 C 
BRANCH  16  17
HETATM   17  C           1     -25.312  -6.694 -18.550  0.00  0.00     0.046 C 
BRANCH  17  18
HETATM   18  C           1     -25.772  -6.317 -17.147  0.00  0.00     0.116 C 
BRANCH  18  19
HETATM   19  C           1     -25.053  -7.172 -16.134  0.00  0.00     0.172 C 
HETATM   20  O           1     -25.270  -7.010 -14.913  0.00  0.00    -0.648 OA
HETATM   21  O           1     -24.240  -8.043 -16.514  0.00  0.00    -0.648 OA
ENDBRANCH  18  19
ENDBRANCH  17  18
ENDBRANCH  16  17
BRANCH  16  22
HETATM   22  C           1     -26.212  -7.462 -20.725  0.00  0.00     0.196 C 
HETATM   23  O           1     -27.089  -8.243 -21.156  0.00  0.00    -0.646 OA
HETATM   24  O           1     -25.104  -7.388 -21.299  0.00  0.00    -0.646 OA
ENDBRANCH  16  22
ENDBRANCH   1  16
TORSDOF 9
ENDMDL
MODEL 4
REMARK VINA RESULT:      -5.8      2.588      7.882
REMARK  9 active torsions:
REMARK  status: ('A' for Active; 'I' for Inactive)
REMARK    1  A    between atoms: C_2  and  C_7 
REMARK    2  A    between atoms: C_2  and  C_3 
REMARK    3  A    between atoms: C_2  and  N_23 
REMARK    4  A    between atoms: C_3  and  C_4 
REMARK       I    between atoms: C_4  and  N_8 
REMARK    5  A    between atoms: N_6  and  C_9 
REMARK       I    between atoms: N_6  and  C_7 
REMARK    6  A    between atoms: C_9  and  C_10 
REMARK    7  A    between atoms: C_9  and  C_15 
REMARK    8  A    between atoms: C_10  and  C_11 
REMARK    9  A    between atoms: C_11  and  C_13 
ROOT
HETATM    1  N           1     -21.372  -5.846  -5.781  0.00  0.00    -0.345 N 
HETATM    2  C           1     -20.622  -4.780  -6.198  0.00  0.00     0.249 C 
HETATM    3  H           1     -22.184  -6.132  -6.314  0.00  0.00     0.163 HD
HETATM    4  O           1     -19.653  -4.438  -5.563  0.00  0.00    -0.271 OA
ENDROOT
BRANCH   2   5
HETATM    5  C           1     -21.005  -4.031  -7.452  0.00  0.00     0.283 C 
BRANCH   5   6
HETATM    6  C           1     -22.082  -4.808  -8.197  0.00  0.00     0.145 C 
BRANCH   6   7
HETATM    7  C           1     -22.872  -3.864  -9.069  0.00  0.00     0.217 C 
HETATM    8  O           1     -22.366  -3.385 -10.055  0.00  0.00    -0.274 OA
HETATM    9  N           1     -24.163  -3.549  -8.742  0.00  0.00    -0.370 N 
HETATM   10  H           1     -24.694  -2.916  -9.326  0.00  0.00     0.159 HD
HETATM   11  H           1     -24.588  -3.950  -7.914  0.00  0.00     0.159 HD
ENDBRANCH   6   7
ENDBRANCH   5   6
BRANCH   5  12
HETATM   12  N           1     -19.799  -3.879  -8.330  0.00  0.00    -0.066 N 
HETATM   13  H           1     -19.919  -3.043  -8.944  0.00  0.00     0.275 HD
HETATM   14  H           1     -19.690  -4.734  -8.922  0.00  0.00     0.275 HD
HETATM   15  H           1     -18.948  -3.756  -7.736  0.00  0.00     0.275 HD
ENDBRANCH   5  12
ENDBRANCH   2   5
BRANCH   1  16
HETATM   16  C           1     -21.004  -6.565  -4.577  0.00  0.00     0.186 C 
BRANCH  16  17
HETATM   17  C           1     -22.215  -6.669  -3.658  0.00  0.00     0.046 C 
BRANCH  17  18
HETATM   18  C           1     -21.860  -6.112  -2.285  0.00  0.00     0.116 C 
BRANCH  18  19
HETATM   19  C           1     -22.011  -7.197  -1.248  0.00  0.00     0.172 C 
HETATM   20  O           1     -22.912  -7.114  -0.385  0.00  0.00    -0.648 OA
HETATM   21  O           1     -21.237  -8.178  -1.250  0.00  0.00    -0.648 OA
ENDBRANCH  18  19
ENDBRANCH  17  18
ENDBRANCH  16  17
BRANCH  16  22
HETATM   22  C           1     -20.531  -7.949  -4.944  0.00  0.00     0.196 C 
HETATM   23  O           1     -19.612  -8.490  -4.292  0.00  0.00    -0.646 OA
HETATM   24  O           1     -21.057  -8.556  -5.903  0.00  0.00    -0.646 OA
ENDBRANCH  16  22
ENDBRANCH   1  16
TORSDOF 9
ENDMDL
MODEL 5
REMARK VINA RESULT:      -5.8      2.611      7.931
REMARK  9 active torsions:
REMARK  status: ('A' for Active; 'I' for Inactive)
REMARK    1  A    between atoms: C_2  and  C_7 
REMARK    2  A    between atoms: C_2  and  C_3 
REMARK    3  A    between atoms: C_2  and  N_23 
REMARK    4  A    between atoms: C_3  and  C_4 
REMARK       I    between atoms: C_4  and  N_8 
REMARK    5  A    between atoms: N_6  and  C_9 
REMARK       I    between atoms: N_6  and  C_7 
REMARK    6  A    between atoms: C_9  and  C_10 
REMARK    7  A    between atoms: C_9  and  C_15 
REMARK    8  A    between atoms: C_10  and  C_11 
REMARK    9  A    between atoms: C_11  and  C_13 
ROOT
HETATM    1  N           1     -21.490  -6.258  -6.323  0.00  0.00    -0.345 N 
HETATM    2  C           1     -21.007  -5.150  -6.966  0.00  0.00     0.249 C 
HETATM    3  H           1     -22.244  -6.794  -6.735  0.00  0.00     0.163 HD
HETATM    4  O           1     -20.108  -4.511  -6.476  0.00  0.00    -0.271 OA
ENDROOT
BRANCH   2   5
HETATM    5  C           1     -21.600  -4.727  -8.289  0.00  0.00     0.283 C 
BRANCH   5   6
HETATM    6  C           1     -20.489  -4.243  -9.211  0.00  0.00     0.145 C 
BRANCH   6   7
HETATM    7  C           1     -21.020  -4.115 -10.617  0.00  0.00     0.217 C 
HETATM    8  O           1     -22.094  -4.589 -10.902  0.00  0.00    -0.274 OA
HETATM    9  N           1     -20.286  -3.462 -11.570  0.00  0.00    -0.370 N 
HETATM   10  H           1     -20.642  -3.376 -12.513  0.00  0.00     0.159 HD
HETATM   11  H           1     -19.385  -3.065 -11.331  0.00  0.00     0.159 HD
ENDBRANCH   6   7
ENDBRANCH   5   6
BRANCH   5  12
HETATM   12  N           1     -22.581  -3.615  -8.063  0.00  0.00    -0.066 N 
HETATM   13  H           1     -22.704  -3.074  -8.948  0.00  0.00     0.275 HD
HETATM   14  H           1     -22.223  -2.982  -7.313  0.00  0.00     0.275 HD
HETATM   15  H           1     -23.501  -4.017  -7.770  0.00  0.00     0.275 HD
ENDBRANCH   5  12
ENDBRANCH   2   5
BRANCH   1  16
HETATM   16  C           1     -20.921  -6.665  -5.053  0.00  0.00     0.186 C 
BRANCH  16  17
HETATM   17  C           1     -22.020  -6.721  -4.000  0.00  0.00     0.046 C 
BRANCH  17  18
HETATM   18  C           1     -21.512  -6.102  -2.703  0.00  0.00     0.116 C 
BRANCH  18  19
HETATM   19  C           1     -21.782  -7.043  -1.556  0.00  0.00     0.172 C 
HETATM   20  O           1     -22.740  -6.826  -0.782  0.00  0.00    -0.648 OA
HETATM   21  O           1     -21.050  -8.041  -1.380  0.00  0.00    -0.648 OA
ENDBRANCH  18  19
ENDBRANCH  17  18
ENDBRANCH  16  17
BRANCH  16  22
HETATM   22  C           1     -20.293  -8.029  -5.199  0.00  0.00     0.196 C 
HETATM   23  O           1     -20.746  -8.998  -4.552  0.00  0.00    -0.646 OA
HETATM   24  O           1     -19.319  -8.190  -5.966  0.00  0.00    -0.646 OA
ENDBRANCH  16  22
ENDBRANCH   1  16
TORSDOF 9
ENDMDL
MODEL 6
REMARK VINA RESULT:      -5.7      2.026      6.997
REMARK  9 active torsions:
REMARK  status: ('A' for Active; 'I' for Inactive)
REMARK    1  A    between atoms: C_2  and  C_7 
REMARK    2  A    between atoms: C_2  and  C_3 
REMARK    3  A    between atoms: C_2  and  N_23 
REMARK    4  A    between atoms: C_3  and  C_4 
REMARK       I    between atoms: C_4  and  N_8 
REMARK    5  A    between atoms: N_6  and  C_9 
REMARK       I    between atoms: N_6  and  C_7 
REMARK    6  A    between atoms: C_9  and  C_10 
REMARK    7  A    between atoms: C_9  and  C_15 
REMARK    8  A    between atoms: C_10  and  C_11 
REMARK    9  A    between atoms: C_11  and  C_13 
ROOT
HETATM    1  N           1     -21.375  -5.159  -8.013  0.00  0.00    -0.345 N 
HETATM    2  C           1     -21.881  -4.025  -8.589  0.00  0.00     0.249 C 
HETATM    3  H           1     -21.111  -5.946  -8.592  0.00  0.00     0.163 HD
HETATM    4  O           1     -22.196  -3.086  -7.899  0.00  0.00    -0.271 OA
ENDROOT
BRANCH   2   5
HETATM    5  C           1     -22.046  -3.949 -10.088  0.00  0.00     0.283 C 
BRANCH   5   6
HETATM    6  C           1     -23.352  -4.621 -10.489  0.00  0.00     0.145 C 
BRANCH   6   7
HETATM    7  C           1     -24.471  -3.610 -10.451  0.00  0.00     0.217 C 
HETATM    8  O           1     -24.893  -3.136 -11.479  0.00  0.00    -0.274 OA
HETATM    9  N           1     -25.009  -3.228  -9.251  0.00  0.00    -0.370 N 
HETATM   10  H           1     -25.759  -2.550  -9.225  0.00  0.00     0.159 HD
HETATM   11  H           1     -24.655  -3.625  -8.389  0.00  0.00     0.159 HD
ENDBRANCH   6   7
ENDBRANCH   5   6
BRANCH   5  12
HETATM   12  N           1     -20.898  -4.650 -10.752  0.00  0.00    -0.066 N 
HETATM   13  H           1     -20.789  -4.291 -11.727  0.00  0.00     0.275 HD
HETATM   14  H           1     -21.086  -5.678 -10.778  0.00  0.00     0.275 HD
HETATM   15  H           1     -20.021  -4.469 -10.214  0.00  0.00     0.275 HD
ENDBRANCH   5  12
ENDBRANCH   2   5
BRANCH   1  16
HETATM   16  C           1     -21.216  -5.232  -6.574  0.00  0.00     0.186 C 
BRANCH  16  17
HETATM   17  C           1     -21.405  -6.673  -6.116  0.00  0.00     0.046 C 
BRANCH  17  18
HETATM   18  C           1     -22.471  -6.724  -5.028  0.00  0.00     0.116 C 
BRANCH  18  19
HETATM   19  C           1     -21.809  -6.696  -3.673  0.00  0.00     0.172 C 
HETATM   20  O           1     -20.763  -7.353  -3.475  0.00  0.00    -0.648 OA
HETATM   21  O           1     -22.305  -6.018  -2.748  0.00  0.00    -0.648 OA
ENDBRANCH  18  19
ENDBRANCH  17  18
ENDBRANCH  16  17
BRANCH  16  22
HETATM   22  C           1     -19.834  -4.761  -6.197  0.00  0.00     0.196 C 
HETATM   23  O           1     -19.593  -4.402  -5.023  0.00  0.00    -0.646 OA
HETATM   24  O           1     -18.928  -4.729  -7.058  0.00  0.00    -0.646 OA
ENDBRANCH  16  22
ENDBRANCH   1  16
TORSDOF 9
ENDMDL
MODEL 7
REMARK VINA RESULT:      -5.5      8.680     11.610
REMARK  9 active torsions:
REMARK  status: ('A' for Active; 'I' for Inactive)
REMARK    1  A    between atoms: C_2  and  C_7 
REMARK    2  A    between atoms: C_2  and  C_3 
REMARK    3  A    between atoms: C_2  and  N_23 
REMARK    4  A    between atoms: C_3  and  C_4 
REMARK       I    between atoms: C_4  and  N_8 
REMARK    5  A    between atoms: N_6  and  C_9 
REMARK       I    between atoms: N_6  and  C_7 
REMARK    6  A    between atoms: C_9  and  C_10 
REMARK    7  A    between atoms: C_9  and  C_15 
REMARK    8  A    between atoms: C_10  and  C_11 
REMARK    9  A    between atoms: C_11  and  C_13 
ROOT
HETATM    1  N           1     -26.949  -6.948 -18.866  0.00  0.00    -0.345 N 
HETATM    2  C           1     -27.774  -6.184 -18.086  0.00  0.00     0.249 C 
HETATM    3  H           1     -26.232  -7.520 -18.436  0.00  0.00     0.163 HD
HETATM    4  O           1     -28.629  -5.503 -18.598  0.00  0.00    -0.271 OA
ENDROOT
BRANCH   2   5
HETATM    5  C           1     -27.614  -6.193 -16.585  0.00  0.00     0.283 C 
BRANCH   5   6
HETATM    6  C           1     -26.690  -7.333 -16.180  0.00  0.00     0.145 C 
BRANCH   6   7
HETATM    7  C           1     -25.262  -6.847 -16.172  0.00  0.00     0.217 C 
HETATM    8  O           1     -25.006  -5.731 -15.786  0.00  0.00    -0.274 OA
HETATM    9  N           1     -24.256  -7.669 -16.603  0.00  0.00    -0.370 N 
HETATM   10  H           1     -23.299  -7.343 -16.599  0.00  0.00     0.159 HD
HETATM   11  H           1     -24.471  -8.604 -16.928  0.00  0.00     0.159 HD
ENDBRANCH   6   7
ENDBRANCH   5   6
BRANCH   5  12
HETATM   12  N           1     -28.956  -6.384 -15.942  0.00  0.00    -0.066 N 
HETATM   13  H           1     -29.150  -7.405 -15.838  0.00  0.00     0.275 HD
HETATM   14  H           1     -29.694  -5.948 -16.540  0.00  0.00     0.275 HD
HETATM   15  H           1     -28.958  -5.931 -15.000  0.00  0.00     0.275 HD
ENDBRANCH   5  12
ENDBRANCH   2   5
BRANCH   1  16
HETATM   16  C           1     -27.102  -6.941 -20.308  0.00  0.00     0.186 C 
BRANCH  16  17
HETATM   17  C           1     -25.749  -6.687 -20.960  0.00  0.00     0.046 C 
BRANCH  17  18
HETATM   18  C           1     -24.686  -7.531 -20.269  0.00  0.00     0.116 C 
BRANCH  18  19
HETATM   19  C           1     -23.749  -8.106 -21.303  0.00  0.00     0.172 C 
HETATM   20  O           1     -24.110  -8.187 -22.497  0.00  0.00    -0.648 OA
HETATM   21  O           1     -22.613  -8.503 -20.965  0.00  0.00    -0.648 OA
ENDBRANCH  18  19
ENDBRANCH  17  18
ENDBRANCH  16  17
BRANCH  16  22
HETATM   22  C           1     -27.638  -8.275 -20.763  0.00  0.00     0.196 C 
HETATM   23  O           1     -27.080  -8.887 -21.699  0.00  0.00    -0.646 OA
HETATM   24  O           1     -28.642  -8.768 -20.205  0.00  0.00    -0.646 OA
ENDBRANCH  16  22
ENDBRANCH   1  16
TORSDOF 9
ENDMDL
MODEL 8
REMARK VINA RESULT:      -5.5      2.915      7.995
REMARK  9 active torsions:
REMARK  status: ('A' for Active; 'I' for Inactive)
REMARK    1  A    between atoms: C_2  and  C_7 
REMARK    2  A    between atoms: C_2  and  C_3 
REMARK    3  A    between atoms: C_2  and  N_23 
REMARK    4  A    between atoms: C_3  and  C_4 
REMARK       I    between atoms: C_4  and  N_8 
REMARK    5  A    between atoms: N_6  and  C_9 
REMARK       I    between atoms: N_6  and  C_7 
REMARK    6  A    between atoms: C_9  and  C_10 
REMARK    7  A    between atoms: C_9  and  C_15 
REMARK    8  A    between atoms: C_10  and  C_11 
REMARK    9  A    between atoms: C_11  and  C_13 
ROOT
HETATM    1  N           1     -21.089  -7.129  -5.923  0.00  0.00    -0.345 N 
HETATM    2  C           1     -20.897  -5.810  -6.236  0.00  0.00     0.249 C 
HETATM    3  H           1     -21.640  -7.719  -6.534  0.00  0.00     0.163 HD
HETATM    4  O           1     -20.240  -5.106  -5.508  0.00  0.00    -0.271 OA
ENDROOT
BRANCH   2   5
HETATM    5  C           1     -21.508  -5.235  -7.491  0.00  0.00     0.283 C 
BRANCH   5   6
HETATM    6  C           1     -20.460  -4.422  -8.239  0.00  0.00     0.145 C 
BRANCH   6   7
HETATM    7  C           1     -20.935  -4.160  -9.647  0.00  0.00     0.217 C 
HETATM    8  O           1     -21.980  -3.585  -9.835  0.00  0.00    -0.274 OA
HETATM    9  N           1     -20.182  -4.575 -10.712  0.00  0.00    -0.370 N 
HETATM   10  H           1     -20.500  -4.400 -11.656  0.00  0.00     0.159 HD
HETATM   11  H           1     -19.305  -5.059 -10.554  0.00  0.00     0.159 HD
ENDBRANCH   6   7
ENDBRANCH   5   6
BRANCH   5  12
HETATM   12  N           1     -22.661  -4.349  -7.125  0.00  0.00    -0.066 N 
HETATM   13  H           1     -22.706  -3.544  -7.788  0.00  0.00     0.275 HD
HETATM   14  H           1     -22.530  -3.992  -6.151  0.00  0.00     0.275 HD
HETATM   15  H           1     -23.551  -4.895  -7.179  0.00  0.00     0.275 HD
ENDBRANCH   5  12
ENDBRANCH   2   5
BRANCH   1  16
HETATM   16  C           1     -20.502  -7.681  -4.718  0.00  0.00     0.186 C 
BRANCH  16  17
HETATM   17  C           1     -21.610  -8.078  -3.750  0.00  0.00     0.046 C 
BRANCH  17  18
HETATM   18  C           1     -21.179  -7.754  -2.325  0.00  0.00     0.116 C 
BRANCH  18  19
HETATM   19  C           1     -22.115  -6.728  -1.737  0.00  0.00     0.172 C 
HETATM   20  O           1     -22.698  -6.960  -0.655  0.00  0.00    -0.648 OA
HETATM   21  O           1     -22.309  -5.645  -2.331  0.00  0.00    -0.648 OA
ENDBRANCH  18  19
ENDBRANCH  17  18
ENDBRANCH  16  17
BRANCH  16  22
HETATM   22  C           1     -19.682  -8.897  -5.070  0.00  0.00     0.196 C 
HETATM   23  O           1     -18.490  -8.976  -4.702  0.00  0.00    -0.646 OA
HETATM   24  O           1     -20.194  -9.825  -5.733  0.00  0.00    -0.646 OA
ENDBRANCH  16  22
ENDBRANCH   1  16
TORSDOF 9
ENDMDL
MODEL 9
REMARK VINA RESULT:      -5.2      2.322      4.012
REMARK  9 active torsions:
REMARK  status: ('A' for Active; 'I' for Inactive)
REMARK    1  A    between atoms: C_2  and  C_7 
REMARK    2  A    between atoms: C_2  and  C_3 
REMARK    3  A    between atoms: C_2  and  N_23 
REMARK    4  A    between atoms: C_3  and  C_4 
REMARK       I    between atoms: C_4  and  N_8 
REMARK    5  A    between atoms: N_6  and  C_9 
REMARK       I    between atoms: N_6  and  C_7 
REMARK    6  A    between atoms: C_9  and  C_10 
REMARK    7  A    between atoms: C_9  and  C_15 
REMARK    8  A    between atoms: C_10  and  C_11 
REMARK    9  A    between atoms: C_11  and  C_13 
ROOT
HETATM    1  N           1     -21.332  -5.345  -6.214  0.00  0.00    -0.345 N 
HETATM    2  C           1     -21.211  -6.621  -5.733  0.00  0.00     0.249 C 
HETATM    3  H           1     -21.328  -4.560  -5.573  0.00  0.00     0.163 HD
HETATM    4  O           1     -21.214  -7.556  -6.496  0.00  0.00    -0.271 OA
ENDROOT
BRANCH   2   5
HETATM    5  C           1     -21.075  -6.859  -4.248  0.00  0.00     0.283 C 
BRANCH   5   6
HETATM    6  C           1     -21.165  -8.352  -3.964  0.00  0.00     0.145 C 
BRANCH   6   7
HETATM    7  C           1     -20.199  -8.714  -2.862  0.00  0.00     0.217 C 
HETATM    8  O           1     -19.069  -9.042  -3.133  0.00  0.00    -0.274 OA
HETATM    9  N           1     -20.604  -8.671  -1.555  0.00  0.00    -0.370 N 
HETATM   10  H           1     -19.957  -8.914  -0.817  0.00  0.00     0.159 HD
HETATM   11  H           1     -21.552  -8.397  -1.327  0.00  0.00     0.159 HD
ENDBRANCH   6   7
ENDBRANCH   5   6
BRANCH   5  12
HETATM   12  N           1     -22.178  -6.144  -3.525  0.00  0.00    -0.066 N 
HETATM   13  H           1     -21.914  -6.022  -2.522  0.00  0.00     0.275 HD
HETATM   14  H           1     -23.057  -6.706  -3.589  0.00  0.00     0.275 HD
HETATM   15  H           1     -22.331  -5.207  -3.962  0.00  0.00     0.275 HD
ENDBRANCH   5  12
ENDBRANCH   2   5
BRANCH   1  16
HETATM   16  C           1     -21.462  -5.116  -7.639  0.00  0.00     0.186 C 
BRANCH  16  17
HETATM   17  C           1     -22.446  -3.978  -7.882  0.00  0.00     0.046 C 
BRANCH  17  18
HETATM   18  C           1     -22.725  -3.858  -9.375  0.00  0.00     0.116 C 
BRANCH  18  19
HETATM   19  C           1     -24.215  -3.880  -9.612  0.00  0.00     0.172 C 
HETATM   20  O           1     -24.784  -4.952  -9.913  0.00  0.00    -0.648 OA
HETATM   21  O           1     -24.881  -2.827  -9.507  0.00  0.00    -0.648 OA
ENDBRANCH  18  19
ENDBRANCH  17  18
ENDBRANCH  16  17
BRANCH  16  22
HETATM   22  C           1     -20.117  -4.750  -8.214  0.00  0.00     0.196 C 
HETATM   23  O           1     -19.859  -5.000  -9.412  0.00  0.00    -0.646 OA
HETATM   24  O           1     -19.258  -4.198  -7.493  0.00  0.00    -0.646 OA
ENDBRANCH  16  22
ENDBRANCH   1  16
TORSDOF 9
ENDMDL
