MODEL 1
REMARK VINA RESULT:      -6.9      0.000      0.000
REMARK  10 active torsions:
REMARK  status: ('A' for Active; 'I' for Inactive)
REMARK    1  A    between atoms: C_4  and  C_7 
REMARK    2  A    between atoms: C_4  and  C_14 
REMARK       I    between atoms: C_6  and  N_13 
REMARK    3  A    between atoms: C_6  and  C_7 
REMARK    4  A    between atoms: C_7  and  N_20 
REMARK    5  A    between atoms: C_9  and  C_16 
REMARK    6  A    between atoms: O_12  and  P_17 
REMARK    7  A    between atoms: N_13  and  C_16 
REMARK    8  A    between atoms: C_16  and  C_18 
REMARK    9  A    between atoms: P_17  and  O_19 
REMARK   10  A    between atoms: C_18  and  O_19 
ROOT
HETATM    1  C           1     -21.496  -4.438  -8.231  0.00  0.00     0.249 C 
HETATM    2  N           1     -21.883  -4.638  -9.529  0.00  0.00    -0.343 N 
HETATM    3  H           1     -21.644  -5.501 -10.001  0.00  0.00     0.163 HD
HETATM    4  O           1     -21.779  -3.407  -7.668  0.00  0.00    -0.271 OA
ENDROOT
BRANCH   2   5
HETATM    5  C           1     -22.632  -3.612 -10.228  0.00  0.00     0.210 C 
BRANCH   5   6
HETATM    6  C           1     -24.110  -3.842 -10.023  0.00  0.00     0.198 C 
HETATM    7  O           1     -24.860  -2.881  -9.748  0.00  0.00    -0.646 OA
HETATM    8  O           1     -24.584  -4.994 -10.129  0.00  0.00    -0.646 OA
ENDBRANCH   5   6
BRANCH   5   9
HETATM    9  C           1     -22.310  -3.674 -11.716  0.00  0.00     0.217 C 
BRANCH   9  10
HETATM   10  O           1     -22.761  -2.503 -12.341  0.00  0.00    -0.287 OA
BRANCH  10  11
HETATM   11  P           1     -23.589  -2.705 -13.712  0.00  0.00     0.406 P 
HETATM   12  O           1     -22.644  -2.829 -14.844  0.00  0.00    -0.624 OA
HETATM   13  O           1     -24.409  -3.933 -13.617  0.00  0.00    -0.624 OA
BRANCH  11  14
HETATM   14  O           1     -24.553  -1.432 -13.951  0.00  0.00    -0.300 OA
HETATM   15  H           1     -24.518  -1.269 -14.878  0.00  0.00     0.223 HD
ENDBRANCH  11  14
ENDBRANCH  10  11
ENDBRANCH   9  10
ENDBRANCH   5   9
ENDBRANCH   2   5
BRANCH   1  16
HETATM   16  C           1     -20.715  -5.505  -7.503  0.00  0.00     0.278 C 
BRANCH  16  17
HETATM   17  C           1     -21.440  -5.877  -6.218  0.00  0.00     0.021 C 
HETATM   18  C           1     -21.469  -7.394  -6.071  0.00  0.00     0.012 C 
BRANCH  17  19
HETATM   19  C           1     -20.710  -5.268  -5.028  0.00  0.00     0.002 C 
HETATM   20  C           1     -21.146  -5.970  -3.750  0.00  0.00     0.005 C 
ENDBRANCH  17  19
ENDBRANCH  16  17
BRANCH  16  21
HETATM   21  N           1     -19.348  -4.985  -7.174  0.00  0.00    -0.066 N 
HETATM   22  H           1     -18.725  -5.782  -6.910  0.00  0.00     0.275 HD
HETATM   23  H           1     -19.413  -4.316  -6.374  0.00  0.00     0.275 HD
HETATM   24  H           1     -18.951  -4.494  -8.007  0.00  0.00     0.275 HD
ENDBRANCH  16  21
ENDBRANCH   1  16
TORSDOF 10
ENDMDL
MODEL 2
REMARK VINA RESULT:      -6.5      9.454     11.608
REMARK  10 active torsions:
REMARK  status: ('A' for Active; 'I' for Inactive)
REMARK    1  A    between atoms: C_4  and  C_7 
REMARK    2  A    between atoms: C_4  and  C_14 
REMARK       I    between atoms: C_6  and  N_13 
REMARK    3  A    between atoms: C_6  and  C_7 
REMARK    4  A    between atoms: C_7  and  N_20 
REMARK    5  A    between atoms: C_9  and  C_16 
REMARK    6  A    between atoms: O_12  and  P_17 
REMARK    7  A    between atoms: N_13  and  C_16 
REMARK    8  A    between atoms: C_16  and  C_18 
REMARK    9  A    between atoms: P_17  and  O_19 
REMARK   10  A    between atoms: C_18  and  O_19 
ROOT
HETATM    1  C           1     -28.490  -6.381 -19.098  0.00  0.00     0.249 C 
HETATM    2  N           1     -27.498  -7.244 -19.478  0.00  0.00    -0.343 N 
HETATM    3  H           1     -27.669  -8.241 -19.481  0.00  0.00     0.163 HD
HETATM    4  O           1     -28.286  -5.190 -19.092  0.00  0.00    -0.271 OA
ENDROOT
BRANCH   2   5
HETATM    5  C           1     -26.202  -6.729 -19.873  0.00  0.00     0.210 C 
BRANCH   5   6
HETATM    6  C           1     -25.657  -7.559 -21.010  0.00  0.00     0.198 C 
HETATM    7  O           1     -26.283  -8.566 -21.405  0.00  0.00    -0.646 OA
HETATM    8  O           1     -24.579  -7.239 -21.557  0.00  0.00    -0.646 OA
ENDBRANCH   5   6
BRANCH   5   9
HETATM    9  C           1     -25.246  -6.798 -18.690  0.00  0.00     0.217 C 
BRANCH   9  10
HETATM   10  O           1     -25.888  -6.318 -17.540  0.00  0.00    -0.287 OA
BRANCH  10  11
HETATM   11  P           1     -25.300  -6.838 -16.130  0.00  0.00     0.406 P 
HETATM   12  O           1     -26.400  -7.402 -15.315  0.00  0.00    -0.624 OA
HETATM   13  O           1     -24.282  -7.884 -16.375  0.00  0.00    -0.624 OA
BRANCH  11  14
HETATM   14  O           1     -24.622  -5.603 -15.340  0.00  0.00    -0.300 OA
HETATM   15  H           1     -24.010  -6.000 -14.744  0.00  0.00     0.223 HD
ENDBRANCH  11  14
ENDBRANCH  10  11
ENDBRANCH   9  10
ENDBRANCH   5   9
ENDBRANCH   2   5
BRANCH   1  16
HETATM   16  C           1     -29.840  -6.916 -18.685  0.00  0.00     0.278 C 
BRANCH  16  17
HETATM   17  C           1     -30.299  -6.215 -17.415  0.00  0.00     0.021 C 
HETATM   18  C           1     -31.789  -6.460 -17.208  0.00  0.00     0.012 C 
BRANCH  17  19
HETATM   19  C           1     -29.526  -6.764 -16.224  0.00  0.00     0.002 C 
HETATM   20  C           1     -29.429  -5.696 -15.143  0.00  0.00     0.005 C 
ENDBRANCH  17  19
ENDBRANCH  16  17
BRANCH  16  21
HETATM   21  N           1     -29.736  -8.391 -18.433  0.00  0.00    -0.066 N 
HETATM   22  H           1     -28.929  -8.781 -18.971  0.00  0.00     0.275 HD
HETATM   23  H           1     -30.617  -8.860 -18.738  0.00  0.00     0.275 HD
HETATM   24  H           1     -29.587  -8.560 -17.412  0.00  0.00     0.275 HD
ENDBRANCH  16  21
ENDBRANCH   1  16
TORSDOF 10
ENDMDL
MODEL 3
REMARK VINA RESULT:      -6.2      3.043      4.856
REMARK  10 active torsions:
REMARK  status: ('A' for Active; 'I' for Inactive)
REMARK    1  A    between atoms: C_4  and  C_7 
REMARK    2  A    between atoms: C_4  and  C_14 
REMARK       I    between atoms: C_6  and  N_13 
REMARK    3  A    between atoms: C_6  and  C_7 
REMARK    4  A    between atoms: C_7  and  N_20 
REMARK    5  A    between atoms: C_9  and  C_16 
REMARK    6  A    between atoms: O_12  and  P_17 
REMARK    7  A    between atoms: N_13  and  C_16 
REMARK    8  A    between atoms: C_16  and  C_18 
REMARK    9  A    between atoms: P_17  and  O_19 
REMARK   10  A    between atoms: C_18  and  O_19 
ROOT
HETATM    1  C           1     -21.661  -6.535  -4.469  0.00  0.00     0.249 C 
HETATM    2  N           1     -21.282  -5.502  -5.283  0.00  0.00    -0.343 N 
HETATM    3  H           1     -20.793  -4.706  -4.894  0.00  0.00     0.163 HD
HETATM    4  O           1     -22.248  -7.485  -4.933  0.00  0.00    -0.271 OA
ENDROOT
BRANCH   2   5
HETATM    5  C           1     -21.585  -5.545  -6.700  0.00  0.00     0.210 C 
BRANCH   5   6
HETATM    6  C           1     -20.318  -5.807  -7.477  0.00  0.00     0.198 C 
HETATM    7  O           1     -20.024  -5.086  -8.455  0.00  0.00    -0.646 OA
HETATM    8  O           1     -19.562  -6.745  -7.142  0.00  0.00    -0.646 OA
ENDBRANCH   5   6
BRANCH   5   9
HETATM    9  C           1     -22.181  -4.212  -7.133  0.00  0.00     0.217 C 
BRANCH   9  10
HETATM   10  O           1     -23.423  -4.431  -7.745  0.00  0.00    -0.287 OA
BRANCH  10  11
HETATM   11  P           1     -23.536  -3.993  -9.295  0.00  0.00     0.406 P 
HETATM   12  O           1     -23.909  -5.170 -10.112  0.00  0.00    -0.624 OA
HETATM   13  O           1     -24.572  -2.945  -9.438  0.00  0.00    -0.624 OA
BRANCH  11  14
HETATM   14  O           1     -22.114  -3.416  -9.797  0.00  0.00    -0.300 OA
HETATM   15  H           1     -21.603  -3.310  -9.013  0.00  0.00     0.223 HD
ENDBRANCH  11  14
ENDBRANCH  10  11
ENDBRANCH   9  10
ENDBRANCH   5   9
ENDBRANCH   2   5
BRANCH   1  16
HETATM   16  C           1     -21.347  -6.490  -2.994  0.00  0.00     0.278 C 
BRANCH  16  17
HETATM   17  C           1     -21.280  -7.909  -2.445  0.00  0.00     0.021 C 
HETATM   18  C           1     -19.914  -8.509  -2.753  0.00  0.00     0.012 C 
BRANCH  17  19
HETATM   19  C           1     -21.492  -7.880  -0.937  0.00  0.00     0.002 C 
HETATM   20  C           1     -22.489  -8.960  -0.543  0.00  0.00     0.005 C 
ENDBRANCH  17  19
ENDBRANCH  16  17
BRANCH  16  21
HETATM   21  N           1     -22.421  -5.727  -2.278  0.00  0.00    -0.066 N 
HETATM   22  H           1     -23.090  -6.398  -1.835  0.00  0.00     0.275 HD
HETATM   23  H           1     -22.934  -5.125  -2.960  0.00  0.00     0.275 HD
HETATM   24  H           1     -21.989  -5.127  -1.539  0.00  0.00     0.275 HD
ENDBRANCH  16  21
ENDBRANCH   1  16
TORSDOF 10
ENDMDL
MODEL 4
REMARK VINA RESULT:      -5.9      2.884      4.771
REMARK  10 active torsions:
REMARK  status: ('A' for Active; 'I' for Inactive)
REMARK    1  A    between atoms: C_4  and  C_7 
REMARK    2  A    between atoms: C_4  and  C_14 
REMARK       I    between atoms: C_6  and  N_13 
REMARK    3  A    between atoms: C_6  and  C_7 
REMARK    4  A    between atoms: C_7  and  N_20 
REMARK    5  A    between atoms: C_9  and  C_16 
REMARK    6  A    between atoms: O_12  and  P_17 
REMARK    7  A    between atoms: N_13  and  C_16 
REMARK    8  A    between atoms: C_16  and  C_18 
REMARK    9  A    between atoms: P_17  and  O_19 
REMARK   10  A    between atoms: C_18  and  O_19 
ROOT
HETATM    1  C           1     -21.228  -7.393  -5.237  0.00  0.00     0.249 C 
HETATM    2  N           1     -21.656  -6.172  -5.685  0.00  0.00    -0.343 N 
HETATM    3  H           1     -22.364  -5.665  -5.170  0.00  0.00     0.163 HD
HETATM    4  O           1     -20.384  -8.001  -5.852  0.00  0.00    -0.271 OA
ENDROOT
BRANCH   2   5
HETATM    5  C           1     -21.096  -5.608  -6.897  0.00  0.00     0.210 C 
BRANCH   5   6
HETATM    6  C           1     -19.865  -4.804  -6.556  0.00  0.00     0.198 C 
HETATM    7  O           1     -19.669  -4.430  -5.379  0.00  0.00    -0.646 OA
HETATM    8  O           1     -19.041  -4.512  -7.450  0.00  0.00    -0.646 OA
ENDBRANCH   5   6
BRANCH   5   9
HETATM    9  C           1     -22.127  -4.703  -7.559  0.00  0.00     0.217 C 
BRANCH   9  10
HETATM   10  O           1     -22.118  -4.917  -8.944  0.00  0.00    -0.287 OA
BRANCH  10  11
HETATM   11  P           1     -23.314  -4.223  -9.776  0.00  0.00     0.406 P 
HETATM   12  O           1     -22.752  -3.203 -10.690  0.00  0.00    -0.624 OA
HETATM   13  O           1     -24.028  -5.252 -10.566  0.00  0.00    -0.624 OA
BRANCH  11  14
HETATM   14  O           1     -24.346  -3.521  -8.752  0.00  0.00    -0.300 OA
HETATM   15  H           1     -23.989  -2.663  -8.594  0.00  0.00     0.223 HD
ENDBRANCH  11  14
ENDBRANCH  10  11
ENDBRANCH   9  10
ENDBRANCH   5   9
ENDBRANCH   2   5
BRANCH   1  16
HETATM   16  C           1     -21.811  -7.981  -3.975  0.00  0.00     0.278 C 
BRANCH  16  17
HETATM   17  C           1     -21.152  -7.338  -2.763  0.00  0.00     0.021 C 
HETATM   18  C           1     -22.064  -6.253  -2.204  0.00  0.00     0.012 C 
BRANCH  17  19
HETATM   19  C           1     -20.911  -8.396  -1.694  0.00  0.00     0.002 C 
HETATM   20  C           1     -21.552  -7.954  -0.387  0.00  0.00     0.005 C 
ENDBRANCH  17  19
ENDBRANCH  16  17
BRANCH  16  21
HETATM   21  N           1     -21.563  -9.460  -3.953  0.00  0.00    -0.066 N 
HETATM   22  H           1     -21.746  -9.859  -4.902  0.00  0.00     0.275 HD
HETATM   23  H           1     -22.200  -9.910  -3.258  0.00  0.00     0.275 HD
HETATM   24  H           1     -20.569  -9.643  -3.684  0.00  0.00     0.275 HD
ENDBRANCH  16  21
ENDBRANCH   1  16
TORSDOF 10
ENDMDL
MODEL 5
REMARK VINA RESULT:      -5.6      5.153      7.971
REMARK  10 active torsions:
REMARK  status: ('A' for Active; 'I' for Inactive)
REMARK    1  A    between atoms: C_4  and  C_7 
REMARK    2  A    between atoms: C_4  and  C_14 
REMARK       I    between atoms: C_6  and  N_13 
REMARK    3  A    between atoms: C_6  and  C_7 
REMARK    4  A    between atoms: C_7  and  N_20 
REMARK    5  A    between atoms: C_9  and  C_16 
REMARK    6  A    between atoms: O_12  and  P_17 
REMARK    7  A    between atoms: N_13  and  C_16 
REMARK    8  A    between atoms: C_16  and  C_18 
REMARK    9  A    between atoms: P_17  and  O_19 
REMARK   10  A    between atoms: C_18  and  O_19 
ROOT
HETATM    1  C           1     -21.781  -5.434  -6.033  0.00  0.00     0.249 C 
HETATM    2  N           1     -21.100  -6.349  -5.276  0.00  0.00    -0.343 N 
HETATM    3  H           1     -20.091  -6.402  -5.334  0.00  0.00     0.163 HD
HETATM    4  O           1     -22.986  -5.371  -5.966  0.00  0.00    -0.271 OA
ENDROOT
BRANCH   2   5
HETATM    5  C           1     -21.824  -7.244  -4.396  0.00  0.00     0.210 C 
BRANCH   5   6
HETATM    6  C           1     -21.633  -6.804  -2.964  0.00  0.00     0.198 C 
HETATM    7  O           1     -20.745  -7.333  -2.261  0.00  0.00    -0.646 OA
HETATM    8  O           1     -22.363  -5.911  -2.482  0.00  0.00    -0.646 OA
ENDBRANCH   5   6
BRANCH   5   9
HETATM    9  C           1     -21.295  -8.662  -4.566  0.00  0.00     0.217 C 
BRANCH   9  10
HETATM   10  O           1     -20.284  -8.671  -5.537  0.00  0.00    -0.287 OA
BRANCH  10  11
HETATM   11  P           1     -18.983  -9.565  -5.197  0.00  0.00     0.406 P 
HETATM   12  O           1     -17.988  -9.419  -6.284  0.00  0.00    -0.624 OA
HETATM   13  O           1     -18.389  -9.107  -3.921  0.00  0.00    -0.624 OA
BRANCH  11  14
HETATM   14  O           1     -19.414 -11.115  -5.065  0.00  0.00    -0.300 OA
HETATM   15  H           1     -19.686 -11.217  -4.169  0.00  0.00     0.223 HD
ENDBRANCH  11  14
ENDBRANCH  10  11
ENDBRANCH   9  10
ENDBRANCH   5   9
ENDBRANCH   2   5
BRANCH   1  16
HETATM   16  C           1     -21.027  -4.502  -6.951  0.00  0.00     0.278 C 
BRANCH  16  17
HETATM   17  C           1     -21.390  -4.810  -8.397  0.00  0.00     0.021 C 
HETATM   18  C           1     -22.417  -3.798  -8.890  0.00  0.00     0.012 C 
BRANCH  17  19
HETATM   19  C           1     -20.140  -4.726  -9.263  0.00  0.00     0.002 C 
HETATM   20  C           1     -20.505  -4.164 -10.630  0.00  0.00     0.005 C 
ENDBRANCH  17  19
ENDBRANCH  16  17
BRANCH  16  21
HETATM   21  N           1     -19.553  -4.692  -6.753  0.00  0.00    -0.066 N 
HETATM   22  H           1     -19.291  -5.673  -7.002  0.00  0.00     0.275 HD
HETATM   23  H           1     -19.309  -4.510  -5.754  0.00  0.00     0.275 HD
HETATM   24  H           1     -19.031  -4.026  -7.367  0.00  0.00     0.275 HD
ENDBRANCH  16  21
ENDBRANCH   1  16
TORSDOF 10
ENDMDL
MODEL 6
REMARK VINA RESULT:      -5.6      4.054      7.471
REMARK  10 active torsions:
REMARK  status: ('A' for Active; 'I' for Inactive)
REMARK    1  A    between atoms: C_4  and  C_7 
REMARK    2  A    between atoms: C_4  and  C_14 
REMARK       I    between atoms: C_6  and  N_13 
REMARK    3  A    between atoms: C_6  and  C_7 
REMARK    4  A    between atoms: C_7  and  N_20 
REMARK    5  A    between atoms: C_9  and  C_16 
REMARK    6  A    between atoms: O_12  and  P_17 
REMARK    7  A    between atoms: N_13  and  C_16 
REMARK    8  A    between atoms: C_16  and  C_18 
REMARK    9  A    between atoms: P_17  and  O_19 
REMARK   10  A    between atoms: C_18  and  O_19 
ROOT
HETATM    1  C           1     -22.752  -4.628  -8.504  0.00  0.00     0.249 C 
HETATM    2  N           1     -21.651  -5.160  -7.889  0.00  0.00    -0.343 N 
HETATM    3  H           1     -20.934  -5.615  -8.440  0.00  0.00     0.163 HD
HETATM    4  O           1     -23.608  -4.086  -7.846  0.00  0.00    -0.271 OA
ENDROOT
BRANCH   2   5
HETATM    5  C           1     -21.513  -5.075  -6.448  0.00  0.00     0.210 C 
BRANCH   5   6
HETATM    6  C           1     -20.091  -4.705  -6.101  0.00  0.00     0.198 C 
HETATM    7  O           1     -19.781  -4.459  -4.915  0.00  0.00    -0.646 OA
HETATM    8  O           1     -19.224  -4.644  -6.999  0.00  0.00    -0.646 OA
ENDBRANCH   5   6
BRANCH   5   9
HETATM    9  C           1     -21.853  -6.422  -5.825  0.00  0.00     0.217 C 
BRANCH   9  10
HETATM   10  O           1     -20.947  -7.391  -6.278  0.00  0.00    -0.287 OA
BRANCH  10  11
HETATM   11  P           1     -20.416  -8.438  -5.171  0.00  0.00     0.406 P 
HETATM   12  O           1     -20.319  -7.760  -3.858  0.00  0.00    -0.624 OA
HETATM   13  O           1     -21.362  -9.573  -5.070  0.00  0.00    -0.624 OA
BRANCH  11  14
HETATM   14  O           1     -18.961  -8.988  -5.603  0.00  0.00    -0.300 OA
HETATM   15  H           1     -18.663  -9.497  -4.868  0.00  0.00     0.223 HD
ENDBRANCH  11  14
ENDBRANCH  10  11
ENDBRANCH   9  10
ENDBRANCH   5   9
ENDBRANCH   2   5
BRANCH   1  16
HETATM   16  C           1     -22.896  -4.717 -10.004  0.00  0.00     0.278 C 
BRANCH  16  17
HETATM   17  C           1     -22.262  -3.492 -10.649  0.00  0.00     0.021 C 
HETATM   18  C           1     -20.982  -3.901 -11.366  0.00  0.00     0.012 C 
BRANCH  17  19
HETATM   19  C           1     -23.234  -2.887 -11.653  0.00  0.00     0.002 C 
HETATM   20  C           1     -22.690  -3.073 -13.063  0.00  0.00     0.005 C 
ENDBRANCH  17  19
ENDBRANCH  16  17
BRANCH  16  21
HETATM   21  N           1     -24.351  -4.774 -10.362  0.00  0.00    -0.066 N 
HETATM   22  H           1     -24.501  -5.501 -11.097  0.00  0.00     0.275 HD
HETATM   23  H           1     -24.658  -3.844 -10.725  0.00  0.00     0.275 HD
HETATM   24  H           1     -24.910  -5.017  -9.512  0.00  0.00     0.275 HD
ENDBRANCH  16  21
ENDBRANCH   1  16
TORSDOF 10
ENDMDL
MODEL 7
REMARK VINA RESULT:      -5.5      9.019     11.573
REMARK  10 active torsions:
REMARK  status: ('A' for Active; 'I' for Inactive)
REMARK    1  A    between atoms: C_4  and  C_7 
REMARK    2  A    between atoms: C_4  and  C_14 
REMARK       I    between atoms: C_6  and  N_13 
REMARK    3  A    between atoms: C_6  and  C_7 
REMARK    4  A    between atoms: C_7  and  N_20 
REMARK    5  A    between atoms: C_9  and  C_16 
REMARK    6  A    between atoms: O_12  and  P_17 
REMARK    7  A    between atoms: N_13  and  C_16 
REMARK    8  A    between atoms: C_16  and  C_18 
REMARK    9  A    between atoms: P_17  and  O_19 
REMARK   10  A    between atoms: C_18  and  O_19 
ROOT
HETATM    1  C           1     -25.803  -6.473 -19.130  0.00  0.00     0.249 C 
HETATM    2  N           1     -25.861  -6.794 -17.800  0.00  0.00    -0.343 N 
HETATM    3  H           1     -25.097  -7.298 -17.368  0.00  0.00     0.163 HD
HETATM    4  O           1     -26.715  -5.873 -19.647  0.00  0.00    -0.271 OA
ENDROOT
BRANCH   2   5
HETATM    5  C           1     -27.017  -6.414 -17.012  0.00  0.00     0.210 C 
BRANCH   5   6
HETATM    6  C           1     -26.940  -7.072 -15.656  0.00  0.00     0.198 C 
HETATM    7  O           1     -27.987  -7.321 -15.021  0.00  0.00    -0.646 OA
HETATM    8  O           1     -25.827  -7.369 -15.168  0.00  0.00    -0.646 OA
ENDBRANCH   5   6
BRANCH   5   9
HETATM    9  C           1     -28.286  -6.864 -17.724  0.00  0.00     0.217 C 
BRANCH   9  10
HETATM   10  O           1     -29.110  -5.754 -17.959  0.00  0.00    -0.287 OA
BRANCH  10  11
HETATM   11  P           1     -30.470  -5.685 -17.092  0.00  0.00     0.406 P 
HETATM   12  O           1     -31.234  -4.474 -17.470  0.00  0.00    -0.624 OA
HETATM   13  O           1     -31.289  -6.888 -17.362  0.00  0.00    -0.624 OA
BRANCH  11  14
HETATM   14  O           1     -30.105  -5.624 -15.521  0.00  0.00    -0.300 OA
HETATM   15  H           1     -29.817  -4.739 -15.371  0.00  0.00     0.223 HD
ENDBRANCH  11  14
ENDBRANCH  10  11
ENDBRANCH   9  10
ENDBRANCH   5   9
ENDBRANCH   2   5
BRANCH   1  16
HETATM   16  C           1     -24.600  -6.869 -19.951  0.00  0.00     0.278 C 
BRANCH  16  17
HETATM   17  C           1     -24.982  -7.993 -20.904  0.00  0.00     0.021 C 
HETATM   18  C           1     -26.500  -8.061 -21.027  0.00  0.00     0.012 C 
BRANCH  17  19
HETATM   19  C           1     -24.375  -7.725 -22.274  0.00  0.00     0.002 C 
HETATM   20  C           1     -23.025  -8.420 -22.377  0.00  0.00     0.005 C 
ENDBRANCH  17  19
ENDBRANCH  16  17
BRANCH  16  21
HETATM   21  N           1     -23.506  -7.338 -19.038  0.00  0.00    -0.066 N 
HETATM   22  H           1     -23.857  -7.356 -18.054  0.00  0.00     0.275 HD
HETATM   23  H           1     -22.693  -6.687 -19.106  0.00  0.00     0.275 HD
HETATM   24  H           1     -23.207  -8.300 -19.319  0.00  0.00     0.275 HD
ENDBRANCH  16  21
ENDBRANCH   1  16
TORSDOF 10
ENDMDL
MODEL 8
REMARK VINA RESULT:      -5.5      6.956      9.005
REMARK  10 active torsions:
REMARK  status: ('A' for Active; 'I' for Inactive)
REMARK    1  A    between atoms: C_4  and  C_7 
REMARK    2  A    between atoms: C_4  and  C_14 
REMARK       I    between atoms: C_6  and  N_13 
REMARK    3  A    between atoms: C_6  and  C_7 
REMARK    4  A    between atoms: C_7  and  N_20 
REMARK    5  A    between atoms: C_9  and  C_16 
REMARK    6  A    between atoms: O_12  and  P_17 
REMARK    7  A    between atoms: N_13  and  C_16 
REMARK    8  A    between atoms: C_16  and  C_18 
REMARK    9  A    between atoms: P_17  and  O_19 
REMARK   10  A    between atoms: C_18  and  O_19 
ROOT
HETATM    1  C           1     -21.005  -9.471  -2.059  0.00  0.00     0.249 C 
HETATM    2  N           1     -21.702  -8.818  -3.041  0.00  0.00    -0.343 N 
HETATM    3  H           1     -22.661  -9.075  -3.234  0.00  0.00     0.163 HD
HETATM    4  O           1     -19.858  -9.167  -1.828  0.00  0.00    -0.271 OA
ENDROOT
BRANCH   2   5
HETATM    5  C           1     -21.064  -7.764  -3.804  0.00  0.00     0.210 C 
BRANCH   5   6
HETATM    6  C           1     -21.914  -6.518  -3.747  0.00  0.00     0.198 C 
HETATM    7  O           1     -22.350  -6.009  -4.803  0.00  0.00    -0.646 OA
HETATM    8  O           1     -22.183  -5.994  -2.644  0.00  0.00    -0.646 OA
ENDBRANCH   5   6
BRANCH   5   9
HETATM    9  C           1     -20.910  -8.208  -5.253  0.00  0.00     0.217 C 
BRANCH   9  10
HETATM   10  O           1     -19.550  -8.232  -5.593  0.00  0.00    -0.287 OA
BRANCH  10  11
HETATM   11  P           1     -18.768  -9.611  -5.293  0.00  0.00     0.406 P 
HETATM   12  O           1     -19.751 -10.692  -5.052  0.00  0.00    -0.624 OA
HETATM   13  O           1     -17.924  -9.964  -6.457  0.00  0.00    -0.624 OA
BRANCH  11  14
HETATM   14  O           1     -17.836  -9.429  -3.988  0.00  0.00    -0.300 OA
HETATM   15  H           1     -17.501  -8.550  -4.047  0.00  0.00     0.223 HD
ENDBRANCH  11  14
ENDBRANCH  10  11
ENDBRANCH   9  10
ENDBRANCH   5   9
ENDBRANCH   2   5
BRANCH   1  16
HETATM   16  C           1     -21.668 -10.569  -1.265  0.00  0.00     0.278 C 
BRANCH  16  17
HETATM   17  C           1     -22.945 -10.037  -0.629  0.00  0.00     0.021 C 
HETATM   18  C           1     -23.806 -11.205  -0.164  0.00  0.00     0.012 C 
BRANCH  17  19
HETATM   19  C           1     -22.590  -9.162   0.566  0.00  0.00     0.002 C 
HETATM   20  C           1     -23.085  -7.743   0.322  0.00  0.00     0.005 C 
ENDBRANCH  17  19
ENDBRANCH  16  17
BRANCH  16  21
HETATM   21  N           1     -20.734 -11.042  -0.191  0.00  0.00    -0.066 N 
HETATM   22  H           1     -21.133 -10.808   0.746  0.00  0.00     0.275 HD
HETATM   23  H           1     -19.809 -10.570  -0.302  0.00  0.00     0.275 HD
HETATM   24  H           1     -20.609 -12.077  -0.269  0.00  0.00     0.275 HD
ENDBRANCH  16  21
ENDBRANCH   1  16
TORSDOF 10
ENDMDL
MODEL 9
REMARK VINA RESULT:      -5.4      5.195      8.334
REMARK  10 active torsions:
REMARK  status: ('A' for Active; 'I' for Inactive)
REMARK    1  A    between atoms: C_4  and  C_7 
REMARK    2  A    between atoms: C_4  and  C_14 
REMARK       I    between atoms: C_6  and  N_13 
REMARK    3  A    between atoms: C_6  and  C_7 
REMARK    4  A    between atoms: C_7  and  N_20 
REMARK    5  A    between atoms: C_9  and  C_16 
REMARK    6  A    between atoms: O_12  and  P_17 
REMARK    7  A    between atoms: N_13  and  C_16 
REMARK    8  A    between atoms: C_16  and  C_18 
REMARK    9  A    between atoms: P_17  and  O_19 
REMARK   10  A    between atoms: C_18  and  O_19 
ROOT
HETATM    1  C           1     -21.573  -5.189  -7.061  0.00  0.00     0.249 C 
HETATM    2  N           1     -21.455  -6.506  -6.709  0.00  0.00    -0.343 N 
HETATM    3  H           1     -21.821  -7.227  -7.317  0.00  0.00     0.163 HD
HETATM    4  O           1     -21.138  -4.327  -6.335  0.00  0.00    -0.271 OA
ENDROOT
BRANCH   2   5
HETATM    5  C           1     -20.810  -6.868  -5.462  0.00  0.00     0.210 C 
BRANCH   5   6
HETATM    6  C           1     -20.210  -8.248  -5.589  0.00  0.00     0.198 C 
HETATM    7  O           1     -18.987  -8.380  -5.811  0.00  0.00    -0.646 OA
HETATM    8  O           1     -20.937  -9.258  -5.471  0.00  0.00    -0.646 OA
ENDBRANCH   5   6
BRANCH   5   9
HETATM    9  C           1     -21.837  -6.861  -4.338  0.00  0.00     0.217 C 
BRANCH   9  10
HETATM   10  O           1     -21.201  -6.564  -3.124  0.00  0.00    -0.287 OA
BRANCH  10  11
HETATM   11  P           1     -21.325  -7.682  -1.966  0.00  0.00     0.406 P 
HETATM   12  O           1     -19.989  -7.932  -1.378  0.00  0.00    -0.624 OA
HETATM   13  O           1     -22.246  -7.201  -0.912  0.00  0.00    -0.624 OA
BRANCH  11  14
HETATM   14  O           1     -21.900  -9.052  -2.599  0.00  0.00    -0.300 OA
HETATM   15  H           1     -21.336  -9.730  -2.268  0.00  0.00     0.223 HD
ENDBRANCH  11  14
ENDBRANCH  10  11
ENDBRANCH   9  10
ENDBRANCH   5   9
ENDBRANCH   2   5
BRANCH   1  16
HETATM   16  C           1     -22.246  -4.812  -8.359  0.00  0.00     0.278 C 
BRANCH  16  17
HETATM   17  C           1     -21.319  -3.919  -9.172  0.00  0.00     0.021 C 
HETATM   18  C           1     -20.064  -4.698  -9.547  0.00  0.00     0.012 C 
BRANCH  17  19
HETATM   19  C           1     -22.031  -3.468 -10.440  0.00  0.00     0.002 C 
HETATM   20  C           1     -21.306  -4.025 -11.657  0.00  0.00     0.005 C 
ENDBRANCH  17  19
ENDBRANCH  16  17
BRANCH  16  21
HETATM   21  N           1     -23.518  -4.074  -8.065  0.00  0.00    -0.066 N 
HETATM   22  H           1     -23.735  -3.424  -8.854  0.00  0.00     0.275 HD
HETATM   23  H           1     -23.407  -3.525  -7.183  0.00  0.00     0.275 HD
HETATM   24  H           1     -24.300  -4.759  -7.952  0.00  0.00     0.275 HD
ENDBRANCH  16  21
ENDBRANCH   1  16
TORSDOF 10
ENDMDL
