MODEL 1
REMARK VINA RESULT:      -5.5      0.000      0.000
REMARK  9 active torsions:
REMARK  status: ('A' for Active; 'I' for Inactive)
REMARK    1  A    between atoms: S_1  and  C_6 
REMARK    2  A    between atoms: N_5  and  C_9 
REMARK    3  A    between atoms: C_6  and  C_8 
REMARK    4  A    between atoms: C_8  and  C_9 
REMARK    5  A    between atoms: C_9  and  C_10 
REMARK       I    between atoms: C_10  and  N_18 
REMARK    6  A    between atoms: C_15  and  C_20 
REMARK    7  A    between atoms: S_17  and  C_19 
REMARK    8  A    between atoms: N_18  and  C_20 
REMARK    9  A    between atoms: C_19  and  C_20 
ROOT
HETATM    1  C           1     -34.304  -2.323 -12.239  0.00  0.00     0.249 C 
HETATM    2  O           1     -33.890  -1.865 -11.200  0.00  0.00    -0.271 OA
HETATM    3  H           1     -35.332  -1.907 -13.987  0.00  0.00     0.163 HD
HETATM    4  N           1     -34.986  -1.523 -13.116  0.00  0.00    -0.344 N 
ENDROOT
BRANCH   1   5
HETATM    5  C           1     -34.067  -3.776 -12.570  0.00  0.00     0.275 C 
BRANCH   5   6
HETATM    6  N           1     -33.895  -3.929 -14.052  0.00  0.00    -0.066 N 
HETATM    7  H           1     -32.893  -4.129 -14.269  0.00  0.00     0.275 HD
HETATM    8  H           1     -34.186  -3.046 -14.529  0.00  0.00     0.275 HD
HETATM    9  H           1     -34.489  -4.719 -14.392  0.00  0.00     0.275 HD
ENDBRANCH   5   6
BRANCH   5  10
HETATM   10  C           1     -32.808  -4.261 -11.862  0.00  0.00     0.053 C 
BRANCH  10  11
HETATM   11  C           1     -33.055  -5.647 -11.280  0.00  0.00     0.076 C 
BRANCH  11  12
HETATM   12  S           1     -34.719  -5.713 -10.560  0.00  0.00    -0.173 SA
HETATM   13  C           1     -34.685  -7.479 -10.143  0.00  0.00     0.089 C 
ENDBRANCH  11  12
ENDBRANCH  10  11
ENDBRANCH   5  10
ENDBRANCH   1   5
BRANCH   4  14
HETATM   14  C           1     -35.214  -0.127 -12.797  0.00  0.00     0.194 C 
BRANCH  14  15
HETATM   15  C           1     -36.450  -0.002 -11.941  0.00  0.00     0.197 C 
HETATM   16  O           1     -37.561  -0.352 -12.395  0.00  0.00    -0.646 OA
HETATM   17  O           1     -36.363   0.451 -10.779  0.00  0.00    -0.646 OA
ENDBRANCH  14  15
BRANCH  14  18
HETATM   18  C           1     -35.405   0.661 -14.086  0.00  0.00     0.106 C 
BRANCH  18  19
HETATM   19  S           1     -35.694  -0.487 -15.461  0.00  0.00    -0.180 SA
HETATM   20  H           1     -34.751   0.023 -16.272  0.00  0.00     0.101 HD
ENDBRANCH  18  19
ENDBRANCH  14  18
ENDBRANCH   4  14
TORSDOF 9
ENDMDL
MODEL 2
REMARK VINA RESULT:      -5.3     12.473     13.996
REMARK  9 active torsions:
REMARK  status: ('A' for Active; 'I' for Inactive)
REMARK    1  A    between atoms: S_1  and  C_6 
REMARK    2  A    between atoms: N_5  and  C_9 
REMARK    3  A    between atoms: C_6  and  C_8 
REMARK    4  A    between atoms: C_8  and  C_9 
REMARK    5  A    between atoms: C_9  and  C_10 
REMARK       I    between atoms: C_10  and  N_18 
REMARK    6  A    between atoms: C_15  and  C_20 
REMARK    7  A    between atoms: S_17  and  C_19 
REMARK    8  A    between atoms: N_18  and  C_20 
REMARK    9  A    between atoms: C_19  and  C_20 
ROOT
HETATM    1  C           1     -21.773  -4.679  -7.592  0.00  0.00     0.249 C 
HETATM    2  O           1     -21.812  -3.624  -7.004  0.00  0.00    -0.271 OA
HETATM    3  H           1     -22.223  -5.652  -9.362  0.00  0.00     0.163 HD
HETATM    4  N           1     -22.257  -4.769  -8.869  0.00  0.00    -0.344 N 
ENDROOT
BRANCH   1   5
HETATM    5  C           1     -21.189  -5.896  -6.918  0.00  0.00     0.275 C 
BRANCH   5   6
HETATM    6  N           1     -19.807  -6.144  -7.446  0.00  0.00    -0.066 N 
HETATM    7  H           1     -19.868  -6.664  -8.351  0.00  0.00     0.275 HD
HETATM    8  H           1     -19.266  -6.711  -6.754  0.00  0.00     0.275 HD
HETATM    9  H           1     -19.324  -5.231  -7.601  0.00  0.00     0.275 HD
ENDBRANCH   5   6
BRANCH   5  10
HETATM   10  C           1     -21.122  -5.663  -5.414  0.00  0.00     0.053 C 
BRANCH  10  11
HETATM   11  C           1     -22.090  -6.605  -4.711  0.00  0.00     0.076 C 
BRANCH  11  12
HETATM   12  S           1     -21.308  -7.268  -3.213  0.00  0.00    -0.173 SA
HETATM   13  C           1     -22.177  -6.189  -2.040  0.00  0.00     0.089 C 
ENDBRANCH  11  12
ENDBRANCH  10  11
ENDBRANCH   5  10
ENDBRANCH   1   5
BRANCH   4  14
HETATM   14  C           1     -22.818  -3.599  -9.516  0.00  0.00     0.194 C 
BRANCH  14  15
HETATM   15  C           1     -24.306  -3.782  -9.683  0.00  0.00     0.197 C 
HETATM   16  O           1     -25.078  -2.814  -9.508  0.00  0.00    -0.646 OA
HETATM   17  O           1     -24.767  -4.901  -9.997  0.00  0.00    -0.646 OA
ENDBRANCH  14  15
BRANCH  14  18
HETATM   18  C           1     -22.171  -3.418 -10.883  0.00  0.00     0.106 C 
BRANCH  18  19
HETATM   19  S           1     -20.568  -4.268 -10.912  0.00  0.00    -0.180 SA
HETATM   20  H           1     -19.827  -3.166 -11.117  0.00  0.00     0.101 HD
ENDBRANCH  18  19
ENDBRANCH  14  18
ENDBRANCH   4  14
TORSDOF 9
ENDMDL
MODEL 3
REMARK VINA RESULT:      -5.2      2.458      3.117
REMARK  9 active torsions:
REMARK  status: ('A' for Active; 'I' for Inactive)
REMARK    1  A    between atoms: S_1  and  C_6 
REMARK    2  A    between atoms: N_5  and  C_9 
REMARK    3  A    between atoms: C_6  and  C_8 
REMARK    4  A    between atoms: C_8  and  C_9 
REMARK    5  A    between atoms: C_9  and  C_10 
REMARK       I    between atoms: C_10  and  N_18 
REMARK    6  A    between atoms: C_15  and  C_20 
REMARK    7  A    between atoms: S_17  and  C_19 
REMARK    8  A    between atoms: N_18  and  C_20 
REMARK    9  A    between atoms: C_19  and  C_20 
ROOT
HETATM    1  C           1     -35.398  -1.643 -12.874  0.00  0.00     0.249 C 
HETATM    2  O           1     -36.538  -1.440 -12.529  0.00  0.00    -0.271 OA
HETATM    3  H           1     -34.007  -1.366 -14.381  0.00  0.00     0.163 HD
HETATM    4  N           1     -34.962  -1.197 -14.093  0.00  0.00    -0.344 N 
ENDROOT
BRANCH   1   5
HETATM    5  C           1     -34.455  -2.387 -11.960  0.00  0.00     0.275 C 
BRANCH   5   6
HETATM    6  N           1     -33.889  -1.437 -10.947  0.00  0.00    -0.066 N 
HETATM    7  H           1     -33.492  -0.602 -11.435  0.00  0.00     0.275 HD
HETATM    8  H           1     -33.135  -1.915 -10.405  0.00  0.00     0.275 HD
HETATM    9  H           1     -34.646  -1.132 -10.294  0.00  0.00     0.275 HD
ENDBRANCH   5   6
BRANCH   5  10
HETATM   10  C           1     -35.211  -3.499 -11.245  0.00  0.00     0.053 C 
BRANCH  10  11
HETATM   11  C           1     -34.936  -4.827 -11.940  0.00  0.00     0.076 C 
BRANCH  11  12
HETATM   12  S           1     -33.611  -5.705 -11.064  0.00  0.00    -0.173 SA
HETATM   13  C           1     -34.679  -6.940 -10.273  0.00  0.00     0.089 C 
ENDBRANCH  11  12
ENDBRANCH  10  11
ENDBRANCH   5  10
ENDBRANCH   1   5
BRANCH   4  14
HETATM   14  C           1     -35.869  -0.482 -14.970  0.00  0.00     0.194 C 
BRANCH  14  15
HETATM   15  C           1     -35.794  -1.070 -16.357  0.00  0.00     0.197 C 
HETATM   16  O           1     -36.679  -0.802 -17.198  0.00  0.00    -0.646 OA
HETATM   17  O           1     -34.847  -1.826 -16.665  0.00  0.00    -0.646 OA
ENDBRANCH  14  15
BRANCH  14  18
HETATM   18  C           1     -35.472   0.988 -15.018  0.00  0.00     0.106 C 
BRANCH  18  19
HETATM   19  S           1     -34.474   1.394 -13.558  0.00  0.00    -0.180 SA
HETATM   20  H           1     -35.376   2.215 -12.994  0.00  0.00     0.101 HD
ENDBRANCH  18  19
ENDBRANCH  14  18
ENDBRANCH   4  14
TORSDOF 9
ENDMDL
MODEL 4
REMARK VINA RESULT:      -5.1      2.272      2.496
REMARK  9 active torsions:
REMARK  status: ('A' for Active; 'I' for Inactive)
REMARK    1  A    between atoms: S_1  and  C_6 
REMARK    2  A    between atoms: N_5  and  C_9 
REMARK    3  A    between atoms: C_6  and  C_8 
REMARK    4  A    between atoms: C_8  and  C_9 
REMARK    5  A    between atoms: C_9  and  C_10 
REMARK       I    between atoms: C_10  and  N_18 
REMARK    6  A    between atoms: C_15  and  C_20 
REMARK    7  A    between atoms: S_17  and  C_19 
REMARK    8  A    between atoms: N_18  and  C_20 
REMARK    9  A    between atoms: C_19  and  C_20 
ROOT
HETATM    1  C           1     -34.878  -3.076 -11.985  0.00  0.00     0.249 C 
HETATM    2  O           1     -35.931  -3.190 -11.404  0.00  0.00    -0.271 OA
HETATM    3  H           1     -33.804  -1.942 -13.343  0.00  0.00     0.163 HD
HETATM    4  N           1     -34.686  -2.038 -12.857  0.00  0.00    -0.344 N 
ENDROOT
BRANCH   1   5
HETATM    5  C           1     -33.774  -4.078 -11.750  0.00  0.00     0.275 C 
BRANCH   5   6
HETATM    6  N           1     -32.488  -3.351 -11.489  0.00  0.00    -0.066 N 
HETATM    7  H           1     -31.805  -4.001 -11.040  0.00  0.00     0.275 HD
HETATM    8  H           1     -32.668  -2.541 -10.854  0.00  0.00     0.275 HD
HETATM    9  H           1     -32.095  -3.003 -12.393  0.00  0.00     0.275 HD
ENDBRANCH   5   6
BRANCH   5  10
HETATM   10  C           1     -34.120  -4.943 -10.545  0.00  0.00     0.053 C 
BRANCH  10  11
HETATM   11  C           1     -33.998  -6.413 -10.924  0.00  0.00     0.076 C 
BRANCH  11  12
HETATM   12  S           1     -34.926  -7.423  -9.736  0.00  0.00    -0.173 SA
HETATM   13  C           1     -33.856  -8.885  -9.838  0.00  0.00     0.089 C 
ENDBRANCH  11  12
ENDBRANCH  10  11
ENDBRANCH   5  10
ENDBRANCH   1   5
BRANCH   4  14
HETATM   14  C           1     -35.747  -1.076 -13.083  0.00  0.00     0.194 C 
BRANCH  14  15
HETATM   15  C           1     -35.650  -0.542 -14.491  0.00  0.00     0.197 C 
HETATM   16  O           1     -36.574  -0.757 -15.305  0.00  0.00    -0.646 OA
HETATM   17  O           1     -34.646   0.114 -14.843  0.00  0.00    -0.646 OA
ENDBRANCH  14  15
BRANCH  14  18
HETATM   18  C           1     -35.607   0.073 -12.093  0.00  0.00     0.106 C 
BRANCH  18  19
HETATM   19  S           1     -37.045   0.096 -10.985  0.00  0.00    -0.180 SA
HETATM   20  H           1     -36.386  -0.322  -9.890  0.00  0.00     0.101 HD
ENDBRANCH  18  19
ENDBRANCH  14  18
ENDBRANCH   4  14
TORSDOF 9
ENDMDL
MODEL 5
REMARK VINA RESULT:      -4.9     12.610     14.213
REMARK  9 active torsions:
REMARK  status: ('A' for Active; 'I' for Inactive)
REMARK    1  A    between atoms: S_1  and  C_6 
REMARK    2  A    between atoms: N_5  and  C_9 
REMARK    3  A    between atoms: C_6  and  C_8 
REMARK    4  A    between atoms: C_8  and  C_9 
REMARK    5  A    between atoms: C_9  and  C_10 
REMARK       I    between atoms: C_10  and  N_18 
REMARK    6  A    between atoms: C_15  and  C_20 
REMARK    7  A    between atoms: S_17  and  C_19 
REMARK    8  A    between atoms: N_18  and  C_20 
REMARK    9  A    between atoms: C_19  and  C_20 
ROOT
HETATM    1  C           1     -20.672  -4.292  -9.184  0.00  0.00     0.249 C 
HETATM    2  O           1     -19.929  -4.981  -9.842  0.00  0.00    -0.271 OA
HETATM    3  H           1     -22.520  -3.361  -9.129  0.00  0.00     0.163 HD
HETATM    4  N           1     -21.897  -3.937  -9.681  0.00  0.00    -0.344 N 
ENDROOT
BRANCH   1   5
HETATM    5  C           1     -20.249  -3.824  -7.813  0.00  0.00     0.275 C 
BRANCH   5   6
HETATM    6  N           1     -21.456  -3.371  -7.046  0.00  0.00    -0.066 N 
HETATM    7  H           1     -22.058  -4.195  -6.825  0.00  0.00     0.275 HD
HETATM    8  H           1     -21.998  -2.687  -7.622  0.00  0.00     0.275 HD
HETATM    9  H           1     -21.153  -2.912  -6.157  0.00  0.00     0.275 HD
ENDBRANCH   5   6
BRANCH   5  10
HETATM   10  C           1     -19.577  -4.969  -7.068  0.00  0.00     0.053 C 
BRANCH  10  11
HETATM   11  C           1     -20.191  -5.104  -5.681  0.00  0.00     0.076 C 
BRANCH  11  12
HETATM   12  S           1     -20.563  -6.850  -5.352  0.00  0.00    -0.173 SA
HETATM   13  C           1     -22.320  -6.610  -4.965  0.00  0.00     0.089 C 
ENDBRANCH  11  12
ENDBRANCH  10  11
ENDBRANCH   5  10
ENDBRANCH   1   5
BRANCH   4  14
HETATM   14  C           1     -22.303  -4.387 -10.998  0.00  0.00     0.194 C 
BRANCH  14  15
HETATM   15  C           1     -22.117  -3.267 -11.992  0.00  0.00     0.197 C 
HETATM   16  O           1     -21.423  -2.272 -11.688  0.00  0.00    -0.646 OA
HETATM   17  O           1     -22.657  -3.334 -13.117  0.00  0.00    -0.646 OA
ENDBRANCH  14  15
BRANCH  14  18
HETATM   18  C           1     -23.769  -4.798 -10.963  0.00  0.00     0.106 C 
BRANCH  18  19
HETATM   19  S           1     -24.695  -3.648  -9.908  0.00  0.00    -0.180 SA
HETATM   20  H           1     -24.253  -4.143  -8.738  0.00  0.00     0.101 HD
ENDBRANCH  18  19
ENDBRANCH  14  18
ENDBRANCH   4  14
TORSDOF 9
ENDMDL
MODEL 6
REMARK VINA RESULT:      -4.7     12.559     14.057
REMARK  9 active torsions:
REMARK  status: ('A' for Active; 'I' for Inactive)
REMARK    1  A    between atoms: S_1  and  C_6 
REMARK    2  A    between atoms: N_5  and  C_9 
REMARK    3  A    between atoms: C_6  and  C_8 
REMARK    4  A    between atoms: C_8  and  C_9 
REMARK    5  A    between atoms: C_9  and  C_10 
REMARK       I    between atoms: C_10  and  N_18 
REMARK    6  A    between atoms: C_15  and  C_20 
REMARK    7  A    between atoms: S_17  and  C_19 
REMARK    8  A    between atoms: N_18  and  C_20 
REMARK    9  A    between atoms: C_19  and  C_20 
ROOT
HETATM    1  C           1     -21.759  -4.406  -7.031  0.00  0.00     0.249 C 
HETATM    2  O           1     -21.186  -3.342  -7.041  0.00  0.00    -0.271 OA
HETATM    3  H           1     -23.066  -5.640  -8.058  0.00  0.00     0.163 HD
HETATM    4  N           1     -22.587  -4.748  -8.066  0.00  0.00    -0.344 N 
ENDROOT
BRANCH   1   5
HETATM    5  C           1     -21.562  -5.357  -5.876  0.00  0.00     0.275 C 
BRANCH   5   6
HETATM    6  N           1     -22.896  -5.857  -5.408  0.00  0.00    -0.066 N 
HETATM    7  H           1     -22.935  -6.896  -5.510  0.00  0.00     0.275 HD
HETATM    8  H           1     -23.652  -5.421  -5.983  0.00  0.00     0.275 HD
HETATM    9  H           1     -23.032  -5.601  -4.404  0.00  0.00     0.275 HD
ENDBRANCH   5   6
BRANCH   5  10
HETATM   10  C           1     -20.709  -6.536  -6.327  0.00  0.00     0.053 C 
BRANCH  10  11
HETATM   11  C           1     -21.231  -7.815  -5.686  0.00  0.00     0.076 C 
BRANCH  11  12
HETATM   12  S           1     -20.205  -8.235  -4.250  0.00  0.00    -0.173 SA
HETATM   13  C           1     -19.087  -9.365  -5.126  0.00  0.00     0.089 C 
ENDBRANCH  11  12
ENDBRANCH  10  11
ENDBRANCH   5  10
ENDBRANCH   1   5
BRANCH   4  14
HETATM   14  C           1     -22.776  -3.834  -9.176  0.00  0.00     0.194 C 
BRANCH  14  15
HETATM   15  C           1     -24.224  -3.851  -9.599  0.00  0.00     0.197 C 
HETATM   16  O           1     -24.737  -4.908 -10.026  0.00  0.00    -0.646 OA
HETATM   17  O           1     -24.909  -2.808  -9.524  0.00  0.00    -0.646 OA
ENDBRANCH  14  15
BRANCH  14  18
HETATM   18  C           1     -21.899  -4.267 -10.343  0.00  0.00     0.106 C 
BRANCH  18  19
HETATM   19  S           1     -22.001  -3.030 -11.668  0.00  0.00    -0.180 SA
HETATM   20  H           1     -23.002  -3.625 -12.340  0.00  0.00     0.101 HD
ENDBRANCH  18  19
ENDBRANCH  14  18
ENDBRANCH   4  14
TORSDOF 9
ENDMDL
MODEL 7
REMARK VINA RESULT:      -4.7      2.092      5.867
REMARK  9 active torsions:
REMARK  status: ('A' for Active; 'I' for Inactive)
REMARK    1  A    between atoms: S_1  and  C_6 
REMARK    2  A    between atoms: N_5  and  C_9 
REMARK    3  A    between atoms: C_6  and  C_8 
REMARK    4  A    between atoms: C_8  and  C_9 
REMARK    5  A    between atoms: C_9  and  C_10 
REMARK       I    between atoms: C_10  and  N_18 
REMARK    6  A    between atoms: C_15  and  C_20 
REMARK    7  A    between atoms: S_17  and  C_19 
REMARK    8  A    between atoms: N_18  and  C_20 
REMARK    9  A    between atoms: C_19  and  C_20 
ROOT
HETATM    1  C           1     -35.162  -2.123 -10.728  0.00  0.00     0.249 C 
HETATM    2  O           1     -34.103  -1.909 -10.188  0.00  0.00    -0.271 OA
HETATM    3  H           1     -36.284  -3.513 -11.774  0.00  0.00     0.163 HD
HETATM    4  N           1     -35.396  -3.334 -11.323  0.00  0.00    -0.344 N 
ENDROOT
BRANCH   1   5
HETATM    5  C           1     -36.228  -1.054 -10.747  0.00  0.00     0.275 C 
BRANCH   5   6
HETATM    6  N           1     -36.248  -0.346  -9.425  0.00  0.00    -0.066 N 
HETATM    7  H           1     -35.285  -0.333  -9.022  0.00  0.00     0.275 HD
HETATM    8  H           1     -36.893  -0.847  -8.772  0.00  0.00     0.275 HD
HETATM    9  H           1     -36.583   0.634  -9.559  0.00  0.00     0.275 HD
ENDBRANCH   5   6
BRANCH   5  10
HETATM   10  C           1     -35.924  -0.052 -11.853  0.00  0.00     0.053 C 
BRANCH  10  11
HETATM   11  C           1     -36.914  -0.240 -12.996  0.00  0.00     0.076 C 
BRANCH  11  12
HETATM   12  S           1     -36.036  -0.135 -14.580  0.00  0.00    -0.173 SA
HETATM   13  C           1     -34.734   0.994 -14.012  0.00  0.00     0.089 C 
ENDBRANCH  11  12
ENDBRANCH  10  11
ENDBRANCH   5  10
ENDBRANCH   1   5
BRANCH   4  14
HETATM   14  C           1     -34.372  -4.360 -11.304  0.00  0.00     0.194 C 
BRANCH  14  15
HETATM   15  C           1     -33.363  -4.083 -12.391  0.00  0.00     0.197 C 
HETATM   16  O           1     -32.145  -4.254 -12.171  0.00  0.00    -0.646 OA
HETATM   17  O           1     -33.747  -3.683 -13.512  0.00  0.00    -0.646 OA
ENDBRANCH  14  15
BRANCH  14  18
HETATM   18  C           1     -35.014  -5.721 -11.540  0.00  0.00     0.106 C 
BRANCH  18  19
HETATM   19  S           1     -34.536  -6.856 -10.208  0.00  0.00    -0.180 SA
HETATM   20  H           1     -33.273  -6.410 -10.089  0.00  0.00     0.101 HD
ENDBRANCH  18  19
ENDBRANCH  14  18
ENDBRANCH   4  14
TORSDOF 9
ENDMDL
MODEL 8
REMARK VINA RESULT:      -4.6     15.073     16.542
REMARK  9 active torsions:
REMARK  status: ('A' for Active; 'I' for Inactive)
REMARK    1  A    between atoms: S_1  and  C_6 
REMARK    2  A    between atoms: N_5  and  C_9 
REMARK    3  A    between atoms: C_6  and  C_8 
REMARK    4  A    between atoms: C_8  and  C_9 
REMARK    5  A    between atoms: C_9  and  C_10 
REMARK       I    between atoms: C_10  and  N_18 
REMARK    6  A    between atoms: C_15  and  C_20 
REMARK    7  A    between atoms: S_17  and  C_19 
REMARK    8  A    between atoms: N_18  and  C_20 
REMARK    9  A    between atoms: C_19  and  C_20 
ROOT
HETATM    1  C           1     -21.445  -6.311  -4.367  0.00  0.00     0.249 C 
HETATM    2  O           1     -22.096  -7.163  -4.925  0.00  0.00    -0.271 OA
HETATM    3  H           1     -20.346  -4.576  -4.622  0.00  0.00     0.163 HD
HETATM    4  N           1     -20.890  -5.290  -5.090  0.00  0.00    -0.344 N 
ENDROOT
BRANCH   1   5
HETATM    5  C           1     -21.246  -6.374  -2.872  0.00  0.00     0.275 C 
BRANCH   5   6
HETATM    6  N           1     -22.494  -5.907  -2.183  0.00  0.00    -0.066 N 
HETATM    7  H           1     -22.731  -6.566  -1.407  0.00  0.00     0.275 HD
HETATM    8  H           1     -23.281  -5.879  -2.869  0.00  0.00     0.275 HD
HETATM    9  H           1     -22.339  -4.950  -1.792  0.00  0.00     0.275 HD
ENDBRANCH   5   6
BRANCH   5  10
HETATM   10  C           1     -20.945  -7.808  -2.459  0.00  0.00     0.053 C 
BRANCH  10  11
HETATM   11  C           1     -21.041  -7.931  -0.943  0.00  0.00     0.076 C 
BRANCH  11  12
HETATM   12  S           1     -22.245  -9.219  -0.516  0.00  0.00    -0.173 SA
HETATM   13  C           1     -23.259  -8.189   0.581  0.00  0.00     0.089 C 
ENDBRANCH  11  12
ENDBRANCH  10  11
ENDBRANCH   5  10
ENDBRANCH   1   5
BRANCH   4  14
HETATM   14  C           1     -21.082  -5.230  -6.526  0.00  0.00     0.194 C 
BRANCH  14  15
HETATM   15  C           1     -19.778  -5.534  -7.220  0.00  0.00     0.197 C 
HETATM   16  O           1     -19.385  -6.717  -7.322  0.00  0.00    -0.646 OA
HETATM   17  O           1     -19.089  -4.603  -7.693  0.00  0.00    -0.646 OA
ENDBRANCH  14  15
BRANCH  14  18
HETATM   18  C           1     -21.553  -3.835  -6.916  0.00  0.00     0.106 C 
BRANCH  18  19
HETATM   19  S           1     -22.506  -3.927  -8.458  0.00  0.00    -0.180 SA
HETATM   20  H           1     -23.572  -4.551  -7.928  0.00  0.00     0.101 HD
ENDBRANCH  18  19
ENDBRANCH  14  18
ENDBRANCH   4  14
TORSDOF 9
ENDMDL
MODEL 9
REMARK VINA RESULT:      -4.6     14.064     16.327
REMARK  9 active torsions:
REMARK  status: ('A' for Active; 'I' for Inactive)
REMARK    1  A    between atoms: S_1  and  C_6 
REMARK    2  A    between atoms: N_5  and  C_9 
REMARK    3  A    between atoms: C_6  and  C_8 
REMARK    4  A    between atoms: C_8  and  C_9 
REMARK    5  A    between atoms: C_9  and  C_10 
REMARK       I    between atoms: C_10  and  N_18 
REMARK    6  A    between atoms: C_15  and  C_20 
REMARK    7  A    between atoms: S_17  and  C_19 
REMARK    8  A    between atoms: N_18  and  C_20 
REMARK    9  A    between atoms: C_19  and  C_20 
ROOT
HETATM    1  C           1     -21.430  -5.544  -5.663  0.00  0.00     0.249 C 
HETATM    2  O           1     -22.632  -5.515  -5.782  0.00  0.00    -0.271 OA
HETATM    3  H           1     -19.844  -6.449  -4.688  0.00  0.00     0.163 HD
HETATM    4  N           1     -20.851  -6.424  -4.788  0.00  0.00    -0.344 N 
ENDROOT
BRANCH   1   5
HETATM    5  C           1     -20.568  -4.612  -6.478  0.00  0.00     0.275 C 
BRANCH   5   6
HETATM    6  N           1     -19.513  -5.405  -7.192  0.00  0.00    -0.066 N 
HETATM    7  H           1     -19.629  -6.419  -6.970  0.00  0.00     0.275 HD
HETATM    8  H           1     -18.568  -5.086  -6.881  0.00  0.00     0.275 HD
HETATM    9  H           1     -19.607  -5.261  -8.223  0.00  0.00     0.275 HD
ENDBRANCH   5   6
BRANCH   5  10
HETATM   10  C           1     -21.432  -3.883  -7.499  0.00  0.00     0.053 C 
BRANCH  10  11
HETATM   11  C           1     -20.965  -4.239  -8.905  0.00  0.00     0.076 C 
BRANCH  11  12
HETATM   12  S           1     -22.282  -3.856 -10.094  0.00  0.00    -0.173 SA
HETATM   13  C           1     -23.659  -4.007  -8.921  0.00  0.00     0.089 C 
ENDBRANCH  11  12
ENDBRANCH  10  11
ENDBRANCH   5  10
ENDBRANCH   1   5
BRANCH   4  14
HETATM   14  C           1     -21.680  -7.319  -4.004  0.00  0.00     0.194 C 
BRANCH  14  15
HETATM   15  C           1     -21.677  -6.873  -2.563  0.00  0.00     0.197 C 
HETATM   16  O           1     -22.394  -5.913  -2.204  0.00  0.00    -0.646 OA
HETATM   17  O           1     -20.959  -7.464  -1.727  0.00  0.00    -0.646 OA
ENDBRANCH  14  15
BRANCH  14  18
HETATM   18  C           1     -21.126  -8.735  -4.100  0.00  0.00     0.106 C 
BRANCH  18  19
HETATM   19  S           1     -19.506  -8.698  -4.917  0.00  0.00    -0.180 SA
HETATM   20  H           1     -18.787  -8.984  -3.818  0.00  0.00     0.101 HD
ENDBRANCH  18  19
ENDBRANCH  14  18
ENDBRANCH   4  14
TORSDOF 9
ENDMDL
