MODEL 1
REMARK VINA RESULT:      -6.8      0.000      0.000
REMARK  9 active torsions:
REMARK  status: ('A' for Active; 'I' for Inactive)
REMARK    1  A    between atoms: C_1  and  C_15 
REMARK    2  A    between atoms: C_1  and  C_8 
REMARK    3  A    between atoms: C_3  and  C_4 
REMARK    4  A    between atoms: C_4  and  C_8 
REMARK    5  A    between atoms: C_4  and  N_10 
REMARK    6  A    between atoms: C_5  and  C_6 
REMARK    7  A    between atoms: C_5  and  C_18 
REMARK    8  A    between atoms: C_6  and  C_7 
REMARK    9  A    between atoms: C_6  and  N_20 
REMARK       I    between atoms: C_7  and  N_10 
ROOT
HETATM    1  C           1     -33.998  -2.502 -11.869  0.00  0.00     0.249 C 
HETATM    2  H           1     -35.144  -2.299 -13.581  0.00  0.00     0.163 HD
HETATM    3  N           1     -34.742  -1.813 -12.790  0.00  0.00    -0.345 N 
HETATM    4  O           1     -33.519  -1.921 -10.924  0.00  0.00    -0.271 OA
ENDROOT
BRANCH   1   5
HETATM    5  C           1     -33.776  -3.985 -12.035  0.00  0.00     0.278 C 
BRANCH   5   6
HETATM    6  C           1     -34.257  -4.713 -10.787  0.00  0.00     0.021 C 
HETATM    7  C           1     -35.766  -4.558 -10.659  0.00  0.00     0.012 C 
BRANCH   6   8
HETATM    8  C           1     -33.907  -6.191 -10.896  0.00  0.00     0.002 C 
HETATM    9  C           1     -34.782  -6.992  -9.942  0.00  0.00     0.005 C 
ENDBRANCH   6   8
ENDBRANCH   5   6
BRANCH   5  10
HETATM   10  N           1     -32.315  -4.252 -12.238  0.00  0.00    -0.066 N 
HETATM   11  H           1     -31.853  -3.392 -12.611  0.00  0.00     0.275 HD
HETATM   12  H           1     -32.196  -5.035 -12.920  0.00  0.00     0.275 HD
HETATM   13  H           1     -31.878  -4.516 -11.326  0.00  0.00     0.275 HD
ENDBRANCH   5  10
ENDBRANCH   1   5
BRANCH   3  14
HETATM   14  C           1     -34.956  -0.388 -12.630  0.00  0.00     0.186 C 
BRANCH  14  15
HETATM   15  C           1     -36.213  -0.154 -11.829  0.00  0.00     0.196 C 
HETATM   16  O           1     -37.291  -0.673 -12.190  0.00  0.00    -0.646 OA
HETATM   17  O           1     -36.176   0.560 -10.803  0.00  0.00    -0.646 OA
ENDBRANCH  14  15
BRANCH  14  18
HETATM   18  C           1     -35.097   0.261 -14.000  0.00  0.00     0.046 C 
BRANCH  18  19
HETATM   19  C           1     -35.460  -0.800 -15.031  0.00  0.00     0.116 C 
BRANCH  19  20
HETATM   20  C           1     -36.656  -0.339 -15.828  0.00  0.00     0.172 C 
HETATM   21  O           1     -37.488   0.437 -15.313  0.00  0.00    -0.648 OA
HETATM   22  O           1     -36.813  -0.734 -17.004  0.00  0.00    -0.648 OA
ENDBRANCH  19  20
ENDBRANCH  18  19
ENDBRANCH  14  18
ENDBRANCH   3  14
TORSDOF 9
ENDMDL
MODEL 2
REMARK VINA RESULT:      -6.7      1.803      3.354
REMARK  9 active torsions:
REMARK  status: ('A' for Active; 'I' for Inactive)
REMARK    1  A    between atoms: C_1  and  C_15 
REMARK    2  A    between atoms: C_1  and  C_8 
REMARK    3  A    between atoms: C_3  and  C_4 
REMARK    4  A    between atoms: C_4  and  C_8 
REMARK    5  A    between atoms: C_4  and  N_10 
REMARK    6  A    between atoms: C_5  and  C_6 
REMARK    7  A    between atoms: C_5  and  C_18 
REMARK    8  A    between atoms: C_6  and  C_7 
REMARK    9  A    between atoms: C_6  and  N_20 
REMARK       I    between atoms: C_7  and  N_10 
ROOT
HETATM    1  C           1     -34.401  -2.345 -12.401  0.00  0.00     0.249 C 
HETATM    2  H           1     -34.988  -0.615 -11.427  0.00  0.00     0.163 HD
HETATM    3  N           1     -35.092  -1.170 -12.266  0.00  0.00    -0.345 N 
HETATM    4  O           1     -34.526  -3.007 -13.404  0.00  0.00    -0.271 OA
ENDROOT
BRANCH   1   5
HETATM    5  C           1     -33.484  -2.812 -11.298  0.00  0.00     0.278 C 
BRANCH   5   6
HETATM    6  C           1     -34.098  -4.020 -10.604  0.00  0.00     0.021 C 
HETATM    7  C           1     -35.609  -3.998 -10.790  0.00  0.00     0.012 C 
BRANCH   6   8
HETATM    8  C           1     -33.530  -5.296 -11.210  0.00  0.00     0.002 C 
HETATM    9  C           1     -34.257  -6.501 -10.630  0.00  0.00     0.005 C 
ENDBRANCH   6   8
ENDBRANCH   5   6
BRANCH   5  10
HETATM   10  N           1     -33.296  -1.706 -10.303  0.00  0.00    -0.066 N 
HETATM   11  H           1     -34.195  -1.536  -9.798  0.00  0.00     0.275 HD
HETATM   12  H           1     -33.006  -0.834 -10.802  0.00  0.00     0.275 HD
HETATM   13  H           1     -32.555  -1.975  -9.616  0.00  0.00     0.275 HD
ENDBRANCH   5  10
ENDBRANCH   1   5
BRANCH   3  14
HETATM   14  C           1     -35.973  -0.722 -13.327  0.00  0.00     0.186 C 
BRANCH  14  15
HETATM   15  C           1     -35.214   0.189 -14.260  0.00  0.00     0.196 C 
HETATM   16  O           1     -34.914  -0.201 -15.409  0.00  0.00    -0.646 OA
HETATM   17  O           1     -34.885   1.335 -13.883  0.00  0.00    -0.646 OA
ENDBRANCH  14  15
BRANCH  14  18
HETATM   18  C           1     -37.150   0.034 -12.724  0.00  0.00     0.046 C 
BRANCH  18  19
HETATM   19  C           1     -37.566  -0.631 -11.418  0.00  0.00     0.116 C 
BRANCH  19  20
HETATM   20  C           1     -37.084   0.200 -10.254  0.00  0.00     0.172 C 
HETATM   21  O           1     -37.727   1.210  -9.899  0.00  0.00    -0.648 OA
HETATM   22  O           1     -36.041  -0.124  -9.645  0.00  0.00    -0.648 OA
ENDBRANCH  19  20
ENDBRANCH  18  19
ENDBRANCH  14  18
ENDBRANCH   3  14
TORSDOF 9
ENDMDL
MODEL 3
REMARK VINA RESULT:      -6.6     11.864     13.556
REMARK  9 active torsions:
REMARK  status: ('A' for Active; 'I' for Inactive)
REMARK    1  A    between atoms: C_1  and  C_15 
REMARK    2  A    between atoms: C_1  and  C_8 
REMARK    3  A    between atoms: C_3  and  C_4 
REMARK    4  A    between atoms: C_4  and  C_8 
REMARK    5  A    between atoms: C_4  and  N_10 
REMARK    6  A    between atoms: C_5  and  C_6 
REMARK    7  A    between atoms: C_5  and  C_18 
REMARK    8  A    between atoms: C_6  and  C_7 
REMARK    9  A    between atoms: C_6  and  N_20 
REMARK       I    between atoms: C_7  and  N_10 
ROOT
HETATM    1  C           1     -21.444  -4.469  -8.188  0.00  0.00     0.249 C 
HETATM    2  H           1     -21.918  -5.699  -9.785  0.00  0.00     0.163 HD
HETATM    3  N           1     -22.007  -4.767  -9.401  0.00  0.00    -0.345 N 
HETATM    4  O           1     -21.552  -3.356  -7.730  0.00  0.00    -0.271 OA
ENDROOT
BRANCH   1   5
HETATM    5  C           1     -20.689  -5.529  -7.426  0.00  0.00     0.278 C 
BRANCH   5   6
HETATM    6  C           1     -21.446  -5.875  -6.151  0.00  0.00     0.021 C 
HETATM    7  C           1     -21.489  -7.387  -5.980  0.00  0.00     0.012 C 
BRANCH   6   8
HETATM    8  C           1     -20.740  -5.249  -4.956  0.00  0.00     0.002 C 
HETATM    9  C           1     -21.168  -5.965  -3.682  0.00  0.00     0.005 C 
ENDBRANCH   6   8
ENDBRANCH   5   6
BRANCH   5  10
HETATM   10  N           1     -19.324  -5.016  -7.073  0.00  0.00    -0.066 N 
HETATM   11  H           1     -18.684  -5.823  -6.899  0.00  0.00     0.275 HD
HETATM   12  H           1     -19.386  -4.427  -6.211  0.00  0.00     0.275 HD
HETATM   13  H           1     -18.954  -4.440  -7.862  0.00  0.00     0.275 HD
ENDBRANCH   5  10
ENDBRANCH   1   5
BRANCH   3  14
HETATM   14  C           1     -22.733  -3.748 -10.133  0.00  0.00     0.186 C 
BRANCH  14  15
HETATM   15  C           1     -24.207  -3.866  -9.832  0.00  0.00     0.196 C 
HETATM   16  O           1     -24.772  -4.978  -9.899  0.00  0.00    -0.646 OA
HETATM   17  O           1     -24.863  -2.850  -9.517  0.00  0.00    -0.646 OA
ENDBRANCH  14  15
BRANCH  14  18
HETATM   18  C           1     -22.502  -3.935 -11.627  0.00  0.00     0.046 C 
BRANCH  18  19
HETATM   19  C           1     -22.739  -2.615 -12.348  0.00  0.00     0.116 C 
BRANCH  19  20
HETATM   20  C           1     -23.811  -2.798 -13.394  0.00  0.00     0.172 C 
HETATM   21  O           1     -23.501  -2.842 -14.604  0.00  0.00    -0.648 OA
HETATM   22  O           1     -25.008  -2.905 -13.051  0.00  0.00    -0.648 OA
ENDBRANCH  19  20
ENDBRANCH  18  19
ENDBRANCH  14  18
ENDBRANCH   3  14
TORSDOF 9
ENDMDL
MODEL 4
REMARK VINA RESULT:      -5.9     14.446     17.109
REMARK  9 active torsions:
REMARK  status: ('A' for Active; 'I' for Inactive)
REMARK    1  A    between atoms: C_1  and  C_15 
REMARK    2  A    between atoms: C_1  and  C_8 
REMARK    3  A    between atoms: C_3  and  C_4 
REMARK    4  A    between atoms: C_4  and  C_8 
REMARK    5  A    between atoms: C_4  and  N_10 
REMARK    6  A    between atoms: C_5  and  C_6 
REMARK    7  A    between atoms: C_5  and  C_18 
REMARK    8  A    between atoms: C_6  and  C_7 
REMARK    9  A    between atoms: C_6  and  N_20 
REMARK       I    between atoms: C_7  and  N_10 
ROOT
HETATM    1  C           1     -21.540  -5.086  -6.861  0.00  0.00     0.249 C 
HETATM    2  H           1     -22.058  -7.089  -6.788  0.00  0.00     0.163 HD
HETATM    3  N           1     -21.566  -6.342  -6.315  0.00  0.00    -0.345 N 
HETATM    4  O           1     -20.952  -4.194  -6.297  0.00  0.00    -0.271 OA
ENDROOT
BRANCH   1   5
HETATM    5  C           1     -22.247  -4.816  -8.167  0.00  0.00     0.278 C 
BRANCH   5   6
HETATM    6  C           1     -21.357  -3.961  -9.059  0.00  0.00     0.021 C 
HETATM    7  C           1     -20.120  -4.757  -9.453  0.00  0.00     0.012 C 
BRANCH   6   8
HETATM    8  C           1     -22.126  -3.565 -10.311  0.00  0.00     0.002 C 
HETATM    9  C           1     -21.382  -4.061 -11.543  0.00  0.00     0.005 C 
ENDBRANCH   6   8
ENDBRANCH   5   6
BRANCH   5  10
HETATM   10  N           1     -23.532  -4.090  -7.899  0.00  0.00    -0.066 N 
HETATM   11  H           1     -23.343  -3.264  -7.286  0.00  0.00     0.275 HD
HETATM   12  H           1     -24.202  -4.734  -7.420  0.00  0.00     0.275 HD
HETATM   13  H           1     -23.946  -3.767  -8.802  0.00  0.00     0.275 HD
ENDBRANCH   5  10
ENDBRANCH   1   5
BRANCH   3  14
HETATM   14  C           1     -20.886  -6.601  -5.061  0.00  0.00     0.186 C 
BRANCH  14  15
HETATM   15  C           1     -19.963  -7.783  -5.224  0.00  0.00     0.196 C 
HETATM   16  O           1     -19.234  -7.874  -6.236  0.00  0.00    -0.646 OA
HETATM   17  O           1     -19.928  -8.674  -4.347  0.00  0.00    -0.646 OA
ENDBRANCH  14  15
BRANCH  14  18
HETATM   18  C           1     -21.915  -6.904  -3.980  0.00  0.00     0.046 C 
BRANCH  18  19
HETATM   19  C           1     -21.577  -6.117  -2.721  0.00  0.00     0.116 C 
BRANCH  19  20
HETATM   20  C           1     -21.787  -6.991  -1.509  0.00  0.00     0.172 C 
HETATM   21  O           1     -22.782  -6.812  -0.775  0.00  0.00    -0.648 OA
HETATM   22  O           1     -20.965  -7.894  -1.239  0.00  0.00    -0.648 OA
ENDBRANCH  19  20
ENDBRANCH  18  19
ENDBRANCH  14  18
ENDBRANCH   3  14
TORSDOF 9
ENDMDL
MODEL 5
REMARK VINA RESULT:      -5.9     14.083     16.315
REMARK  9 active torsions:
REMARK  status: ('A' for Active; 'I' for Inactive)
REMARK    1  A    between atoms: C_1  and  C_15 
REMARK    2  A    between atoms: C_1  and  C_8 
REMARK    3  A    between atoms: C_3  and  C_4 
REMARK    4  A    between atoms: C_4  and  C_8 
REMARK    5  A    between atoms: C_4  and  N_10 
REMARK    6  A    between atoms: C_5  and  C_6 
REMARK    7  A    between atoms: C_5  and  C_18 
REMARK    8  A    between atoms: C_6  and  C_7 
REMARK    9  A    between atoms: C_6  and  N_20 
REMARK       I    between atoms: C_7  and  N_10 
ROOT
HETATM    1  C           1     -21.481  -6.586  -4.189  0.00  0.00     0.249 C 
HETATM    2  H           1     -20.621  -4.728  -4.493  0.00  0.00     0.163 HD
HETATM    3  N           1     -21.057  -5.523  -4.942  0.00  0.00    -0.345 N 
HETATM    4  O           1     -22.002  -7.535  -4.725  0.00  0.00    -0.271 OA
ENDROOT
BRANCH   1   5
HETATM    5  C           1     -21.298  -6.571  -2.692  0.00  0.00     0.278 C 
BRANCH   5   6
HETATM    6  C           1     -21.420  -7.989  -2.151  0.00  0.00     0.021 C 
HETATM    7  C           1     -20.030  -8.575  -1.945  0.00  0.00     0.012 C 
BRANCH   6   8
HETATM    8  C           1     -22.162  -7.963  -0.822  0.00  0.00     0.002 C 
HETATM    9  C           1     -21.282  -8.569   0.263  0.00  0.00     0.005 C 
ENDBRANCH   6   8
ENDBRANCH   5   6
BRANCH   5  10
HETATM   10  N           1     -22.351  -5.705  -2.067  0.00  0.00    -0.066 N 
HETATM   11  H           1     -22.188  -5.648  -1.037  0.00  0.00     0.275 HD
HETATM   12  H           1     -23.294  -6.119  -2.249  0.00  0.00     0.275 HD
HETATM   13  H           1     -22.307  -4.747  -2.482  0.00  0.00     0.275 HD
ENDBRANCH   5  10
ENDBRANCH   1   5
BRANCH   3  14
HETATM   14  C           1     -21.233  -5.537  -6.381  0.00  0.00     0.186 C 
BRANCH  14  15
HETATM   15  C           1     -19.903  -5.787  -7.047  0.00  0.00     0.196 C 
HETATM   16  O           1     -19.382  -6.922  -6.997  0.00  0.00    -0.646 OA
HETATM   17  O           1     -19.322  -4.859  -7.650  0.00  0.00    -0.646 OA
ENDBRANCH  14  15
BRANCH  14  18
HETATM   18  C           1     -21.786  -4.194  -6.838  0.00  0.00     0.046 C 
BRANCH  18  19
HETATM   19  C           1     -23.114  -4.407  -7.552  0.00  0.00     0.116 C 
BRANCH  19  20
HETATM   20  C           1     -23.041  -3.813  -8.938  0.00  0.00     0.172 C 
HETATM   21  O           1     -21.958  -3.811  -9.560  0.00  0.00    -0.648 OA
HETATM   22  O           1     -24.065  -3.324  -9.463  0.00  0.00    -0.648 OA
ENDBRANCH  19  20
ENDBRANCH  18  19
ENDBRANCH  14  18
ENDBRANCH   3  14
TORSDOF 9
ENDMDL
MODEL 6
REMARK VINA RESULT:      -5.6      2.275      4.445
REMARK  9 active torsions:
REMARK  status: ('A' for Active; 'I' for Inactive)
REMARK    1  A    between atoms: C_1  and  C_15 
REMARK    2  A    between atoms: C_1  and  C_8 
REMARK    3  A    between atoms: C_3  and  C_4 
REMARK    4  A    between atoms: C_4  and  C_8 
REMARK    5  A    between atoms: C_4  and  N_10 
REMARK    6  A    between atoms: C_5  and  C_6 
REMARK    7  A    between atoms: C_5  and  C_18 
REMARK    8  A    between atoms: C_6  and  C_7 
REMARK    9  A    between atoms: C_6  and  N_20 
REMARK       I    between atoms: C_7  and  N_10 
ROOT
HETATM    1  C           1     -35.370  -2.879 -11.009  0.00  0.00     0.249 C 
HETATM    2  H           1     -34.512  -1.203 -11.871  0.00  0.00     0.163 HD
HETATM    3  N           1     -35.378  -1.624 -11.560  0.00  0.00    -0.345 N 
HETATM    4  O           1     -36.404  -3.381 -10.638  0.00  0.00    -0.271 OA
ENDROOT
BRANCH   1   5
HETATM    5  C           1     -34.071  -3.632 -10.865  0.00  0.00     0.278 C 
BRANCH   5   6
HETATM    6  C           1     -33.404  -3.759 -12.228  0.00  0.00     0.021 C 
HETATM    7  C           1     -32.117  -4.562 -12.090  0.00  0.00     0.012 C 
BRANCH   6   8
HETATM    8  C           1     -34.345  -4.470 -13.190  0.00  0.00     0.002 C 
HETATM    9  C           1     -34.173  -3.893 -14.589  0.00  0.00     0.005 C 
ENDBRANCH   6   8
ENDBRANCH   5   6
BRANCH   5  10
HETATM   10  N           1     -34.344  -5.000 -10.313  0.00  0.00    -0.066 N 
HETATM   11  H           1     -34.844  -5.571 -11.032  0.00  0.00     0.275 HD
HETATM   12  H           1     -34.939  -4.917  -9.458  0.00  0.00     0.275 HD
HETATM   13  H           1     -33.441  -5.463 -10.065  0.00  0.00     0.275 HD
ENDBRANCH   5  10
ENDBRANCH   1   5
BRANCH   3  14
HETATM   14  C           1     -36.626  -0.901 -11.698  0.00  0.00     0.186 C 
BRANCH  14  15
HETATM   15  C           1     -36.727  -0.334 -13.093  0.00  0.00     0.196 C 
HETATM   16  O           1     -37.652  -0.696 -13.851  0.00  0.00    -0.646 OA
HETATM   17  O           1     -35.883   0.499 -13.491  0.00  0.00    -0.646 OA
ENDBRANCH  14  15
BRANCH  14  18
HETATM   18  C           1     -36.670   0.234 -10.683  0.00  0.00     0.046 C 
BRANCH  18  19
HETATM   19  C           1     -37.769  -0.038  -9.664  0.00  0.00     0.116 C 
BRANCH  19  20
HETATM   20  C           1     -37.183  -0.011  -8.273  0.00  0.00     0.172 C 
HETATM   21  O           1     -36.003   0.364  -8.100  0.00  0.00    -0.648 OA
HETATM   22  O           1     -37.877  -0.363  -7.295  0.00  0.00    -0.648 OA
ENDBRANCH  19  20
ENDBRANCH  18  19
ENDBRANCH  14  18
ENDBRANCH   3  14
TORSDOF 9
ENDMDL
MODEL 7
REMARK VINA RESULT:      -5.5     16.031     18.474
REMARK  9 active torsions:
REMARK  status: ('A' for Active; 'I' for Inactive)
REMARK    1  A    between atoms: C_1  and  C_15 
REMARK    2  A    between atoms: C_1  and  C_8 
REMARK    3  A    between atoms: C_3  and  C_4 
REMARK    4  A    between atoms: C_4  and  C_8 
REMARK    5  A    between atoms: C_4  and  N_10 
REMARK    6  A    between atoms: C_5  and  C_6 
REMARK    7  A    between atoms: C_5  and  C_18 
REMARK    8  A    between atoms: C_6  and  C_7 
REMARK    9  A    between atoms: C_6  and  N_20 
REMARK       I    between atoms: C_7  and  N_10 
ROOT
HETATM    1  C           1     -21.184  -8.842  -2.275  0.00  0.00     0.249 C 
HETATM    2  H           1     -19.753  -7.576  -3.074  0.00  0.00     0.163 HD
HETATM    3  N           1     -20.322  -8.396  -3.242  0.00  0.00    -0.345 N 
HETATM    4  O           1     -21.862  -9.821  -2.477  0.00  0.00    -0.271 OA
ENDROOT
BRANCH   1   5
HETATM    5  C           1     -21.286  -8.110  -0.960  0.00  0.00     0.278 C 
BRANCH   5   6
HETATM    6  C           1     -21.749  -9.074   0.124  0.00  0.00     0.021 C 
HETATM    7  C           1     -21.049  -8.739   1.434  0.00  0.00     0.012 C 
BRANCH   6   8
HETATM    8  C           1     -23.255  -8.948   0.306  0.00  0.00     0.002 C 
HETATM    9  C           1     -23.911 -10.302   0.069  0.00  0.00     0.005 C 
ENDBRANCH   6   8
ENDBRANCH   5   6
BRANCH   5  10
HETATM   10  N           1     -22.275  -6.989  -1.087  0.00  0.00    -0.066 N 
HETATM   11  H           1     -22.440  -6.784  -2.099  0.00  0.00     0.275 HD
HETATM   12  H           1     -21.896  -6.136  -0.616  0.00  0.00     0.275 HD
HETATM   13  H           1     -23.176  -7.265  -0.635  0.00  0.00     0.275 HD
ENDBRANCH   5  10
ENDBRANCH   1   5
BRANCH   3  14
HETATM   14  C           1     -20.223  -9.099  -4.506  0.00  0.00     0.186 C 
BRANCH  14  15
HETATM   15  C           1     -18.770  -9.288  -4.864  0.00  0.00     0.196 C 
HETATM   16  O           1     -18.433  -9.432  -6.059  0.00  0.00    -0.646 OA
HETATM   17  O           1     -17.901  -9.300  -3.964  0.00  0.00    -0.646 OA
ENDBRANCH  14  15
BRANCH  14  18
HETATM   18  C           1     -20.914  -8.288  -5.594  0.00  0.00     0.046 C 
BRANCH  18  19
HETATM   19  C           1     -20.615  -6.808  -5.392  0.00  0.00     0.116 C 
BRANCH  19  20
HETATM   20  C           1     -21.901  -6.068  -5.112  0.00  0.00     0.172 C 
HETATM   21  O           1     -22.436  -5.384  -6.010  0.00  0.00    -0.648 OA
HETATM   22  O           1     -22.430  -6.141  -3.981  0.00  0.00    -0.648 OA
ENDBRANCH  19  20
ENDBRANCH  18  19
ENDBRANCH  14  18
ENDBRANCH   3  14
TORSDOF 9
ENDMDL
MODEL 8
REMARK VINA RESULT:      -5.4     15.811     18.559
REMARK  9 active torsions:
REMARK  status: ('A' for Active; 'I' for Inactive)
REMARK    1  A    between atoms: C_1  and  C_15 
REMARK    2  A    between atoms: C_1  and  C_8 
REMARK    3  A    between atoms: C_3  and  C_4 
REMARK    4  A    between atoms: C_4  and  C_8 
REMARK    5  A    between atoms: C_4  and  N_10 
REMARK    6  A    between atoms: C_5  and  C_6 
REMARK    7  A    between atoms: C_5  and  C_18 
REMARK    8  A    between atoms: C_6  and  C_7 
REMARK    9  A    between atoms: C_6  and  N_20 
REMARK       I    between atoms: C_7  and  N_10 
ROOT
HETATM    1  C           1     -21.162  -6.769  -4.128  0.00  0.00     0.249 C 
HETATM    2  H           1     -20.916  -8.776  -4.574  0.00  0.00     0.163 HD
HETATM    3  N           1     -20.765  -8.056  -3.880  0.00  0.00    -0.345 N 
HETATM    4  O           1     -20.981  -5.911  -3.298  0.00  0.00    -0.271 OA
ENDROOT
BRANCH   1   5
HETATM    5  C           1     -21.828  -6.425  -5.438  0.00  0.00     0.278 C 
BRANCH   5   6
HETATM    6  C           1     -21.081  -5.274  -6.100  0.00  0.00     0.021 C 
HETATM    7  C           1     -19.868  -5.818  -6.842  0.00  0.00     0.012 C 
BRANCH   6   8
HETATM    8  C           1     -22.004  -4.570  -7.084  0.00  0.00     0.002 C 
HETATM    9  C           1     -21.343  -4.519  -8.454  0.00  0.00     0.005 C 
ENDBRANCH   6   8
ENDBRANCH   5   6
BRANCH   5  10
HETATM   10  N           1     -23.249  -6.019  -5.185  0.00  0.00    -0.066 N 
HETATM   11  H           1     -23.666  -5.644  -6.068  0.00  0.00     0.275 HD
HETATM   12  H           1     -23.274  -5.279  -4.447  0.00  0.00     0.275 HD
HETATM   13  H           1     -23.798  -6.848  -4.865  0.00  0.00     0.275 HD
ENDBRANCH   5  10
ENDBRANCH   1   5
BRANCH   3  14
HETATM   14  C           1     -20.126  -8.387  -2.621  0.00  0.00     0.186 C 
BRANCH  14  15
HETATM   15  C           1     -18.970  -9.323  -2.875  0.00  0.00     0.196 C 
HETATM   16  O           1     -18.256  -9.175  -3.890  0.00  0.00    -0.646 OA
HETATM   17  O           1     -18.726 -10.248  -2.070  0.00  0.00    -0.646 OA
ENDBRANCH  14  15
BRANCH  14  18
HETATM   18  C           1     -21.134  -9.062  -1.701  0.00  0.00     0.046 C 
BRANCH  18  19
HETATM   19  C           1     -21.170  -8.335  -0.364  0.00  0.00     0.116 C 
BRANCH  19  20
HETATM   20  C           1     -22.503  -7.646  -0.201  0.00  0.00     0.172 C 
HETATM   21  O           1     -23.334  -8.082   0.624  0.00  0.00    -0.648 OA
HETATM   22  O           1     -22.776  -6.640  -0.892  0.00  0.00    -0.648 OA
ENDBRANCH  19  20
ENDBRANCH  18  19
ENDBRANCH  14  18
ENDBRANCH   3  14
TORSDOF 9
ENDMDL
MODEL 9
REMARK VINA RESULT:      -5.3     14.664     17.355
REMARK  9 active torsions:
REMARK  status: ('A' for Active; 'I' for Inactive)
REMARK    1  A    between atoms: C_1  and  C_15 
REMARK    2  A    between atoms: C_1  and  C_8 
REMARK    3  A    between atoms: C_3  and  C_4 
REMARK    4  A    between atoms: C_4  and  C_8 
REMARK    5  A    between atoms: C_4  and  N_10 
REMARK    6  A    between atoms: C_5  and  C_6 
REMARK    7  A    between atoms: C_5  and  C_18 
REMARK    8  A    between atoms: C_6  and  C_7 
REMARK    9  A    between atoms: C_6  and  N_20 
REMARK       I    between atoms: C_7  and  N_10 
ROOT
HETATM    1  C           1     -21.645  -5.605  -5.716  0.00  0.00     0.249 C 
HETATM    2  H           1     -19.873  -6.287  -4.891  0.00  0.00     0.163 HD
HETATM    3  N           1     -20.879  -6.394  -4.899  0.00  0.00    -0.345 N 
HETATM    4  O           1     -22.846  -5.733  -5.725  0.00  0.00    -0.271 OA
ENDROOT
BRANCH   1   5
HETATM    5  C           1     -20.989  -4.576  -6.604  0.00  0.00     0.278 C 
BRANCH   5   6
HETATM    6  C           1     -21.359  -4.848  -8.055  0.00  0.00     0.021 C 
HETATM    7  C           1     -22.356  -3.800  -8.529  0.00  0.00     0.012 C 
BRANCH   6   8
HETATM    8  C           1     -20.107  -4.783  -8.919  0.00  0.00     0.002 C 
HETATM    9  C           1     -20.483  -4.347 -10.328  0.00  0.00     0.005 C 
ENDBRANCH   6   8
ENDBRANCH   5   6
BRANCH   5  10
HETATM   10  N           1     -19.499  -4.655  -6.444  0.00  0.00    -0.066 N 
HETATM   11  H           1     -19.116  -5.368  -7.105  0.00  0.00     0.275 HD
HETATM   12  H           1     -19.269  -4.931  -5.462  0.00  0.00     0.275 HD
HETATM   13  H           1     -19.076  -3.723  -6.652  0.00  0.00     0.275 HD
ENDBRANCH   5  10
ENDBRANCH   1   5
BRANCH   3  14
HETATM   14  C           1     -21.509  -7.382  -4.046  0.00  0.00     0.186 C 
BRANCH  14  15
HETATM   15  C           1     -21.586  -6.852  -2.635  0.00  0.00     0.196 C 
HETATM   16  O           1     -22.377  -5.925  -2.357  0.00  0.00    -0.646 OA
HETATM   17  O           1     -20.858  -7.341  -1.744  0.00  0.00    -0.646 OA
ENDBRANCH  14  15
BRANCH  14  18
HETATM   18  C           1     -20.690  -8.665  -4.064  0.00  0.00     0.046 C 
BRANCH  18  19
HETATM   19  C           1     -21.617  -9.858  -4.251  0.00  0.00     0.116 C 
BRANCH  19  20
HETATM   20  C           1     -20.984 -10.843  -5.204  0.00  0.00     0.172 C 
HETATM   21  O           1     -21.155 -10.719  -6.435  0.00  0.00    -0.648 OA
HETATM   22  O           1     -20.288 -11.782  -4.761  0.00  0.00    -0.648 OA
ENDBRANCH  19  20
ENDBRANCH  18  19
ENDBRANCH  14  18
ENDBRANCH   3  14
TORSDOF 9
ENDMDL
