MODEL 1
REMARK VINA RESULT:      -7.8      0.000      0.000
REMARK  8 active torsions:
REMARK  status: ('A' for Active; 'I' for Inactive)
REMARK    1  A    between atoms: N_2  and  C_18 
REMARK    2  A    between atoms: C_5  and  C_7 
REMARK    3  A    between atoms: C_7  and  C_8 
REMARK    4  A    between atoms: C_7  and  N_19 
REMARK    5  A    between atoms: C_8  and  C_9 
REMARK       I    between atoms: C_17  and  N_19 
REMARK    6  A    between atoms: C_17  and  C_18 
REMARK    7  A    between atoms: C_18  and  C_24 
REMARK    8  A    between atoms: C_24  and  C_25 
REMARK       I    between atoms: C_25  and  N_26 
ROOT
HETATM    1  O           1     -37.529  -0.816 -13.465  0.00  0.00    -0.271 OA
HETATM    2  C           1     -36.542  -0.372 -12.927  0.00  0.00     0.249 C 
HETATM    3  N           1     -36.595   0.026 -11.618  0.00  0.00    -0.344 N 
HETATM    4  H           1     -36.840   0.981 -11.389  0.00  0.00     0.163 HD
ENDROOT
BRANCH   2   5
HETATM    5  C           1     -35.251  -0.254 -13.700  0.00  0.00     0.283 C 
BRANCH   5   6
HETATM    6  N           1     -35.004  -1.528 -14.454  0.00  0.00    -0.066 N 
HETATM    7  H           1     -34.325  -1.348 -15.229  0.00  0.00     0.275 HD
HETATM    8  H           1     -34.609  -2.245 -13.805  0.00  0.00     0.275 HD
HETATM    9  H           1     -35.904  -1.876 -14.854  0.00  0.00     0.275 HD
ENDBRANCH   5   6
BRANCH   5  10
HETATM   10  C           1     -35.352   0.905 -14.683  0.00  0.00     0.145 C 
BRANCH  10  11
HETATM   11  C           1     -36.331   0.555 -15.776  0.00  0.00     0.217 C 
HETATM   12  O           1     -36.012  -0.213 -16.651  0.00  0.00    -0.274 OA
HETATM   13  N           1     -37.583   1.109 -15.774  0.00  0.00    -0.370 N 
HETATM   14  H           1     -38.241   0.873 -16.508  0.00  0.00     0.159 HD
HETATM   15  H           1     -37.852   1.752 -15.041  0.00  0.00     0.159 HD
ENDBRANCH  10  11
ENDBRANCH   5  10
ENDBRANCH   2   5
BRANCH   3  16
HETATM   16  C           1     -36.301  -0.921 -10.561  0.00  0.00     0.189 C 
BRANCH  16  17
HETATM   17  C           1     -36.792  -0.372  -9.243  0.00  0.00     0.197 C 
HETATM   18  O           1     -38.017  -0.345  -8.996  0.00  0.00    -0.646 OA
HETATM   19  O           1     -35.974   0.055  -8.400  0.00  0.00    -0.646 OA
ENDBRANCH  16  17
BRANCH  16  20
HETATM   20  C           1     -34.796  -1.147 -10.487  0.00  0.00     0.074 C 
BRANCH  20  21
HETATM   21  C           1     -34.485  -2.566 -10.855  0.00  0.00    -0.056 A 
HETATM   22  C           1     -35.487  -3.534 -10.805  0.00  0.00     0.007 A 
HETATM   23  C           1     -35.199  -4.855 -11.148  0.00  0.00     0.001 A 
HETATM   24  C           1     -33.907  -5.207 -11.540  0.00  0.00     0.000 A 
HETATM   25  C           1     -32.905  -4.239 -11.589  0.00  0.00     0.001 A 
HETATM   26  C           1     -33.193  -2.917 -11.247  0.00  0.00     0.007 A 
ENDBRANCH  20  21
ENDBRANCH  16  20
ENDBRANCH   3  16
TORSDOF 8
ENDMDL
MODEL 2
REMARK VINA RESULT:      -7.7      1.972      2.962
REMARK  8 active torsions:
REMARK  status: ('A' for Active; 'I' for Inactive)
REMARK    1  A    between atoms: N_2  and  C_18 
REMARK    2  A    between atoms: C_5  and  C_7 
REMARK    3  A    between atoms: C_7  and  C_8 
REMARK    4  A    between atoms: C_7  and  N_19 
REMARK    5  A    between atoms: C_8  and  C_9 
REMARK       I    between atoms: C_17  and  N_19 
REMARK    6  A    between atoms: C_17  and  C_18 
REMARK    7  A    between atoms: C_18  and  C_24 
REMARK    8  A    between atoms: C_24  and  C_25 
REMARK       I    between atoms: C_25  and  N_26 
ROOT
HETATM    1  O           1     -35.975   0.897 -14.618  0.00  0.00    -0.271 OA
HETATM    2  C           1     -35.701  -0.279 -14.671  0.00  0.00     0.249 C 
HETATM    3  N           1     -34.872  -0.832 -13.731  0.00  0.00    -0.344 N 
HETATM    4  H           1     -33.872  -0.851 -13.887  0.00  0.00     0.163 HD
ENDROOT
BRANCH   2   5
HETATM    5  C           1     -36.270  -1.138 -15.773  0.00  0.00     0.283 C 
BRANCH   5   6
HETATM    6  N           1     -37.474  -0.460 -16.360  0.00  0.00    -0.066 N 
HETATM    7  H           1     -37.164   0.288 -17.021  0.00  0.00     0.275 HD
HETATM    8  H           1     -38.050  -1.163 -16.876  0.00  0.00     0.275 HD
HETATM    9  H           1     -38.043  -0.035 -15.595  0.00  0.00     0.275 HD
ENDBRANCH   5   6
BRANCH   5  10
HETATM   10  C           1     -35.220  -1.334 -16.858  0.00  0.00     0.145 C 
BRANCH  10  11
HETATM   11  C           1     -34.491  -2.634 -16.625  0.00  0.00     0.217 C 
HETATM   12  O           1     -34.750  -3.306 -15.655  0.00  0.00    -0.274 OA
HETATM   13  N           1     -33.538  -3.053 -17.513  0.00  0.00    -0.370 N 
HETATM   14  H           1     -33.049  -3.926 -17.357  0.00  0.00     0.159 HD
HETATM   15  H           1     -33.322  -2.491 -18.327  0.00  0.00     0.159 HD
ENDBRANCH  10  11
ENDBRANCH   5  10
ENDBRANCH   2   5
BRANCH   3  16
HETATM   16  C           1     -35.427  -1.387 -12.512  0.00  0.00     0.189 C 
BRANCH  16  17
HETATM   17  C           1     -36.431  -0.421 -11.932  0.00  0.00     0.197 C 
HETATM   18  O           1     -36.040   0.549 -11.247  0.00  0.00    -0.646 OA
HETATM   19  O           1     -37.653  -0.591 -12.135  0.00  0.00    -0.646 OA
ENDBRANCH  16  17
BRANCH  16  20
HETATM   20  C           1     -34.307  -1.622 -11.507  0.00  0.00     0.074 C 
BRANCH  20  21
HETATM   21  C           1     -34.067  -3.093 -11.361  0.00  0.00    -0.056 A 
HETATM   22  C           1     -32.861  -3.647 -11.789  0.00  0.00     0.007 A 
HETATM   23  C           1     -32.637  -5.018 -11.653  0.00  0.00     0.001 A 
HETATM   24  C           1     -33.618  -5.832 -11.089  0.00  0.00     0.000 A 
HETATM   25  C           1     -34.824  -5.277 -10.661  0.00  0.00     0.001 A 
HETATM   26  C           1     -35.049  -3.907 -10.797  0.00  0.00     0.007 A 
ENDBRANCH  20  21
ENDBRANCH  16  20
ENDBRANCH   3  16
TORSDOF 8
ENDMDL
MODEL 3
REMARK VINA RESULT:      -7.5      2.594      5.047
REMARK  8 active torsions:
REMARK  status: ('A' for Active; 'I' for Inactive)
REMARK    1  A    between atoms: N_2  and  C_18 
REMARK    2  A    between atoms: C_5  and  C_7 
REMARK    3  A    between atoms: C_7  and  C_8 
REMARK    4  A    between atoms: C_7  and  N_19 
REMARK    5  A    between atoms: C_8  and  C_9 
REMARK       I    between atoms: C_17  and  N_19 
REMARK    6  A    between atoms: C_17  and  C_18 
REMARK    7  A    between atoms: C_18  and  C_24 
REMARK    8  A    between atoms: C_24  and  C_25 
REMARK       I    between atoms: C_25  and  N_26 
ROOT
HETATM    1  O           1     -33.708  -1.693 -10.205  0.00  0.00    -0.271 OA
HETATM    2  C           1     -34.839  -1.924 -10.562  0.00  0.00     0.249 C 
HETATM    3  N           1     -35.885  -1.229 -10.018  0.00  0.00    -0.344 N 
HETATM    4  H           1     -36.347  -1.577  -9.187  0.00  0.00     0.163 HD
ENDROOT
BRANCH   2   5
HETATM    5  C           1     -35.099  -2.981 -11.608  0.00  0.00     0.283 C 
BRANCH   5   6
HETATM    6  N           1     -33.952  -3.016 -12.576  0.00  0.00    -0.066 N 
HETATM    7  H           1     -34.225  -3.569 -13.420  0.00  0.00     0.275 HD
HETATM    8  H           1     -33.710  -2.041 -12.863  0.00  0.00     0.275 HD
HETATM    9  H           1     -33.125  -3.462 -12.120  0.00  0.00     0.275 HD
ENDBRANCH   5   6
BRANCH   5  10
HETATM   10  C           1     -35.233  -4.340 -10.934  0.00  0.00     0.145 C 
BRANCH  10  11
HETATM   11  C           1     -34.688  -5.411 -11.846  0.00  0.00     0.217 C 
HETATM   12  O           1     -35.156  -5.561 -12.949  0.00  0.00    -0.274 OA
HETATM   13  N           1     -33.661  -6.212 -11.423  0.00  0.00    -0.370 N 
HETATM   14  H           1     -33.295  -6.930 -12.035  0.00  0.00     0.159 HD
HETATM   15  H           1     -33.268  -6.086 -10.499  0.00  0.00     0.159 HD
ENDBRANCH  10  11
ENDBRANCH   5  10
ENDBRANCH   2   5
BRANCH   3  16
HETATM   16  C           1     -36.331   0.008 -10.631  0.00  0.00     0.189 C 
BRANCH  16  17
HETATM   17  C           1     -36.953   0.894  -9.580  0.00  0.00     0.197 C 
HETATM   18  O           1     -38.074   1.408  -9.781  0.00  0.00    -0.646 OA
HETATM   19  O           1     -36.347   1.113  -8.508  0.00  0.00    -0.646 OA
ENDBRANCH  16  17
BRANCH  16  20
HETATM   20  C           1     -37.362  -0.304 -11.708  0.00  0.00     0.074 C 
BRANCH  20  21
HETATM   21  C           1     -36.806   0.054 -13.051  0.00  0.00    -0.056 A 
HETATM   22  C           1     -37.605  -0.058 -14.188  0.00  0.00     0.007 A 
HETATM   23  C           1     -37.087   0.275 -15.441  0.00  0.00     0.001 A 
HETATM   24  C           1     -35.770   0.721 -15.554  0.00  0.00     0.000 A 
HETATM   25  C           1     -34.971   0.831 -14.416  0.00  0.00     0.001 A 
HETATM   26  C           1     -35.488   0.498 -13.164  0.00  0.00     0.007 A 
ENDBRANCH  20  21
ENDBRANCH  16  20
ENDBRANCH   3  16
TORSDOF 8
ENDMDL
MODEL 4
REMARK VINA RESULT:      -7.1      3.325      6.129
REMARK  8 active torsions:
REMARK  status: ('A' for Active; 'I' for Inactive)
REMARK    1  A    between atoms: N_2  and  C_18 
REMARK    2  A    between atoms: C_5  and  C_7 
REMARK    3  A    between atoms: C_7  and  C_8 
REMARK    4  A    between atoms: C_7  and  N_19 
REMARK    5  A    between atoms: C_8  and  C_9 
REMARK       I    between atoms: C_17  and  N_19 
REMARK    6  A    between atoms: C_17  and  C_18 
REMARK    7  A    between atoms: C_18  and  C_24 
REMARK    8  A    between atoms: C_24  and  C_25 
REMARK       I    between atoms: C_25  and  N_26 
ROOT
HETATM    1  O           1     -32.538  -3.831 -11.894  0.00  0.00    -0.271 OA
HETATM    2  C           1     -33.400  -3.646 -11.068  0.00  0.00     0.249 C 
HETATM    3  N           1     -33.612  -2.389 -10.569  0.00  0.00    -0.344 N 
HETATM    4  H           1     -33.111  -2.080  -9.745  0.00  0.00     0.163 HD
ENDROOT
BRANCH   2   5
HETATM    5  C           1     -34.242  -4.802 -10.584  0.00  0.00     0.283 C 
BRANCH   5   6
HETATM    6  N           1     -35.571  -4.775 -11.280  0.00  0.00    -0.066 N 
HETATM    7  H           1     -36.329  -4.982 -10.591  0.00  0.00     0.275 HD
HETATM    8  H           1     -35.727  -3.829 -11.695  0.00  0.00     0.275 HD
HETATM    9  H           1     -35.582  -5.495 -12.037  0.00  0.00     0.275 HD
ENDBRANCH   5   6
BRANCH   5  10
HETATM   10  C           1     -33.533  -6.113 -10.897  0.00  0.00     0.145 C 
BRANCH  10  11
HETATM   11  C           1     -34.276  -7.255 -10.251  0.00  0.00     0.217 C 
HETATM   12  O           1     -35.251  -7.034  -9.572  0.00  0.00    -0.274 OA
HETATM   13  N           1     -33.847  -8.542 -10.434  0.00  0.00    -0.370 N 
HETATM   14  H           1     -34.347  -9.308 -10.001  0.00  0.00     0.159 HD
HETATM   15  H           1     -33.032  -8.728 -11.003  0.00  0.00     0.159 HD
ENDBRANCH  10  11
ENDBRANCH   5  10
ENDBRANCH   2   5
BRANCH   3  16
HETATM   16  C           1     -34.554  -1.500 -11.220  0.00  0.00     0.189 C 
BRANCH  16  17
HETATM   17  C           1     -35.829  -1.442 -10.414  0.00  0.00     0.197 C 
HETATM   18  O           1     -36.773  -2.216 -10.681  0.00  0.00    -0.646 OA
HETATM   19  O           1     -35.940  -0.619  -9.479  0.00  0.00    -0.646 OA
ENDBRANCH  16  17
BRANCH  16  20
HETATM   20  C           1     -34.861  -2.024 -12.618  0.00  0.00     0.074 C 
BRANCH  20  21
HETATM   21  C           1     -35.075  -0.869 -13.547  0.00  0.00    -0.056 A 
HETATM   22  C           1     -34.654   0.408 -13.180  0.00  0.00     0.007 A 
HETATM   23  C           1     -34.854   1.484 -14.046  0.00  0.00     0.001 A 
HETATM   24  C           1     -35.474   1.281 -15.278  0.00  0.00     0.000 A 
HETATM   25  C           1     -35.896   0.003 -15.645  0.00  0.00     0.001 A 
HETATM   26  C           1     -35.697  -1.073 -14.779  0.00  0.00     0.007 A 
ENDBRANCH  20  21
ENDBRANCH  16  20
ENDBRANCH   3  16
TORSDOF 8
ENDMDL
MODEL 5
REMARK VINA RESULT:      -7.0      2.239      4.162
REMARK  8 active torsions:
REMARK  status: ('A' for Active; 'I' for Inactive)
REMARK    1  A    between atoms: N_2  and  C_18 
REMARK    2  A    between atoms: C_5  and  C_7 
REMARK    3  A    between atoms: C_7  and  C_8 
REMARK    4  A    between atoms: C_7  and  N_19 
REMARK    5  A    between atoms: C_8  and  C_9 
REMARK       I    between atoms: C_17  and  N_19 
REMARK    6  A    between atoms: C_17  and  C_18 
REMARK    7  A    between atoms: C_18  and  C_24 
REMARK    8  A    between atoms: C_24  and  C_25 
REMARK       I    between atoms: C_25  and  N_26 
ROOT
HETATM    1  O           1     -35.056  -1.560 -13.761  0.00  0.00    -0.271 OA
HETATM    2  C           1     -35.807  -0.650 -13.502  0.00  0.00     0.249 C 
HETATM    3  N           1     -36.818  -0.832 -12.597  0.00  0.00    -0.344 N 
HETATM    4  H           1     -37.725  -1.155 -12.910  0.00  0.00     0.163 HD
ENDROOT
BRANCH   2   5
HETATM    5  C           1     -35.631   0.688 -14.177  0.00  0.00     0.283 C 
BRANCH   5   6
HETATM    6  N           1     -34.314   1.283 -13.771  0.00  0.00    -0.066 N 
HETATM    7  H           1     -33.881   0.693 -13.024  0.00  0.00     0.275 HD
HETATM    8  H           1     -33.678   1.317 -14.599  0.00  0.00     0.275 HD
HETATM    9  H           1     -34.466   2.250 -13.406  0.00  0.00     0.275 HD
ENDBRANCH   5   6
BRANCH   5  10
HETATM   10  C           1     -35.656   0.502 -15.689  0.00  0.00     0.145 C 
BRANCH  10  11
HETATM   11  C           1     -37.065   0.205 -16.137  0.00  0.00     0.217 C 
HETATM   12  O           1     -37.304  -0.811 -16.747  0.00  0.00    -0.274 OA
HETATM   13  N           1     -38.074   1.085 -15.852  0.00  0.00    -0.370 N 
HETATM   14  H           1     -39.020   0.885 -16.152  0.00  0.00     0.159 HD
HETATM   15  H           1     -37.875   1.935 -15.341  0.00  0.00     0.159 HD
ENDBRANCH  10  11
ENDBRANCH   5  10
ENDBRANCH   2   5
BRANCH   3  16
HETATM   16  C           1     -36.589  -0.563 -11.191  0.00  0.00     0.189 C 
BRANCH  16  17
HETATM   17  C           1     -35.779  -1.686 -10.590  0.00  0.00     0.197 C 
HETATM   18  O           1     -34.731  -1.431  -9.958  0.00  0.00    -0.646 OA
HETATM   19  O           1     -36.157  -2.870 -10.723  0.00  0.00    -0.646 OA
ENDBRANCH  16  17
BRANCH  16  20
HETATM   20  C           1     -37.928  -0.460 -10.471  0.00  0.00     0.074 C 
BRANCH  20  21
HETATM   21  C           1     -37.717   0.117  -9.105  0.00  0.00    -0.056 A 
HETATM   22  C           1     -38.075  -0.618  -7.975  0.00  0.00     0.007 A 
HETATM   23  C           1     -37.879  -0.081  -6.703  0.00  0.00     0.001 A 
HETATM   24  C           1     -37.325   1.191  -6.561  0.00  0.00     0.000 A 
HETATM   25  C           1     -36.968   1.926  -7.691  0.00  0.00     0.001 A 
HETATM   26  C           1     -37.164   1.390  -8.964  0.00  0.00     0.007 A 
ENDBRANCH  20  21
ENDBRANCH  16  20
ENDBRANCH   3  16
TORSDOF 8
ENDMDL
MODEL 6
REMARK VINA RESULT:      -6.8     13.639     15.632
REMARK  8 active torsions:
REMARK  status: ('A' for Active; 'I' for Inactive)
REMARK    1  A    between atoms: N_2  and  C_18 
REMARK    2  A    between atoms: C_5  and  C_7 
REMARK    3  A    between atoms: C_7  and  C_8 
REMARK    4  A    between atoms: C_7  and  N_19 
REMARK    5  A    between atoms: C_8  and  C_9 
REMARK       I    between atoms: C_17  and  N_19 
REMARK    6  A    between atoms: C_17  and  C_18 
REMARK    7  A    between atoms: C_18  and  C_24 
REMARK    8  A    between atoms: C_24  and  C_25 
REMARK       I    between atoms: C_25  and  N_26 
ROOT
HETATM    1  O           1     -23.829  -4.428  -6.806  0.00  0.00    -0.271 OA
HETATM    2  C           1     -22.966  -4.226  -7.627  0.00  0.00     0.249 C 
HETATM    3  N           1     -21.744  -3.752  -7.232  0.00  0.00    -0.344 N 
HETATM    4  H           1     -21.578  -2.755  -7.184  0.00  0.00     0.163 HD
ENDROOT
BRANCH   2   5
HETATM    5  C           1     -23.236  -4.492  -9.087  0.00  0.00     0.283 C 
BRANCH   5   6
HETATM    6  N           1     -24.717  -4.494  -9.328  0.00  0.00    -0.066 N 
HETATM    7  H           1     -25.052  -3.511  -9.450  0.00  0.00     0.275 HD
HETATM    8  H           1     -24.928  -5.042 -10.192  0.00  0.00     0.275 HD
HETATM    9  H           1     -25.203  -4.928  -8.511  0.00  0.00     0.275 HD
ENDBRANCH   5   6
BRANCH   5  10
HETATM   10  C           1     -22.588  -3.402  -9.931  0.00  0.00     0.145 C 
BRANCH  10  11
HETATM   11  C           1     -22.254  -3.953 -11.295  0.00  0.00     0.217 C 
HETATM   12  O           1     -23.101  -4.524 -11.941  0.00  0.00    -0.274 OA
HETATM   13  N           1     -20.991  -3.804 -11.802  0.00  0.00    -0.370 N 
HETATM   14  H           1     -20.767  -4.173 -12.719  0.00  0.00     0.159 HD
HETATM   15  H           1     -20.282  -3.325 -11.263  0.00  0.00     0.159 HD
ENDBRANCH  10  11
ENDBRANCH   5  10
ENDBRANCH   2   5
BRANCH   3  16
HETATM   16  C           1     -20.686  -4.680  -6.883  0.00  0.00     0.189 C 
BRANCH  16  17
HETATM   17  C           1     -19.540  -4.525  -7.853  0.00  0.00     0.197 C 
HETATM   18  O           1     -18.410  -4.192  -7.437  0.00  0.00    -0.646 OA
HETATM   19  O           1     -19.722  -4.730  -9.073  0.00  0.00    -0.646 OA
ENDBRANCH  16  17
BRANCH  16  20
HETATM   20  C           1     -21.219  -6.105  -6.950  0.00  0.00     0.074 C 
BRANCH  20  21
HETATM   21  C           1     -21.272  -6.685  -5.570  0.00  0.00    -0.056 A 
HETATM   22  C           1     -21.242  -5.843  -4.459  0.00  0.00     0.007 A 
HETATM   23  C           1     -21.291  -6.382  -3.173  0.00  0.00     0.001 A 
HETATM   24  C           1     -21.370  -7.764  -3.000  0.00  0.00     0.000 A 
HETATM   25  C           1     -21.399  -8.606  -4.111  0.00  0.00     0.001 A 
HETATM   26  C           1     -21.350  -8.067  -5.397  0.00  0.00     0.007 A 
ENDBRANCH  20  21
ENDBRANCH  16  20
ENDBRANCH   3  16
TORSDOF 8
ENDMDL
MODEL 7
REMARK VINA RESULT:      -6.8     12.485     14.296
REMARK  8 active torsions:
REMARK  status: ('A' for Active; 'I' for Inactive)
REMARK    1  A    between atoms: N_2  and  C_18 
REMARK    2  A    between atoms: C_5  and  C_7 
REMARK    3  A    between atoms: C_7  and  C_8 
REMARK    4  A    between atoms: C_7  and  N_19 
REMARK    5  A    between atoms: C_8  and  C_9 
REMARK       I    between atoms: C_17  and  N_19 
REMARK    6  A    between atoms: C_17  and  C_18 
REMARK    7  A    between atoms: C_18  and  C_24 
REMARK    8  A    between atoms: C_24  and  C_25 
REMARK       I    between atoms: C_25  and  N_26 
ROOT
HETATM    1  O           1     -24.585  -4.444 -10.054  0.00  0.00    -0.271 OA
HETATM    2  C           1     -23.681  -3.840 -10.581  0.00  0.00     0.249 C 
HETATM    3  N           1     -22.789  -3.137  -9.816  0.00  0.00    -0.344 N 
HETATM    4  H           1     -22.970  -2.167  -9.592  0.00  0.00     0.163 HD
ENDROOT
BRANCH   2   5
HETATM    5  C           1     -23.536  -3.859 -12.083  0.00  0.00     0.283 C 
BRANCH   5   6
HETATM    6  N           1     -23.829  -5.239 -12.594  0.00  0.00    -0.066 N 
HETATM    7  H           1     -24.195  -5.178 -13.571  0.00  0.00     0.275 HD
HETATM    8  H           1     -22.951  -5.805 -12.587  0.00  0.00     0.275 HD
HETATM    9  H           1     -24.543  -5.693 -11.982  0.00  0.00     0.275 HD
ENDBRANCH   5   6
BRANCH   5  10
HETATM   10  C           1     -24.518  -2.872 -12.700  0.00  0.00     0.145 C 
BRANCH  10  11
HETATM   11  C           1     -23.960  -2.351 -14.001  0.00  0.00     0.217 C 
HETATM   12  O           1     -23.421  -3.109 -14.773  0.00  0.00    -0.274 OA
HETATM   13  N           1     -24.063  -1.021 -14.307  0.00  0.00    -0.370 N 
HETATM   14  H           1     -23.689  -0.673 -15.181  0.00  0.00     0.159 HD
HETATM   15  H           1     -24.515  -0.387 -13.661  0.00  0.00     0.159 HD
ENDBRANCH  10  11
ENDBRANCH   5  10
ENDBRANCH   2   5
BRANCH   3  16
HETATM   16  C           1     -21.587  -3.783  -9.326  0.00  0.00     0.189 C 
BRANCH  16  17
HETATM   17  C           1     -20.577  -3.878 -10.444  0.00  0.00     0.197 C 
HETATM   18  O           1     -19.944  -4.940 -10.624  0.00  0.00    -0.646 OA
HETATM   19  O           1     -20.375  -2.895 -11.189  0.00  0.00    -0.646 OA
ENDBRANCH  16  17
BRANCH  16  20
HETATM   20  C           1     -21.930  -5.183  -8.831  0.00  0.00     0.074 C 
BRANCH  20  21
HETATM   21  C           1     -21.416  -5.359  -7.436  0.00  0.00    -0.056 A 
HETATM   22  C           1     -20.675  -4.344  -6.833  0.00  0.00     0.007 A 
HETATM   23  C           1     -20.195  -4.508  -5.533  0.00  0.00     0.001 A 
HETATM   24  C           1     -20.457  -5.688  -4.838  0.00  0.00     0.000 A 
HETATM   25  C           1     -21.197  -6.704  -5.441  0.00  0.00     0.001 A 
HETATM   26  C           1     -21.677  -6.540  -6.741  0.00  0.00     0.007 A 
ENDBRANCH  20  21
ENDBRANCH  16  20
ENDBRANCH   3  16
TORSDOF 8
ENDMDL
MODEL 8
REMARK VINA RESULT:      -6.7     15.587     17.771
REMARK  8 active torsions:
REMARK  status: ('A' for Active; 'I' for Inactive)
REMARK    1  A    between atoms: N_2  and  C_18 
REMARK    2  A    between atoms: C_5  and  C_7 
REMARK    3  A    between atoms: C_7  and  C_8 
REMARK    4  A    between atoms: C_7  and  N_19 
REMARK    5  A    between atoms: C_8  and  C_9 
REMARK       I    between atoms: C_17  and  N_19 
REMARK    6  A    between atoms: C_17  and  C_18 
REMARK    7  A    between atoms: C_18  and  C_24 
REMARK    8  A    between atoms: C_24  and  C_25 
REMARK       I    between atoms: C_25  and  N_26 
ROOT
HETATM    1  O           1     -19.410  -6.491  -7.205  0.00  0.00    -0.271 OA
HETATM    2  C           1     -20.336  -6.588  -6.435  0.00  0.00     0.249 C 
HETATM    3  N           1     -20.693  -7.817  -5.947  0.00  0.00    -0.344 N 
HETATM    4  H           1     -21.375  -8.379  -6.441  0.00  0.00     0.163 HD
ENDROOT
BRANCH   2   5
HETATM    5  C           1     -21.099  -5.357  -6.013  0.00  0.00     0.283 C 
BRANCH   5   6
HETATM    6  N           1     -20.195  -4.459  -5.220  0.00  0.00    -0.066 N 
HETATM    7  H           1     -20.758  -3.937  -4.510  0.00  0.00     0.275 HD
HETATM    8  H           1     -19.472  -5.035  -4.734  0.00  0.00     0.275 HD
HETATM    9  H           1     -19.729  -3.779  -5.862  0.00  0.00     0.275 HD
ENDBRANCH   5   6
BRANCH   5  10
HETATM   10  C           1     -21.591  -4.616  -7.249  0.00  0.00     0.145 C 
BRANCH  10  11
HETATM   11  C           1     -23.096  -4.520  -7.213  0.00  0.00     0.217 C 
HETATM   12  O           1     -23.707  -4.962  -6.270  0.00  0.00    -0.274 OA
HETATM   13  N           1     -23.769  -3.930  -8.249  0.00  0.00    -0.370 N 
HETATM   14  H           1     -24.779  -3.865  -8.224  0.00  0.00     0.159 HD
HETATM   15  H           1     -23.257  -3.558  -9.038  0.00  0.00     0.159 HD
ENDBRANCH  10  11
ENDBRANCH   5  10
ENDBRANCH   2   5
BRANCH   3  16
HETATM   16  C           1     -20.095  -8.312  -4.723  0.00  0.00     0.189 C 
BRANCH  16  17
HETATM   17  C           1     -18.895  -9.163  -5.059  0.00  0.00     0.197 C 
HETATM   18  O           1     -18.021  -9.380  -4.192  0.00  0.00    -0.646 OA
HETATM   19  O           1     -18.775  -9.651  -6.204  0.00  0.00    -0.646 OA
ENDBRANCH  16  17
BRANCH  16  20
HETATM   20  C           1     -21.116  -9.151  -3.964  0.00  0.00     0.074 C 
BRANCH  20  21
HETATM   21  C           1     -21.561  -8.410  -2.741  0.00  0.00    -0.056 A 
HETATM   22  C           1     -21.796  -9.102  -1.554  0.00  0.00     0.007 A 
HETATM   23  C           1     -22.212  -8.412  -0.414  0.00  0.00     0.001 A 
HETATM   24  C           1     -22.391  -7.030  -0.464  0.00  0.00     0.000 A 
HETATM   25  C           1     -22.157  -6.337  -1.651  0.00  0.00     0.001 A 
HETATM   26  C           1     -21.742  -7.027  -2.791  0.00  0.00     0.007 A 
ENDBRANCH  20  21
ENDBRANCH  16  20
ENDBRANCH   3  16
TORSDOF 8
ENDMDL
MODEL 9
REMARK VINA RESULT:      -6.6     13.782     15.777
REMARK  8 active torsions:
REMARK  status: ('A' for Active; 'I' for Inactive)
REMARK    1  A    between atoms: N_2  and  C_18 
REMARK    2  A    between atoms: C_5  and  C_7 
REMARK    3  A    between atoms: C_7  and  C_8 
REMARK    4  A    between atoms: C_7  and  N_19 
REMARK    5  A    between atoms: C_8  and  C_9 
REMARK       I    between atoms: C_17  and  N_19 
REMARK    6  A    between atoms: C_17  and  C_18 
REMARK    7  A    between atoms: C_18  and  C_24 
REMARK    8  A    between atoms: C_24  and  C_25 
REMARK       I    between atoms: C_25  and  N_26 
ROOT
HETATM    1  O           1     -20.732  -4.036  -9.039  0.00  0.00    -0.271 OA
HETATM    2  C           1     -21.597  -4.785  -8.650  0.00  0.00     0.249 C 
HETATM    3  N           1     -21.263  -5.918  -7.958  0.00  0.00    -0.344 N 
HETATM    4  H           1     -21.091  -6.783  -8.455  0.00  0.00     0.163 HD
ENDROOT
BRANCH   2   5
HETATM    5  C           1     -23.047  -4.472  -8.929  0.00  0.00     0.283 C 
BRANCH   5   6
HETATM    6  N           1     -23.727  -4.078  -7.650  0.00  0.00    -0.066 N 
HETATM    7  H           1     -23.733  -4.892  -6.994  0.00  0.00     0.275 HD
HETATM    8  H           1     -23.209  -3.283  -7.212  0.00  0.00     0.275 HD
HETATM    9  H           1     -24.709  -3.787  -7.853  0.00  0.00     0.275 HD
ENDBRANCH   5   6
BRANCH   5  10
HETATM   10  C           1     -23.136  -3.322  -9.924  0.00  0.00     0.145 C 
BRANCH  10  11
HETATM   11  C           1     -24.507  -3.303 -10.551  0.00  0.00     0.217 C 
HETATM   12  O           1     -25.490  -3.221  -9.853  0.00  0.00    -0.274 OA
HETATM   13  N           1     -24.639  -3.378 -11.912  0.00  0.00    -0.370 N 
HETATM   14  H           1     -25.559  -3.365 -12.333  0.00  0.00     0.159 HD
HETATM   15  H           1     -23.816  -3.446 -12.497  0.00  0.00     0.159 HD
ENDBRANCH  10  11
ENDBRANCH   5  10
ENDBRANCH   2   5
BRANCH   3  16
HETATM   16  C           1     -21.154  -5.879  -6.513  0.00  0.00     0.189 C 
BRANCH  16  17
HETATM   17  C           1     -19.927  -5.090  -6.123  0.00  0.00     0.197 C 
HETATM   18  O           1     -18.853  -5.261  -6.739  0.00  0.00    -0.646 OA
HETATM   19  O           1     -19.986  -4.265  -5.185  0.00  0.00    -0.646 OA
ENDBRANCH  16  17
BRANCH  16  20
HETATM   20  C           1     -21.036  -7.299  -5.975  0.00  0.00     0.074 C 
BRANCH  20  21
HETATM   21  C           1     -21.161  -7.280  -4.482  0.00  0.00    -0.056 A 
HETATM   22  C           1     -20.363  -8.119  -3.705  0.00  0.00     0.007 A 
HETATM   23  C           1     -20.480  -8.102  -2.315  0.00  0.00     0.001 A 
HETATM   24  C           1     -21.395  -7.245  -1.703  0.00  0.00     0.000 A 
HETATM   25  C           1     -22.194  -6.407  -2.481  0.00  0.00     0.001 A 
HETATM   26  C           1     -22.077  -6.424  -3.871  0.00  0.00     0.007 A 
ENDBRANCH  20  21
ENDBRANCH  16  20
ENDBRANCH   3  16
TORSDOF 8
ENDMDL
