MODEL 1
REMARK VINA RESULT:      -6.5      0.000      0.000
REMARK  8 active torsions:
REMARK  status: ('A' for Active; 'I' for Inactive)
REMARK    1  A    between atoms: N_2  and  C_20 
REMARK       I    between atoms: C_11  and  N_23 
REMARK    2  A    between atoms: C_11  and  C_20 
REMARK    3  A    between atoms: C_12  and  C_13 
REMARK    4  A    between atoms: C_13  and  C_14 
REMARK    5  A    between atoms: C_13  and  N_23 
REMARK    6  A    between atoms: C_14  and  C_25 
REMARK       I    between atoms: N_15  and  C_25 
REMARK       I    between atoms: N_17  and  C_18 
REMARK    7  A    between atoms: C_18  and  C_19 
REMARK    8  A    between atoms: C_19  and  C_20 
ROOT
HETATM    1  O           1     -33.689  -2.267 -11.178  0.00  0.00    -0.271 OA
HETATM    2  H           1     -35.401  -1.885 -13.780  0.00  0.00     0.163 HD
HETATM    3  C           1     -34.250  -2.573 -12.204  0.00  0.00     0.249 C 
HETATM    4  N           1     -34.932  -1.628 -12.921  0.00  0.00    -0.344 N 
ENDROOT
BRANCH   3   5
HETATM    5  C           1     -34.197  -3.999 -12.695  0.00  0.00     0.283 C 
BRANCH   5   6
HETATM    6  N           1     -33.525  -4.041 -14.035  0.00  0.00    -0.066 N 
HETATM    7  H           1     -33.912  -3.286 -14.645  0.00  0.00     0.275 HD
HETATM    8  H           1     -32.497  -3.897 -13.913  0.00  0.00     0.275 HD
HETATM    9  H           1     -33.696  -4.970 -14.482  0.00  0.00     0.275 HD
ENDBRANCH   5   6
BRANCH   5  10
HETATM   10  C           1     -33.410  -4.850 -11.706  0.00  0.00     0.145 C 
BRANCH  10  11
HETATM   11  C           1     -34.284  -5.971 -11.200  0.00  0.00     0.217 C 
HETATM   12  O           1     -34.356  -6.195 -10.014  0.00  0.00    -0.274 OA
HETATM   13  N           1     -34.997  -6.735 -12.085  0.00  0.00    -0.370 N 
HETATM   14  H           1     -35.584  -7.486 -11.746  0.00  0.00     0.159 HD
HETATM   15  H           1     -34.938  -6.547 -13.077  0.00  0.00     0.159 HD
ENDBRANCH  10  11
ENDBRANCH   5  10
ENDBRANCH   3   5
BRANCH   4  16
HETATM   16  C           1     -34.983  -0.258 -12.448  0.00  0.00     0.194 C 
BRANCH  16  17
HETATM   17  C           1     -36.286  -0.022 -11.726  0.00  0.00     0.197 C 
HETATM   18  O           1     -37.346  -0.515 -12.171  0.00  0.00    -0.646 OA
HETATM   19  O           1     -36.308   0.668 -10.683  0.00  0.00    -0.646 OA
ENDBRANCH  16  17
BRANCH  16  20
HETATM   20  C           1     -34.879   0.692 -13.634  0.00  0.00     0.138 C 
BRANCH  20  21
HETATM   21  C           1     -35.627   0.112 -14.810  0.00  0.00     0.217 C 
HETATM   22  N           1     -36.924   0.478 -15.044  0.00  0.00    -0.370 N 
HETATM   23  H           1     -37.383   1.137 -14.429  0.00  0.00     0.159 HD
HETATM   24  H           1     -37.425   0.089 -15.834  0.00  0.00     0.159 HD
HETATM   25  O           1     -35.079  -0.674 -15.545  0.00  0.00    -0.274 OA
ENDBRANCH  20  21
ENDBRANCH  16  20
ENDBRANCH   4  16
TORSDOF 8
ENDMDL
MODEL 2
REMARK VINA RESULT:      -6.1      1.630      2.169
REMARK  8 active torsions:
REMARK  status: ('A' for Active; 'I' for Inactive)
REMARK    1  A    between atoms: N_2  and  C_20 
REMARK       I    between atoms: C_11  and  N_23 
REMARK    2  A    between atoms: C_11  and  C_20 
REMARK    3  A    between atoms: C_12  and  C_13 
REMARK    4  A    between atoms: C_13  and  C_14 
REMARK    5  A    between atoms: C_13  and  N_23 
REMARK    6  A    between atoms: C_14  and  C_25 
REMARK       I    between atoms: N_15  and  C_25 
REMARK       I    between atoms: N_17  and  C_18 
REMARK    7  A    between atoms: C_18  and  C_19 
REMARK    8  A    between atoms: C_19  and  C_20 
ROOT
HETATM    1  O           1     -33.660  -1.416 -10.908  0.00  0.00    -0.271 OA
HETATM    2  H           1     -36.621  -2.380 -11.293  0.00  0.00     0.163 HD
HETATM    3  C           1     -34.589  -2.187 -10.950  0.00  0.00     0.249 C 
HETATM    4  N           1     -35.843  -1.733 -11.258  0.00  0.00    -0.344 N 
ENDROOT
BRANCH   3   5
HETATM    5  C           1     -34.366  -3.652 -10.666  0.00  0.00     0.283 C 
BRANCH   5   6
HETATM    6  N           1     -35.687  -4.364 -10.648  0.00  0.00    -0.066 N 
HETATM    7  H           1     -35.702  -5.053  -9.863  0.00  0.00     0.275 HD
HETATM    8  H           1     -36.455  -3.668 -10.515  0.00  0.00     0.275 HD
HETATM    9  H           1     -35.824  -4.866 -11.554  0.00  0.00     0.275 HD
ENDBRANCH   5   6
BRANCH   5  10
HETATM   10  C           1     -33.481  -4.253 -11.751  0.00  0.00     0.145 C 
BRANCH  10  11
HETATM   11  C           1     -34.263  -4.356 -13.038  0.00  0.00     0.217 C 
HETATM   12  O           1     -35.017  -5.283 -13.215  0.00  0.00    -0.274 OA
HETATM   13  N           1     -34.119  -3.396 -14.004  0.00  0.00    -0.370 N 
HETATM   14  H           1     -34.643  -3.464 -14.866  0.00  0.00     0.159 HD
HETATM   15  H           1     -33.488  -2.619 -13.855  0.00  0.00     0.159 HD
ENDBRANCH  10  11
ENDBRANCH   5  10
ENDBRANCH   3   5
BRANCH   4  16
HETATM   16  C           1     -36.057  -0.325 -11.531  0.00  0.00     0.194 C 
BRANCH  16  17
HETATM   17  C           1     -36.867   0.287 -10.415  0.00  0.00     0.197 C 
HETATM   18  O           1     -38.075   0.557 -10.595  0.00  0.00    -0.646 OA
HETATM   19  O           1     -36.332   0.525  -9.311  0.00  0.00    -0.646 OA
ENDBRANCH  16  17
BRANCH  16  20
HETATM   20  C           1     -36.807  -0.173 -12.847  0.00  0.00     0.138 C 
BRANCH  20  21
HETATM   21  C           1     -35.829   0.149 -13.950  0.00  0.00     0.217 C 
HETATM   22  N           1     -36.196   0.989 -14.966  0.00  0.00    -0.370 N 
HETATM   23  H           1     -37.123   1.395 -14.978  0.00  0.00     0.159 HD
HETATM   24  H           1     -35.540   1.205 -15.707  0.00  0.00     0.159 HD
HETATM   25  O           1     -34.723  -0.335 -13.936  0.00  0.00    -0.274 OA
ENDBRANCH  20  21
ENDBRANCH  16  20
ENDBRANCH   4  16
TORSDOF 8
ENDMDL
MODEL 3
REMARK VINA RESULT:      -5.5     13.050     15.590
REMARK  8 active torsions:
REMARK  status: ('A' for Active; 'I' for Inactive)
REMARK    1  A    between atoms: N_2  and  C_20 
REMARK       I    between atoms: C_11  and  N_23 
REMARK    2  A    between atoms: C_11  and  C_20 
REMARK    3  A    between atoms: C_12  and  C_13 
REMARK    4  A    between atoms: C_13  and  C_14 
REMARK    5  A    between atoms: C_13  and  N_23 
REMARK    6  A    between atoms: C_14  and  C_25 
REMARK       I    between atoms: N_15  and  C_25 
REMARK       I    between atoms: N_17  and  C_18 
REMARK    7  A    between atoms: C_18  and  C_19 
REMARK    8  A    between atoms: C_19  and  C_20 
ROOT
HETATM    1  O           1     -21.934  -3.348  -7.356  0.00  0.00    -0.271 OA
HETATM    2  H           1     -22.621  -6.382  -7.763  0.00  0.00     0.163 HD
HETATM    3  C           1     -22.395  -4.329  -7.890  0.00  0.00     0.249 C 
HETATM    4  N           1     -22.235  -5.561  -7.315  0.00  0.00    -0.344 N 
ENDROOT
BRANCH   3   5
HETATM    5  C           1     -23.147  -4.196  -9.192  0.00  0.00     0.283 C 
BRANCH   5   6
HETATM    6  N           1     -24.349  -3.322  -8.986  0.00  0.00    -0.066 N 
HETATM    7  H           1     -25.049  -3.508  -9.740  0.00  0.00     0.275 HD
HETATM    8  H           1     -24.777  -3.532  -8.056  0.00  0.00     0.275 HD
HETATM    9  H           1     -24.060  -2.319  -9.020  0.00  0.00     0.275 HD
ENDBRANCH   5   6
BRANCH   5  10
HETATM   10  C           1     -22.239  -3.569 -10.243  0.00  0.00     0.145 C 
BRANCH  10  11
HETATM   11  C           1     -22.581  -4.130 -11.601  0.00  0.00     0.217 C 
HETATM   12  O           1     -23.531  -4.866 -11.731  0.00  0.00    -0.274 OA
HETATM   13  N           1     -21.814  -3.804 -12.688  0.00  0.00    -0.370 N 
HETATM   14  H           1     -22.043  -4.180 -13.600  0.00  0.00     0.159 HD
HETATM   15  H           1     -21.020  -3.188 -12.580  0.00  0.00     0.159 HD
ENDBRANCH  10  11
ENDBRANCH   5  10
ENDBRANCH   3   5
BRANCH   4  16
HETATM   16  C           1     -21.511  -5.689  -6.065  0.00  0.00     0.194 C 
BRANCH  16  17
HETATM   17  C           1     -20.035  -5.805  -6.348  0.00  0.00     0.197 C 
HETATM   18  O           1     -19.287  -4.816  -6.189  0.00  0.00    -0.646 OA
HETATM   19  O           1     -19.557  -6.892  -6.744  0.00  0.00    -0.646 OA
ENDBRANCH  16  17
BRANCH  16  20
HETATM   20  C           1     -21.988  -6.933  -5.329  0.00  0.00     0.138 C 
BRANCH  20  21
HETATM   21  C           1     -21.583  -6.847  -3.878  0.00  0.00     0.217 C 
HETATM   22  N           1     -20.724  -7.773  -3.351  0.00  0.00    -0.370 N 
HETATM   23  H           1     -20.360  -8.515  -3.934  0.00  0.00     0.159 HD
HETATM   24  H           1     -20.452  -7.715  -2.377  0.00  0.00     0.159 HD
HETATM   25  O           1     -22.017  -5.961  -3.182  0.00  0.00    -0.274 OA
ENDBRANCH  20  21
ENDBRANCH  16  20
ENDBRANCH   4  16
TORSDOF 8
ENDMDL
MODEL 4
REMARK VINA RESULT:      -5.5     14.264     16.839
REMARK  8 active torsions:
REMARK  status: ('A' for Active; 'I' for Inactive)
REMARK    1  A    between atoms: N_2  and  C_20 
REMARK       I    between atoms: C_11  and  N_23 
REMARK    2  A    between atoms: C_11  and  C_20 
REMARK    3  A    between atoms: C_12  and  C_13 
REMARK    4  A    between atoms: C_13  and  C_14 
REMARK    5  A    between atoms: C_13  and  N_23 
REMARK    6  A    between atoms: C_14  and  C_25 
REMARK       I    between atoms: N_15  and  C_25 
REMARK       I    between atoms: N_17  and  C_18 
REMARK    7  A    between atoms: C_18  and  C_19 
REMARK    8  A    between atoms: C_19  and  C_20 
ROOT
HETATM    1  O           1     -22.938  -5.986  -5.472  0.00  0.00    -0.271 OA
HETATM    2  H           1     -19.919  -6.344  -4.693  0.00  0.00     0.163 HD
HETATM    3  C           1     -21.746  -5.795  -5.498  0.00  0.00     0.249 C 
HETATM    4  N           1     -20.918  -6.505  -4.670  0.00  0.00    -0.344 N 
ENDROOT
BRANCH   3   5
HETATM    5  C           1     -21.167  -4.772  -6.445  0.00  0.00     0.283 C 
BRANCH   5   6
HETATM    6  N           1     -19.681  -4.700  -6.256  0.00  0.00    -0.066 N 
HETATM    7  H           1     -19.451  -3.937  -5.580  0.00  0.00     0.275 HD
HETATM    8  H           1     -19.334  -5.612  -5.882  0.00  0.00     0.275 HD
HETATM    9  H           1     -19.222  -4.502  -7.173  0.00  0.00     0.275 HD
ENDBRANCH   5   6
BRANCH   5  10
HETATM   10  C           1     -21.477  -5.176  -7.881  0.00  0.00     0.145 C 
BRANCH  10  11
HETATM   11  C           1     -22.494  -4.224  -8.463  0.00  0.00     0.217 C 
HETATM   12  O           1     -22.221  -3.572  -9.443  0.00  0.00    -0.274 OA
HETATM   13  N           1     -23.726  -4.100  -7.880  0.00  0.00    -0.370 N 
HETATM   14  H           1     -24.409  -3.463  -8.270  0.00  0.00     0.159 HD
HETATM   15  H           1     -23.955  -4.647  -7.060  0.00  0.00     0.159 HD
ENDBRANCH  10  11
ENDBRANCH   5  10
ENDBRANCH   3   5
BRANCH   4  16
HETATM   16  C           1     -21.475  -7.487  -3.760  0.00  0.00     0.194 C 
BRANCH  16  17
HETATM   17  C           1     -21.567  -6.895  -2.375  0.00  0.00     0.197 C 
HETATM   18  O           1     -20.918  -7.401  -1.434  0.00  0.00    -0.646 OA
HETATM   19  O           1     -22.293  -5.899  -2.168  0.00  0.00    -0.646 OA
ENDBRANCH  16  17
BRANCH  16  20
HETATM   20  C           1     -20.575  -8.715  -3.729  0.00  0.00     0.138 C 
BRANCH  20  21
HETATM   21  C           1     -20.260  -9.146  -5.140  0.00  0.00     0.217 C 
HETATM   22  N           1     -18.961  -9.346  -5.521  0.00  0.00    -0.370 N 
HETATM   23  H           1     -18.212  -9.206  -4.856  0.00  0.00     0.159 HD
HETATM   24  H           1     -18.750  -9.635  -6.469  0.00  0.00     0.159 HD
HETATM   25  O           1     -21.155  -9.313  -5.934  0.00  0.00    -0.274 OA
ENDBRANCH  20  21
ENDBRANCH  16  20
ENDBRANCH   4  16
TORSDOF 8
ENDMDL
MODEL 5
REMARK VINA RESULT:      -5.4     14.560     16.415
REMARK  8 active torsions:
REMARK  status: ('A' for Active; 'I' for Inactive)
REMARK    1  A    between atoms: N_2  and  C_20 
REMARK       I    between atoms: C_11  and  N_23 
REMARK    2  A    between atoms: C_11  and  C_20 
REMARK    3  A    between atoms: C_12  and  C_13 
REMARK    4  A    between atoms: C_13  and  C_14 
REMARK    5  A    between atoms: C_13  and  N_23 
REMARK    6  A    between atoms: C_14  and  C_25 
REMARK       I    between atoms: N_15  and  C_25 
REMARK       I    between atoms: N_17  and  C_18 
REMARK    7  A    between atoms: C_18  and  C_19 
REMARK    8  A    between atoms: C_19  and  C_20 
ROOT
HETATM    1  O           1     -21.934  -7.539  -5.095  0.00  0.00    -0.271 OA
HETATM    2  H           1     -20.613  -4.773  -4.423  0.00  0.00     0.163 HD
HETATM    3  C           1     -21.463  -6.661  -4.412  0.00  0.00     0.249 C 
HETATM    4  N           1     -21.007  -5.509  -4.995  0.00  0.00    -0.344 N 
ENDROOT
BRANCH   3   5
HETATM    5  C           1     -21.380  -6.832  -2.915  0.00  0.00     0.283 C 
BRANCH   5   6
HETATM    6  N           1     -22.414  -5.969  -2.256  0.00  0.00    -0.066 N 
HETATM    7  H           1     -22.505  -6.238  -1.250  0.00  0.00     0.275 HD
HETATM    8  H           1     -22.126  -4.967  -2.323  0.00  0.00     0.275 HD
HETATM    9  H           1     -23.334  -6.100  -2.734  0.00  0.00     0.275 HD
ENDBRANCH   5   6
BRANCH   5  10
HETATM   10  C           1     -21.633  -8.291  -2.555  0.00  0.00     0.145 C 
BRANCH  10  11
HETATM   11  C           1     -21.739  -8.428  -1.056  0.00  0.00     0.217 C 
HETATM   12  O           1     -20.929  -7.888  -0.340  0.00  0.00    -0.274 OA
HETATM   13  N           1     -22.755  -9.163  -0.506  0.00  0.00    -0.370 N 
HETATM   14  H           1     -22.827  -9.255   0.499  0.00  0.00     0.159 HD
HETATM   15  H           1     -23.434  -9.614  -1.105  0.00  0.00     0.159 HD
ENDBRANCH  10  11
ENDBRANCH   5  10
ENDBRANCH   3   5
BRANCH   4  16
HETATM   16  C           1     -21.087  -5.345  -6.434  0.00  0.00     0.194 C 
BRANCH  16  17
HETATM   17  C           1     -19.736  -5.620  -7.047  0.00  0.00     0.197 C 
HETATM   18  O           1     -19.346  -6.798  -7.198  0.00  0.00    -0.646 OA
HETATM   19  O           1     -19.006  -4.669  -7.404  0.00  0.00    -0.646 OA
ENDBRANCH  16  17
BRANCH  16  20
HETATM   20  C           1     -21.512  -3.919  -6.758  0.00  0.00     0.138 C 
BRANCH  20  21
HETATM   21  C           1     -22.421  -3.926  -7.962  0.00  0.00     0.217 C 
HETATM   22  N           1     -23.763  -4.140  -7.805  0.00  0.00    -0.370 N 
HETATM   23  H           1     -24.146  -4.294  -6.882  0.00  0.00     0.159 HD
HETATM   24  H           1     -24.373  -4.145  -8.613  0.00  0.00     0.159 HD
HETATM   25  O           1     -21.964  -3.742  -9.065  0.00  0.00    -0.274 OA
ENDBRANCH  20  21
ENDBRANCH  16  20
ENDBRANCH   4  16
TORSDOF 8
ENDMDL
MODEL 6
REMARK VINA RESULT:      -5.4     14.217     16.833
REMARK  8 active torsions:
REMARK  status: ('A' for Active; 'I' for Inactive)
REMARK    1  A    between atoms: N_2  and  C_20 
REMARK       I    between atoms: C_11  and  N_23 
REMARK    2  A    between atoms: C_11  and  C_20 
REMARK    3  A    between atoms: C_12  and  C_13 
REMARK    4  A    between atoms: C_13  and  C_14 
REMARK    5  A    between atoms: C_13  and  N_23 
REMARK    6  A    between atoms: C_14  and  C_25 
REMARK       I    between atoms: N_15  and  C_25 
REMARK       I    between atoms: N_17  and  C_18 
REMARK    7  A    between atoms: C_18  and  C_19 
REMARK    8  A    between atoms: C_19  and  C_20 
ROOT
HETATM    1  O           1     -20.050  -4.360  -5.206  0.00  0.00    -0.271 OA
HETATM    2  H           1     -21.420  -6.708  -6.771  0.00  0.00     0.163 HD
HETATM    3  C           1     -20.607  -4.920  -6.119  0.00  0.00     0.249 C 
HETATM    4  N           1     -20.953  -6.240  -6.006  0.00  0.00    -0.344 N 
ENDROOT
BRANCH   3   5
HETATM    5  C           1     -20.924  -4.164  -7.386  0.00  0.00     0.283 C 
BRANCH   5   6
HETATM    6  N           1     -19.673  -4.003  -8.198  0.00  0.00    -0.066 N 
HETATM    7  H           1     -18.928  -3.565  -7.610  0.00  0.00     0.275 HD
HETATM    8  H           1     -19.349  -4.941  -8.527  0.00  0.00     0.275 HD
HETATM    9  H           1     -19.868  -3.393  -9.023  0.00  0.00     0.275 HD
ENDBRANCH   5   6
BRANCH   5  10
HETATM   10  C           1     -21.957  -4.938  -8.196  0.00  0.00     0.145 C 
BRANCH  10  11
HETATM   11  C           1     -22.808  -3.970  -8.982  0.00  0.00     0.217 C 
HETATM   12  O           1     -22.351  -3.409  -9.949  0.00  0.00    -0.274 OA
HETATM   13  N           1     -24.100  -3.728  -8.597  0.00  0.00    -0.370 N 
HETATM   14  H           1     -24.671  -3.080  -9.124  0.00  0.00     0.159 HD
HETATM   15  H           1     -24.483  -4.198  -7.788  0.00  0.00     0.159 HD
ENDBRANCH  10  11
ENDBRANCH   5  10
ENDBRANCH   3   5
BRANCH   4  16
HETATM   16  C           1     -20.648  -6.966  -4.788  0.00  0.00     0.194 C 
BRANCH  16  17
HETATM   17  C           1     -20.039  -8.301  -5.137  0.00  0.00     0.197 C 
HETATM   18  O           1     -19.199  -8.383  -6.060  0.00  0.00    -0.646 OA
HETATM   19  O           1     -20.375  -9.326  -4.505  0.00  0.00    -0.646 OA
ENDBRANCH  16  17
BRANCH  16  20
HETATM   20  C           1     -21.929  -7.184  -3.994  0.00  0.00     0.138 C 
BRANCH  20  21
HETATM   21  C           1     -21.698  -6.806  -2.551  0.00  0.00     0.217 C 
HETATM   22  N           1     -20.885  -7.575  -1.764  0.00  0.00    -0.370 N 
HETATM   23  H           1     -20.439  -8.397  -2.149  0.00  0.00     0.159 HD
HETATM   24  H           1     -20.730  -7.321  -0.796  0.00  0.00     0.159 HD
HETATM   25  O           1     -22.231  -5.824  -2.092  0.00  0.00    -0.274 OA
ENDBRANCH  20  21
ENDBRANCH  16  20
ENDBRANCH   4  16
TORSDOF 8
ENDMDL
MODEL 7
REMARK VINA RESULT:      -5.1     16.254     18.298
REMARK  8 active torsions:
REMARK  status: ('A' for Active; 'I' for Inactive)
REMARK    1  A    between atoms: N_2  and  C_20 
REMARK       I    between atoms: C_11  and  N_23 
REMARK    2  A    between atoms: C_11  and  C_20 
REMARK    3  A    between atoms: C_12  and  C_13 
REMARK    4  A    between atoms: C_13  and  C_14 
REMARK    5  A    between atoms: C_13  and  N_23 
REMARK    6  A    between atoms: C_14  and  C_25 
REMARK       I    between atoms: N_15  and  C_25 
REMARK       I    between atoms: N_17  and  C_18 
REMARK    7  A    between atoms: C_18  and  C_19 
REMARK    8  A    between atoms: C_19  and  C_20 
ROOT
HETATM    1  O           1     -19.732  -8.508  -3.524  0.00  0.00    -0.271 OA
HETATM    2  H           1     -22.761  -8.363  -2.715  0.00  0.00     0.163 HD
HETATM    3  C           1     -20.903  -8.227  -3.619  0.00  0.00     0.249 C 
HETATM    4  N           1     -21.780  -8.599  -2.635  0.00  0.00    -0.344 N 
ENDROOT
BRANCH   3   5
HETATM    5  C           1     -21.400  -7.463  -4.822  0.00  0.00     0.283 C 
BRANCH   5   6
HETATM    6  N           1     -22.205  -6.283  -4.366  0.00  0.00    -0.066 N 
HETATM    7  H           1     -21.923  -6.020  -3.395  0.00  0.00     0.275 HD
HETATM    8  H           1     -22.034  -5.476  -5.008  0.00  0.00     0.275 HD
HETATM    9  H           1     -23.221  -6.528  -4.378  0.00  0.00     0.275 HD
ENDBRANCH   5   6
BRANCH   5  10
HETATM   10  C           1     -20.212  -6.980  -5.644  0.00  0.00     0.145 C 
BRANCH  10  11
HETATM   11  C           1     -20.552  -5.659  -6.290  0.00  0.00     0.217 C 
HETATM   12  O           1     -20.333  -4.624  -5.706  0.00  0.00    -0.274 OA
HETATM   13  N           1     -21.109  -5.633  -7.541  0.00  0.00    -0.370 N 
HETATM   14  H           1     -21.337  -4.748  -7.976  0.00  0.00     0.159 HD
HETATM   15  H           1     -21.291  -6.499  -8.032  0.00  0.00     0.159 HD
ENDBRANCH  10  11
ENDBRANCH   5  10
ENDBRANCH   3   5
BRANCH   4  16
HETATM   16  C           1     -21.302  -9.333  -1.479  0.00  0.00     0.194 C 
BRANCH  16  17
HETATM   17  C           1     -22.239 -10.479  -1.188  0.00  0.00     0.197 C 
HETATM   18  O           1     -22.976 -10.930  -2.092  0.00  0.00    -0.646 OA
HETATM   19  O           1     -22.281 -10.977  -0.042  0.00  0.00    -0.646 OA
ENDBRANCH  16  17
BRANCH  16  20
HETATM   20  C           1     -21.247  -8.403  -0.275  0.00  0.00     0.138 C 
BRANCH  20  21
HETATM   21  C           1     -22.525  -7.604  -0.196  0.00  0.00     0.217 C 
HETATM   22  N           1     -23.532  -8.005   0.638  0.00  0.00    -0.370 N 
HETATM   23  H           1     -23.421  -8.838   1.202  0.00  0.00     0.159 HD
HETATM   24  H           1     -24.390  -7.470   0.691  0.00  0.00     0.159 HD
HETATM   25  O           1     -22.658  -6.610  -0.869  0.00  0.00    -0.274 OA
ENDBRANCH  20  21
ENDBRANCH  16  20
ENDBRANCH   4  16
TORSDOF 8
ENDMDL
MODEL 8
REMARK VINA RESULT:      -4.8     17.056     18.593
REMARK  8 active torsions:
REMARK  status: ('A' for Active; 'I' for Inactive)
REMARK    1  A    between atoms: N_2  and  C_20 
REMARK       I    between atoms: C_11  and  N_23 
REMARK    2  A    between atoms: C_11  and  C_20 
REMARK    3  A    between atoms: C_12  and  C_13 
REMARK    4  A    between atoms: C_13  and  C_14 
REMARK    5  A    between atoms: C_13  and  N_23 
REMARK    6  A    between atoms: C_14  and  C_25 
REMARK       I    between atoms: N_15  and  C_25 
REMARK       I    between atoms: N_17  and  C_18 
REMARK    7  A    between atoms: C_18  and  C_19 
REMARK    8  A    between atoms: C_19  and  C_20 
ROOT
HETATM    1  O           1     -22.079 -10.682  -2.978  0.00  0.00    -0.271 OA
HETATM    2  H           1     -19.971  -8.357  -2.982  0.00  0.00     0.163 HD
HETATM    3  C           1     -21.418  -9.771  -2.540  0.00  0.00     0.249 C 
HETATM    4  N           1     -20.525  -9.120  -3.349  0.00  0.00    -0.344 N 
ENDROOT
BRANCH   3   5
HETATM    5  C           1     -21.576  -9.348  -1.100  0.00  0.00     0.283 C 
BRANCH   5   6
HETATM    6  N           1     -20.753 -10.244  -0.223  0.00  0.00    -0.066 N 
HETATM    7  H           1     -20.922 -11.241  -0.486  0.00  0.00     0.275 HD
HETATM    8  H           1     -19.741 -10.018  -0.348  0.00  0.00     0.275 HD
HETATM    9  H           1     -21.022 -10.097   0.776  0.00  0.00     0.275 HD
ENDBRANCH   5   6
BRANCH   5  10
HETATM   10  C           1     -21.105  -7.908  -0.938  0.00  0.00     0.145 C 
BRANCH  10  11
HETATM   11  C           1     -22.295  -6.981  -0.992  0.00  0.00     0.217 C 
HETATM   12  O           1     -23.222  -7.140  -0.234  0.00  0.00    -0.274 OA
HETATM   13  N           1     -22.323  -5.958  -1.902  0.00  0.00    -0.370 N 
HETATM   14  H           1     -23.120  -5.335  -1.939  0.00  0.00     0.159 HD
HETATM   15  H           1     -21.546  -5.823  -2.536  0.00  0.00     0.159 HD
ENDBRANCH  10  11
ENDBRANCH   5  10
ENDBRANCH   3   5
BRANCH   4  16
HETATM   16  C           1     -20.372  -9.527  -4.733  0.00  0.00     0.194 C 
BRANCH  16  17
HETATM   17  C           1     -18.914  -9.474  -5.115  0.00  0.00     0.197 C 
HETATM   18  O           1     -18.575  -9.608  -6.312  0.00  0.00    -0.646 OA
HETATM   19  O           1     -18.043  -9.296  -4.236  0.00  0.00    -0.646 OA
ENDBRANCH  16  17
BRANCH  16  20
HETATM   20  C           1     -21.167  -8.586  -5.628  0.00  0.00     0.138 C 
BRANCH  20  21
HETATM   21  C           1     -20.641  -7.180  -5.476  0.00  0.00     0.217 C 
HETATM   22  N           1     -19.922  -6.605  -6.488  0.00  0.00    -0.370 N 
HETATM   23  H           1     -19.742  -7.123  -7.339  0.00  0.00     0.159 HD
HETATM   24  H           1     -19.569  -5.662  -6.385  0.00  0.00     0.159 HD
HETATM   25  O           1     -20.856  -6.562  -4.460  0.00  0.00    -0.274 OA
ENDBRANCH  20  21
ENDBRANCH  16  20
ENDBRANCH   4  16
TORSDOF 8
ENDMDL
MODEL 9
REMARK VINA RESULT:      -4.8     16.526     18.824
REMARK  8 active torsions:
REMARK  status: ('A' for Active; 'I' for Inactive)
REMARK    1  A    between atoms: N_2  and  C_20 
REMARK       I    between atoms: C_11  and  N_23 
REMARK    2  A    between atoms: C_11  and  C_20 
REMARK    3  A    between atoms: C_12  and  C_13 
REMARK    4  A    between atoms: C_13  and  C_14 
REMARK    5  A    between atoms: C_13  and  N_23 
REMARK    6  A    between atoms: C_14  and  C_25 
REMARK       I    between atoms: N_15  and  C_25 
REMARK       I    between atoms: N_17  and  C_18 
REMARK    7  A    between atoms: C_18  and  C_19 
REMARK    8  A    between atoms: C_19  and  C_20 
ROOT
HETATM    1  O           1     -22.166  -6.725  -1.606  0.00  0.00    -0.271 OA
HETATM    2  H           1     -21.393  -9.727  -2.097  0.00  0.00     0.163 HD
HETATM    3  C           1     -21.697  -7.680  -2.177  0.00  0.00     0.249 C 
HETATM    4  N           1     -21.786  -8.927  -1.618  0.00  0.00    -0.344 N 
ENDROOT
BRANCH   3   5
HETATM    5  C           1     -21.012  -7.500  -3.510  0.00  0.00     0.283 C 
BRANCH   5   6
HETATM    6  N           1     -20.978  -8.812  -4.236  0.00  0.00    -0.066 N 
HETATM    7  H           1     -20.092  -9.316  -4.007  0.00  0.00     0.275 HD
HETATM    8  H           1     -21.794  -9.394  -3.941  0.00  0.00     0.275 HD
HETATM    9  H           1     -21.025  -8.642  -5.265  0.00  0.00     0.275 HD
ENDBRANCH   5   6
BRANCH   5  10
HETATM   10  C           1     -21.779  -6.480  -4.342  0.00  0.00     0.145 C 
BRANCH  10  11
HETATM   11  C           1     -20.972  -6.120  -5.566  0.00  0.00     0.217 C 
HETATM   12  O           1     -20.883  -6.902  -6.483  0.00  0.00    -0.274 OA
HETATM   13  N           1     -20.341  -4.907  -5.636  0.00  0.00    -0.370 N 
HETATM   14  H           1     -19.800  -4.665  -6.456  0.00  0.00     0.159 HD
HETATM   15  H           1     -20.416  -4.253  -4.869  0.00  0.00     0.159 HD
ENDBRANCH  10  11
ENDBRANCH   5  10
ENDBRANCH   3   5
BRANCH   4  16
HETATM   16  C           1     -22.444  -9.099  -0.336  0.00  0.00     0.194 C 
BRANCH  16  17
HETATM   17  C           1     -21.404  -9.262   0.745  0.00  0.00     0.197 C 
HETATM   18  O           1     -21.111  -8.296   1.482  0.00  0.00    -0.646 OA
HETATM   19  O           1     -20.834 -10.364   0.903  0.00  0.00    -0.646 OA
ENDBRANCH  16  17
BRANCH  16  20
HETATM   20  C           1     -23.327 -10.339  -0.384  0.00  0.00     0.138 C 
BRANCH  20  21
HETATM   21  C           1     -22.870 -11.242  -1.503  0.00  0.00     0.217 C 
HETATM   22  N           1     -21.991 -12.258  -1.247  0.00  0.00    -0.370 N 
HETATM   23  H           1     -21.647 -12.405  -0.306  0.00  0.00     0.159 HD
HETATM   24  H           1     -21.684 -12.864  -1.998  0.00  0.00     0.159 HD
HETATM   25  O           1     -23.280 -11.067  -2.625  0.00  0.00    -0.274 OA
ENDBRANCH  20  21
ENDBRANCH  16  20
ENDBRANCH   4  16
TORSDOF 8
ENDMDL
