MODEL 1
REMARK VINA RESULT:      -6.1      0.000      0.000
REMARK  8 active torsions:
REMARK  status: ('A' for Active; 'I' for Inactive)
REMARK    1  A    between atoms: C_2  and  C_4 
REMARK    2  A    between atoms: C_4  and  C_5 
REMARK    3  A    between atoms: C_4  and  N_12 
REMARK    4  A    between atoms: C_5  and  C_18 
REMARK    5  A    between atoms: N_7  and  C_10 
REMARK    6  A    between atoms: Se_8  and  C_9 
REMARK    7  A    between atoms: C_9  and  C_10 
REMARK    8  A    between atoms: C_10  and  C_11 
REMARK       I    between atoms: C_11  and  N_12 
ROOT
HETATM    1  O           1     -21.162  -3.831 -12.415  0.00  0.00    -0.271 OA
HETATM    2  C           1     -22.342  -4.033 -12.256  0.00  0.00     0.249 C 
HETATM    3  N           1     -22.758  -5.006 -11.388  0.00  0.00    -0.344 N 
HETATM    4  H           1     -22.899  -5.953 -11.718  0.00  0.00     0.163 HD
ENDROOT
BRANCH   3   5
HETATM    5  C           1     -22.999  -4.681  -9.995  0.00  0.00     0.189 C 
BRANCH   5   6
HETATM    6  C           1     -24.408  -4.167  -9.836  0.00  0.00     0.197 C 
HETATM    7  O           1     -24.626  -2.936  -9.801  0.00  0.00    -0.646 OA
HETATM    8  O           1     -25.360  -4.972  -9.737  0.00  0.00    -0.646 OA
ENDBRANCH   5   6
BRANCH   5   9
HETATM    9  C           1     -22.014  -3.610  -9.547  0.00  0.00     0.074 C 
BRANCH   9  10
HETATM   10  C           1     -21.250  -4.100  -8.357  0.00  0.00    -0.056 A 
HETATM   11  C           1     -19.855  -4.100  -8.375  0.00  0.00     0.007 A 
HETATM   12  C           1     -19.144  -4.556  -7.265  0.00  0.00     0.001 A 
HETATM   13  C           1     -19.826  -5.012  -6.137  0.00  0.00     0.000 A 
HETATM   14  C           1     -21.221  -5.011  -6.120  0.00  0.00     0.001 A 
HETATM   15  C           1     -21.933  -4.555  -7.229  0.00  0.00     0.007 A 
ENDBRANCH   9  10
ENDBRANCH   5   9
ENDBRANCH   3   5
BRANCH   2  16
HETATM   16  C           1     -23.357  -3.214 -13.016  0.00  0.00     0.274 C 
BRANCH  16  17
HETATM   17  N           1     -23.530  -1.885 -12.341  0.00  0.00    -0.067 N 
HETATM   18  H           1     -22.621  -1.587 -11.919  0.00  0.00     0.275 HD
HETATM   19  H           1     -23.836  -1.175 -13.043  0.00  0.00     0.275 HD
HETATM   20  H           1     -24.252  -1.968 -11.590  0.00  0.00     0.275 HD
ENDBRANCH  16  17
BRANCH  16  21
HETATM   21  C           1     -22.872  -2.999 -14.442  0.00  0.00     0.045 C 
BRANCH  21  22
HETATM   22 Se           1     -23.428  -1.236 -15.060  0.00  0.00     0.000 Se
HETATM   23  H           1     -23.640  -0.700 -13.706  0.00  0.00     0.000 HD
ENDBRANCH  21  22
ENDBRANCH  16  21
ENDBRANCH   2  16
TORSDOF 8
ENDMDL
MODEL 2
REMARK VINA RESULT:      -6.0      5.099      7.375
REMARK  8 active torsions:
REMARK  status: ('A' for Active; 'I' for Inactive)
REMARK    1  A    between atoms: C_2  and  C_4 
REMARK    2  A    between atoms: C_4  and  C_5 
REMARK    3  A    between atoms: C_4  and  N_12 
REMARK    4  A    between atoms: C_5  and  C_18 
REMARK    5  A    between atoms: N_7  and  C_10 
REMARK    6  A    between atoms: Se_8  and  C_9 
REMARK    7  A    between atoms: C_9  and  C_10 
REMARK    8  A    between atoms: C_10  and  C_11 
REMARK       I    between atoms: C_11  and  N_12 
ROOT
HETATM    1  O           1     -20.856  -5.847  -3.961  0.00  0.00    -0.271 OA
HETATM    2  C           1     -21.604  -6.374  -4.750  0.00  0.00     0.249 C 
HETATM    3  N           1     -22.213  -5.624  -5.720  0.00  0.00    -0.344 N 
HETATM    4  H           1     -23.113  -5.197  -5.539  0.00  0.00     0.163 HD
ENDROOT
BRANCH   3   5
HETATM    5  C           1     -21.570  -5.443  -7.007  0.00  0.00     0.189 C 
BRANCH   5   6
HETATM    6  C           1     -20.074  -5.531  -6.837  0.00  0.00     0.197 C 
HETATM    7  O           1     -19.423  -4.521  -6.490  0.00  0.00    -0.646 OA
HETATM    8  O           1     -19.483  -6.612  -7.045  0.00  0.00    -0.646 OA
ENDBRANCH   5   6
BRANCH   5   9
HETATM    9  C           1     -21.939  -4.078  -7.570  0.00  0.00     0.074 C 
BRANCH   9  10
HETATM   10  C           1     -22.068  -4.169  -9.059  0.00  0.00    -0.056 A 
HETATM   11  C           1     -23.300  -4.478  -9.635  0.00  0.00     0.007 A 
HETATM   12  C           1     -23.419  -4.563 -11.022  0.00  0.00     0.001 A 
HETATM   13  C           1     -22.307  -4.338 -11.834  0.00  0.00     0.000 A 
HETATM   14  C           1     -21.075  -4.028 -11.257  0.00  0.00     0.001 A 
HETATM   15  C           1     -20.955  -3.943  -9.870  0.00  0.00     0.007 A 
ENDBRANCH   9  10
ENDBRANCH   5   9
ENDBRANCH   3   5
BRANCH   2  16
HETATM   16  C           1     -21.867  -7.857  -4.665  0.00  0.00     0.274 C 
BRANCH  16  17
HETATM   17  N           1     -21.087  -8.563  -5.735  0.00  0.00    -0.067 N 
HETATM   18  H           1     -20.087  -8.644  -5.442  0.00  0.00     0.275 HD
HETATM   19  H           1     -21.484  -9.519  -5.882  0.00  0.00     0.275 HD
HETATM   20  H           1     -21.147  -8.019  -6.625  0.00  0.00     0.275 HD
ENDBRANCH  16  17
BRANCH  16  21
HETATM   21  C           1     -21.436  -8.373  -3.299  0.00  0.00     0.045 C 
BRANCH  21  22
HETATM   22 Se           1     -19.720  -9.284  -3.459  0.00  0.00     0.000 Se
HETATM   23  H           1     -19.873 -10.039  -2.204  0.00  0.00     0.000 HD
ENDBRANCH  21  22
ENDBRANCH  16  21
ENDBRANCH   2  16
TORSDOF 8
ENDMDL
MODEL 3
REMARK VINA RESULT:      -5.9      7.413      9.626
REMARK  8 active torsions:
REMARK  status: ('A' for Active; 'I' for Inactive)
REMARK    1  A    between atoms: C_2  and  C_4 
REMARK    2  A    between atoms: C_4  and  C_5 
REMARK    3  A    between atoms: C_4  and  N_12 
REMARK    4  A    between atoms: C_5  and  C_18 
REMARK    5  A    between atoms: N_7  and  C_10 
REMARK    6  A    between atoms: Se_8  and  C_9 
REMARK    7  A    between atoms: C_9  and  C_10 
REMARK    8  A    between atoms: C_10  and  C_11 
REMARK       I    between atoms: C_11  and  N_12 
ROOT
HETATM    1  O           1     -19.545  -9.962  -5.912  0.00  0.00    -0.271 OA
HETATM    2  C           1     -19.421  -9.533  -4.789  0.00  0.00     0.249 C 
HETATM    3  N           1     -19.731  -8.228  -4.518  0.00  0.00    -0.344 N 
HETATM    4  H           1     -19.020  -7.512  -4.598  0.00  0.00     0.163 HD
ENDROOT
BRANCH   3   5
HETATM    5  C           1     -21.077  -7.871  -4.114  0.00  0.00     0.189 C 
BRANCH   5   6
HETATM    6  C           1     -21.719  -7.030  -5.190  0.00  0.00     0.197 C 
HETATM    7  O           1     -21.273  -7.063  -6.358  0.00  0.00    -0.646 OA
HETATM    8  O           1     -22.695  -6.300  -4.915  0.00  0.00    -0.646 OA
ENDBRANCH   5   6
BRANCH   5   9
HETATM    9  C           1     -21.025  -7.080  -2.815  0.00  0.00     0.074 C 
BRANCH   9  10
HETATM   10  C           1     -21.766  -7.822  -1.746  0.00  0.00    -0.056 A 
HETATM   11  C           1     -22.331  -7.126  -0.677  0.00  0.00     0.007 A 
HETATM   12  C           1     -23.021  -7.818   0.317  0.00  0.00     0.001 A 
HETATM   13  C           1     -23.147  -9.206   0.244  0.00  0.00     0.000 A 
HETATM   14  C           1     -22.583  -9.900  -0.825  0.00  0.00     0.001 A 
HETATM   15  C           1     -21.892  -9.209  -1.821  0.00  0.00     0.007 A 
ENDBRANCH   9  10
ENDBRANCH   5   9
ENDBRANCH   3   5
BRANCH   2  16
HETATM   16  C           1     -18.924 -10.437  -3.688  0.00  0.00     0.274 C 
BRANCH  16  17
HETATM   17  N           1     -18.004 -11.470  -4.268  0.00  0.00    -0.067 N 
HETATM   18  H           1     -18.241 -11.622  -5.275  0.00  0.00     0.275 HD
HETATM   19  H           1     -17.016 -11.139  -4.191  0.00  0.00     0.275 HD
HETATM   20  H           1     -18.115 -12.368  -3.745  0.00  0.00     0.275 HD
ENDBRANCH  16  17
BRANCH  16  21
HETATM   21  C           1     -18.172  -9.612  -2.653  0.00  0.00     0.045 C 
BRANCH  21  22
HETATM   22 Se           1     -16.261  -9.676  -3.034  0.00  0.00     0.000 Se
HETATM   23  H           1     -16.329 -10.960  -3.750  0.00  0.00     0.000 HD
ENDBRANCH  21  22
ENDBRANCH  16  21
ENDBRANCH   2  16
TORSDOF 8
ENDMDL
MODEL 4
REMARK VINA RESULT:      -5.8      5.296      6.952
REMARK  8 active torsions:
REMARK  status: ('A' for Active; 'I' for Inactive)
REMARK    1  A    between atoms: C_2  and  C_4 
REMARK    2  A    between atoms: C_4  and  C_5 
REMARK    3  A    between atoms: C_4  and  N_12 
REMARK    4  A    between atoms: C_5  and  C_18 
REMARK    5  A    between atoms: N_7  and  C_10 
REMARK    6  A    between atoms: Se_8  and  C_9 
REMARK    7  A    between atoms: C_9  and  C_10 
REMARK    8  A    between atoms: C_10  and  C_11 
REMARK       I    between atoms: C_11  and  N_12 
ROOT
HETATM    1  O           1     -19.376  -4.894  -6.615  0.00  0.00    -0.271 OA
HETATM    2  C           1     -20.104  -5.843  -6.788  0.00  0.00     0.249 C 
HETATM    3  N           1     -19.646  -7.110  -6.545  0.00  0.00    -0.344 N 
HETATM    4  H           1     -19.202  -7.638  -7.286  0.00  0.00     0.163 HD
ENDROOT
BRANCH   3   5
HETATM    5  C           1     -19.799  -7.696  -5.228  0.00  0.00     0.189 C 
BRANCH   5   6
HETATM    6  C           1     -19.017  -8.985  -5.158  0.00  0.00     0.197 C 
HETATM    7  O           1     -19.110  -9.824  -6.080  0.00  0.00    -0.646 OA
HETATM    8  O           1     -18.277  -9.214  -4.177  0.00  0.00    -0.646 OA
ENDBRANCH   5   6
BRANCH   5   9
HETATM    9  C           1     -21.272  -7.981  -4.967  0.00  0.00     0.074 C 
BRANCH   9  10
HETATM   10  C           1     -21.587  -7.707  -3.529  0.00  0.00    -0.056 A 
HETATM   11  C           1     -21.581  -8.750  -2.603  0.00  0.00     0.007 A 
HETATM   12  C           1     -21.874  -8.494  -1.263  0.00  0.00     0.001 A 
HETATM   13  C           1     -22.174  -7.196  -0.849  0.00  0.00     0.000 A 
HETATM   14  C           1     -22.178  -6.154  -1.776  0.00  0.00     0.001 A 
HETATM   15  C           1     -21.885  -6.409  -3.116  0.00  0.00     0.007 A 
ENDBRANCH   9  10
ENDBRANCH   5   9
ENDBRANCH   3   5
BRANCH   2  16
HETATM   16  C           1     -21.517  -5.630  -7.272  0.00  0.00     0.274 C 
BRANCH  16  17
HETATM   17  N           1     -22.286  -4.858  -6.240  0.00  0.00    -0.067 N 
HETATM   18  H           1     -22.135  -3.834  -6.387  0.00  0.00     0.275 HD
HETATM   19  H           1     -23.304  -5.074  -6.331  0.00  0.00     0.275 HD
HETATM   20  H           1     -21.955  -5.126  -5.286  0.00  0.00     0.275 HD
ENDBRANCH  16  17
BRANCH  16  21
HETATM   21  C           1     -21.495  -4.848  -8.578  0.00  0.00     0.045 C 
BRANCH  21  22
HETATM   22 Se           1     -23.252  -4.066  -8.899  0.00  0.00     0.000 Se
HETATM   23  H           1     -23.276  -4.420 -10.327  0.00  0.00     0.000 HD
ENDBRANCH  21  22
ENDBRANCH  16  21
ENDBRANCH   2  16
TORSDOF 8
ENDMDL
MODEL 5
REMARK VINA RESULT:      -5.8      6.363      8.514
REMARK  8 active torsions:
REMARK  status: ('A' for Active; 'I' for Inactive)
REMARK    1  A    between atoms: C_2  and  C_4 
REMARK    2  A    between atoms: C_4  and  C_5 
REMARK    3  A    between atoms: C_4  and  N_12 
REMARK    4  A    between atoms: C_5  and  C_18 
REMARK    5  A    between atoms: N_7  and  C_10 
REMARK    6  A    between atoms: Se_8  and  C_9 
REMARK    7  A    between atoms: C_9  and  C_10 
REMARK    8  A    between atoms: C_10  and  C_11 
REMARK       I    between atoms: C_11  and  N_12 
ROOT
HETATM    1  O           1     -21.228  -5.420  -2.424  0.00  0.00    -0.271 OA
HETATM    2  C           1     -21.726  -6.431  -2.861  0.00  0.00     0.249 C 
HETATM    3  N           1     -22.410  -6.398  -4.046  0.00  0.00    -0.344 N 
HETATM    4  H           1     -23.404  -6.209  -4.052  0.00  0.00     0.163 HD
ENDROOT
BRANCH   3   5
HETATM    5  C           1     -21.710  -6.637  -5.294  0.00  0.00     0.189 C 
BRANCH   5   6
HETATM    6  C           1     -20.920  -7.919  -5.189  0.00  0.00     0.197 C 
HETATM    7  O           1     -19.678  -7.878  -5.049  0.00  0.00    -0.646 OA
HETATM    8  O           1     -21.506  -9.021  -5.243  0.00  0.00    -0.646 OA
ENDBRANCH   5   6
BRANCH   5   9
HETATM    9  C           1     -20.764  -5.479  -5.575  0.00  0.00     0.074 C 
BRANCH   9  10
HETATM   10  C           1     -20.984  -4.981  -6.970  0.00  0.00    -0.056 A 
HETATM   11  C           1     -19.960  -5.070  -7.912  0.00  0.00     0.007 A 
HETATM   12  C           1     -20.165  -4.607  -9.212  0.00  0.00     0.001 A 
HETATM   13  C           1     -21.395  -4.054  -9.570  0.00  0.00     0.000 A 
HETATM   14  C           1     -22.419  -3.965  -8.627  0.00  0.00     0.001 A 
HETATM   15  C           1     -22.214  -4.429  -7.327  0.00  0.00     0.007 A 
ENDBRANCH   9  10
ENDBRANCH   5   9
ENDBRANCH   3   5
BRANCH   2  16
HETATM   16  C           1     -21.593  -7.727  -2.100  0.00  0.00     0.274 C 
BRANCH  16  17
HETATM   17  N           1     -20.140  -8.024  -1.872  0.00  0.00    -0.067 N 
HETATM   18  H           1     -19.560  -7.437  -2.513  0.00  0.00     0.275 HD
HETATM   19  H           1     -19.892  -7.805  -0.881  0.00  0.00     0.275 HD
HETATM   20  H           1     -19.958  -9.035  -2.063  0.00  0.00     0.275 HD
ENDBRANCH  16  17
BRANCH  16  21
HETATM   21  C           1     -22.302  -7.604  -0.759  0.00  0.00     0.045 C 
BRANCH  21  22
HETATM   22 Se           1     -22.804  -9.377  -0.123  0.00  0.00     0.000 Se
HETATM   23  H           1     -24.188  -9.289  -0.615  0.00  0.00     0.000 HD
ENDBRANCH  21  22
ENDBRANCH  16  21
ENDBRANCH   2  16
TORSDOF 8
ENDMDL
MODEL 6
REMARK VINA RESULT:      -5.6      1.565      1.903
REMARK  8 active torsions:
REMARK  status: ('A' for Active; 'I' for Inactive)
REMARK    1  A    between atoms: C_2  and  C_4 
REMARK    2  A    between atoms: C_4  and  C_5 
REMARK    3  A    between atoms: C_4  and  N_12 
REMARK    4  A    between atoms: C_5  and  C_18 
REMARK    5  A    between atoms: N_7  and  C_10 
REMARK    6  A    between atoms: Se_8  and  C_9 
REMARK    7  A    between atoms: C_9  and  C_10 
REMARK    8  A    between atoms: C_10  and  C_11 
REMARK       I    between atoms: C_11  and  N_12 
ROOT
HETATM    1  O           1     -20.487  -4.801 -10.401  0.00  0.00    -0.271 OA
HETATM    2  C           1     -21.545  -4.305 -10.708  0.00  0.00     0.249 C 
HETATM    3  N           1     -22.716  -4.926 -10.367  0.00  0.00    -0.344 N 
HETATM    4  H           1     -23.136  -5.596 -10.999  0.00  0.00     0.163 HD
ENDROOT
BRANCH   3   5
HETATM    5  C           1     -23.356  -4.624  -9.102  0.00  0.00     0.189 C 
BRANCH   5   6
HETATM    6  C           1     -24.693  -3.973  -9.358  0.00  0.00     0.197 C 
HETATM    7  O           1     -25.720  -4.678  -9.472  0.00  0.00    -0.646 OA
HETATM    8  O           1     -24.775  -2.730  -9.457  0.00  0.00    -0.646 OA
ENDBRANCH   5   6
BRANCH   5   9
HETATM    9  C           1     -22.474  -3.675  -8.301  0.00  0.00     0.074 C 
BRANCH   9  10
HETATM   10  C           1     -21.859  -4.412  -7.153  0.00  0.00    -0.056 A 
HETATM   11  C           1     -20.543  -4.144  -6.776  0.00  0.00     0.007 A 
HETATM   12  C           1     -19.971  -4.832  -5.706  0.00  0.00     0.001 A 
HETATM   13  C           1     -20.714  -5.787  -5.012  0.00  0.00     0.000 A 
HETATM   14  C           1     -22.030  -6.054  -5.389  0.00  0.00     0.001 A 
HETATM   15  C           1     -22.603  -5.367  -6.459  0.00  0.00     0.007 A 
ENDBRANCH   9  10
ENDBRANCH   5   9
ENDBRANCH   3   5
BRANCH   2  16
HETATM   16  C           1     -21.574  -3.001 -11.466  0.00  0.00     0.274 C 
BRANCH  16  17
HETATM   17  N           1     -20.188  -2.430 -11.528  0.00  0.00    -0.067 N 
HETATM   18  H           1     -19.804  -2.550 -12.493  0.00  0.00     0.275 HD
HETATM   19  H           1     -20.220  -1.412 -11.292  0.00  0.00     0.275 HD
HETATM   20  H           1     -19.575  -2.928 -10.844  0.00  0.00     0.275 HD
ENDBRANCH  16  17
BRANCH  16  21
HETATM   21  C           1     -22.085  -3.246 -12.879  0.00  0.00     0.045 C 
BRANCH  21  22
HETATM   22 Se           1     -23.981  -2.801 -12.972  0.00  0.00     0.000 Se
HETATM   23  H           1     -24.400  -4.161 -13.347  0.00  0.00     0.000 HD
ENDBRANCH  21  22
ENDBRANCH  16  21
ENDBRANCH   2  16
TORSDOF 8
ENDMDL
MODEL 7
REMARK VINA RESULT:      -5.6      7.365      9.550
REMARK  8 active torsions:
REMARK  status: ('A' for Active; 'I' for Inactive)
REMARK    1  A    between atoms: C_2  and  C_4 
REMARK    2  A    between atoms: C_4  and  C_5 
REMARK    3  A    between atoms: C_4  and  N_12 
REMARK    4  A    between atoms: C_5  and  C_18 
REMARK    5  A    between atoms: N_7  and  C_10 
REMARK    6  A    between atoms: Se_8  and  C_9 
REMARK    7  A    between atoms: C_9  and  C_10 
REMARK    8  A    between atoms: C_10  and  C_11 
REMARK       I    between atoms: C_11  and  N_12 
ROOT
HETATM    1  O           1     -22.227  -5.942  -2.620  0.00  0.00    -0.271 OA
HETATM    2  C           1     -21.776  -7.063  -2.627  0.00  0.00     0.249 C 
HETATM    3  N           1     -21.614  -7.727  -3.813  0.00  0.00    -0.344 N 
HETATM    4  H           1     -22.365  -8.299  -4.179  0.00  0.00     0.163 HD
ENDROOT
BRANCH   3   5
HETATM    5  C           1     -20.367  -7.612  -4.545  0.00  0.00     0.189 C 
BRANCH   5   6
HETATM    6  C           1     -20.526  -6.600  -5.652  0.00  0.00     0.197 C 
HETATM    7  O           1     -20.860  -6.974  -6.798  0.00  0.00    -0.646 OA
HETATM    8  O           1     -20.324  -5.388  -5.426  0.00  0.00    -0.646 OA
ENDBRANCH   5   6
BRANCH   5   9
HETATM    9  C           1     -20.002  -8.964  -5.140  0.00  0.00     0.074 C 
BRANCH   9  10
HETATM   10  C           1     -18.594  -9.311  -4.767  0.00  0.00    -0.056 A 
HETATM   11  C           1     -18.200  -9.285  -3.429  0.00  0.00     0.007 A 
HETATM   12  C           1     -16.889  -9.609  -3.082  0.00  0.00     0.001 A 
HETATM   13  C           1     -15.971  -9.960  -4.072  0.00  0.00     0.000 A 
HETATM   14  C           1     -16.365  -9.987  -5.409  0.00  0.00     0.001 A 
HETATM   15  C           1     -17.677  -9.663  -5.757  0.00  0.00     0.007 A 
ENDBRANCH   9  10
ENDBRANCH   5   9
ENDBRANCH   3   5
BRANCH   2  16
HETATM   16  C           1     -21.391  -7.729  -1.329  0.00  0.00     0.274 C 
BRANCH  16  17
HETATM   17  N           1     -22.334  -7.293  -0.247  0.00  0.00    -0.067 N 
HETATM   18  H           1     -23.317  -7.346  -0.598  0.00  0.00     0.275 HD
HETATM   19  H           1     -22.226  -7.920   0.582  0.00  0.00     0.275 HD
HETATM   20  H           1     -22.115  -6.309   0.029  0.00  0.00     0.275 HD
ENDBRANCH  16  17
BRANCH  16  21
HETATM   21  C           1     -21.470  -9.241  -1.490  0.00  0.00     0.045 C 
BRANCH  21  22
HETATM   22 Se           1     -21.241 -10.094   0.247  0.00  0.00     0.000 Se
HETATM   23  H           1     -19.954  -9.439   0.529  0.00  0.00     0.000 HD
ENDBRANCH  21  22
ENDBRANCH  16  21
ENDBRANCH   2  16
TORSDOF 8
ENDMDL
MODEL 8
REMARK VINA RESULT:      -5.6      8.746     10.682
REMARK  8 active torsions:
REMARK  status: ('A' for Active; 'I' for Inactive)
REMARK    1  A    between atoms: C_2  and  C_4 
REMARK    2  A    between atoms: C_4  and  C_5 
REMARK    3  A    between atoms: C_4  and  N_12 
REMARK    4  A    between atoms: C_5  and  C_18 
REMARK    5  A    between atoms: N_7  and  C_10 
REMARK    6  A    between atoms: Se_8  and  C_9 
REMARK    7  A    between atoms: C_9  and  C_10 
REMARK    8  A    between atoms: C_10  and  C_11 
REMARK       I    between atoms: C_11  and  N_12 
ROOT
HETATM    1  O           1     -21.020  -8.003  -4.987  0.00  0.00    -0.271 OA
HETATM    2  C           1     -20.475  -8.521  -4.040  0.00  0.00     0.249 C 
HETATM    3  N           1     -20.486  -7.899  -2.821  0.00  0.00    -0.344 N 
HETATM    4  H           1     -19.745  -7.256  -2.574  0.00  0.00     0.163 HD
ENDROOT
BRANCH   3   5
HETATM    5  C           1     -21.560  -8.163  -1.883  0.00  0.00     0.189 C 
BRANCH   5   6
HETATM    6  C           1     -22.247  -6.868  -1.528  0.00  0.00     0.197 C 
HETATM    7  O           1     -22.715  -6.701  -0.380  0.00  0.00    -0.646 OA
HETATM    8  O           1     -22.350  -5.960  -2.381  0.00  0.00    -0.646 OA
ENDBRANCH   5   6
BRANCH   5   9
HETATM    9  C           1     -20.988  -8.797  -0.622  0.00  0.00     0.074 C 
BRANCH   9  10
HETATM   10  C           1     -21.779 -10.020  -0.274  0.00  0.00    -0.056 A 
HETATM   11  C           1     -21.175 -11.068   0.420  0.00  0.00     0.007 A 
HETATM   12  C           1     -21.912 -12.206   0.744  0.00  0.00     0.001 A 
HETATM   13  C           1     -23.254 -12.298   0.375  0.00  0.00     0.000 A 
HETATM   14  C           1     -23.859 -11.249  -0.318  0.00  0.00     0.001 A 
HETATM   15  C           1     -23.122 -10.110  -0.643  0.00  0.00     0.007 A 
ENDBRANCH   9  10
ENDBRANCH   5   9
ENDBRANCH   3   5
BRANCH   2  16
HETATM   16  C           1     -19.782  -9.851  -4.204  0.00  0.00     0.274 C 
BRANCH  16  17
HETATM   17  N           1     -19.500 -10.090  -5.658  0.00  0.00    -0.067 N 
HETATM   18  H           1     -20.088  -9.449  -6.237  0.00  0.00     0.275 HD
HETATM   19  H           1     -18.490  -9.906  -5.852  0.00  0.00     0.275 HD
HETATM   20  H           1     -19.727 -11.082  -5.898  0.00  0.00     0.275 HD
ENDBRANCH  16  17
BRANCH  16  21
HETATM   21  C           1     -18.472  -9.841  -3.429  0.00  0.00     0.045 C 
BRANCH  21  22
HETATM   22 Se           1     -18.412 -11.378  -2.231  0.00  0.00     0.000 Se
HETATM   23  H           1     -17.242 -10.894  -1.480  0.00  0.00     0.000 HD
ENDBRANCH  21  22
ENDBRANCH  16  21
ENDBRANCH   2  16
TORSDOF 8
ENDMDL
MODEL 9
REMARK VINA RESULT:      -5.4      6.442      8.234
REMARK  8 active torsions:
REMARK  status: ('A' for Active; 'I' for Inactive)
REMARK    1  A    between atoms: C_2  and  C_4 
REMARK    2  A    between atoms: C_4  and  C_5 
REMARK    3  A    between atoms: C_4  and  N_12 
REMARK    4  A    between atoms: C_5  and  C_18 
REMARK    5  A    between atoms: N_7  and  C_10 
REMARK    6  A    between atoms: Se_8  and  C_9 
REMARK    7  A    between atoms: C_9  and  C_10 
REMARK    8  A    between atoms: C_10  and  C_11 
REMARK       I    between atoms: C_11  and  N_12 
ROOT
HETATM    1  O           1     -20.671 -10.069  -3.139  0.00  0.00    -0.271 OA
HETATM    2  C           1     -20.926  -9.588  -4.218  0.00  0.00     0.249 C 
HETATM    3  N           1     -21.864  -8.596  -4.320  0.00  0.00    -0.344 N 
HETATM    4  H           1     -22.835  -8.832  -4.479  0.00  0.00     0.163 HD
ENDROOT
BRANCH   3   5
HETATM    5  C           1     -21.465  -7.207  -4.202  0.00  0.00     0.189 C 
BRANCH   5   6
HETATM    6  C           1     -21.586  -6.770  -2.763  0.00  0.00     0.197 C 
HETATM    7  O           1     -22.521  -6.016  -2.414  0.00  0.00    -0.646 OA
HETATM    8  O           1     -20.752  -7.161  -1.918  0.00  0.00    -0.646 OA
ENDBRANCH   5   6
BRANCH   5   9
HETATM    9  C           1     -22.367  -6.344  -5.073  0.00  0.00     0.074 C 
BRANCH   9  10
HETATM   10  C           1     -21.533  -5.565  -6.041  0.00  0.00    -0.056 A 
HETATM   11  C           1     -22.142  -4.702  -6.951  0.00  0.00     0.007 A 
HETATM   12  C           1     -21.364  -3.977  -7.853  0.00  0.00     0.001 A 
HETATM   13  C           1     -19.976  -4.114  -7.845  0.00  0.00     0.000 A 
HETATM   14  C           1     -19.367  -4.977  -6.934  0.00  0.00     0.001 A 
HETATM   15  C           1     -20.144  -5.703  -6.032  0.00  0.00     0.007 A 
ENDBRANCH   9  10
ENDBRANCH   5   9
ENDBRANCH   3   5
BRANCH   2  16
HETATM   16  C           1     -20.211 -10.082  -5.451  0.00  0.00     0.274 C 
BRANCH  16  17
HETATM   17  N           1     -18.972  -9.265  -5.670  0.00  0.00    -0.067 N 
HETATM   18  H           1     -18.690  -8.812  -4.771  0.00  0.00     0.275 HD
HETATM   19  H           1     -18.200  -9.886  -6.003  0.00  0.00     0.275 HD
HETATM   20  H           1     -19.163  -8.529  -6.387  0.00  0.00     0.275 HD
ENDBRANCH  16  17
BRANCH  16  21
HETATM   21  C           1     -19.828 -11.544  -5.266  0.00  0.00     0.045 C 
BRANCH  21  22
HETATM   22 Se           1     -18.801 -12.149  -6.808  0.00  0.00     0.000 Se
HETATM   23  H           1     -18.279 -13.349  -6.136  0.00  0.00     0.000 HD
ENDBRANCH  21  22
ENDBRANCH  16  21
ENDBRANCH   2  16
TORSDOF 8
ENDMDL
