MODEL 1
REMARK VINA RESULT:      -7.5      0.000      0.000
REMARK  9 active torsions:
REMARK  status: ('A' for Active; 'I' for Inactive)
REMARK    1  A    between atoms: C_1  and  C_2 
REMARK    2  A    between atoms: C_1  and  C_19 
REMARK    3  A    between atoms: C_2  and  C_9 
REMARK    4  A    between atoms: C_2  and  N_11 
REMARK       I    between atoms: N_11  and  C_29 
REMARK    5  A    between atoms: C_14  and  C_31 
REMARK       I    between atoms: C_14  and  N_15 
REMARK    6  A    between atoms: N_17  and  C_28 
REMARK    7  A    between atoms: C_27  and  C_28 
REMARK    8  A    between atoms: C_27  and  C_31 
REMARK    9  A    between atoms: C_28  and  C_29 
ROOT
HETATM    1  N           1     -20.350  -6.880  -6.771  0.00  0.00    -0.344 N 
HETATM    2  H           1     -20.411  -7.586  -7.493  0.00  0.00     0.163 HD
HETATM    3  O           1     -19.365  -4.961  -7.349  0.00  0.00    -0.271 OA
HETATM    4  C           1     -20.390  -5.554  -7.107  0.00  0.00     0.249 C 
ENDROOT
BRANCH   1   5
HETATM    5  C           1     -20.222  -7.273  -5.381  0.00  0.00     0.190 C 
BRANCH   5   6
HETATM    6  C           1     -21.561  -7.795  -4.876  0.00  0.00     0.077 C 
BRANCH   6   7
HETATM    7  C           1     -21.815  -7.270  -3.498  0.00  0.00    -0.028 A 
HETATM    8  C           1     -22.049  -5.956  -3.160  0.00  0.00     0.096 A 
HETATM    9  N           1     -22.232  -5.899  -1.804  0.00  0.00    -0.365 N 
HETATM   10  C           1     -22.121  -7.157  -1.255  0.00  0.00     0.042 A 
HETATM   11  H           1     -22.430  -5.022  -1.262  0.00  0.00     0.165 HD
HETATM   12  C           1     -22.233  -7.576   0.076  0.00  0.00     0.030 A 
HETATM   13  C           1     -21.858  -8.040  -2.303  0.00  0.00    -0.002 A 
HETATM   14  C           1     -22.071  -8.939   0.341  0.00  0.00     0.002 A 
HETATM   15  C           1     -21.807  -9.844  -0.686  0.00  0.00     0.001 A 
HETATM   16  C           1     -21.698  -9.408  -2.012  0.00  0.00     0.014 A 
ENDBRANCH   6   7
ENDBRANCH   5   6
BRANCH   5  17
HETATM   17  C           1     -19.181  -8.357  -5.260  0.00  0.00     0.197 C 
HETATM   18  O           1     -18.619  -8.802  -6.284  0.00  0.00    -0.646 OA
HETATM   19  O           1     -18.878  -8.811  -4.135  0.00  0.00    -0.646 OA
ENDBRANCH   5  17
ENDBRANCH   1   5
BRANCH   4  20
HETATM   20  C           1     -21.714  -4.831  -7.174  0.00  0.00     0.275 C 
BRANCH  20  21
HETATM   21  N           1     -21.500  -3.372  -6.897  0.00  0.00    -0.066 N 
HETATM   22  H           1     -20.504  -3.122  -7.091  0.00  0.00     0.275 HD
HETATM   23  H           1     -21.723  -3.172  -5.896  0.00  0.00     0.275 HD
HETATM   24  H           1     -22.128  -2.806  -7.512  0.00  0.00     0.275 HD
ENDBRANCH  20  21
BRANCH  20  25
HETATM   25  C           1     -22.315  -5.000  -8.563  0.00  0.00     0.052 C 
BRANCH  25  26
HETATM   26  C           1     -22.664  -3.634  -9.137  0.00  0.00     0.105 C 
BRANCH  26  27
HETATM   27  C           1     -23.999  -3.707  -9.836  0.00  0.00     0.215 C 
HETATM   28  N           1     -24.908  -4.666  -9.476  0.00  0.00    -0.370 N 
HETATM   29  H           1     -24.684  -5.325  -8.742  0.00  0.00     0.159 HD
HETATM   30  H           1     -25.804  -4.715  -9.945  0.00  0.00     0.159 HD
HETATM   31  O           1     -24.267  -2.920 -10.713  0.00  0.00    -0.274 OA
ENDBRANCH  26  27
ENDBRANCH  25  26
ENDBRANCH  20  25
ENDBRANCH   4  20
TORSDOF 9
ENDMDL
MODEL 2
REMARK VINA RESULT:      -7.3     14.131     16.114
REMARK  9 active torsions:
REMARK  status: ('A' for Active; 'I' for Inactive)
REMARK    1  A    between atoms: C_1  and  C_2 
REMARK    2  A    between atoms: C_1  and  C_19 
REMARK    3  A    between atoms: C_2  and  C_9 
REMARK    4  A    between atoms: C_2  and  N_11 
REMARK       I    between atoms: N_11  and  C_29 
REMARK    5  A    between atoms: C_14  and  C_31 
REMARK       I    between atoms: C_14  and  N_15 
REMARK    6  A    between atoms: N_17  and  C_28 
REMARK    7  A    between atoms: C_27  and  C_28 
REMARK    8  A    between atoms: C_27  and  C_31 
REMARK    9  A    between atoms: C_28  and  C_29 
ROOT
HETATM    1  N           1     -34.696  -1.405 -12.754  0.00  0.00    -0.344 N 
HETATM    2  H           1     -33.813  -1.767 -13.090  0.00  0.00     0.163 HD
HETATM    3  O           1     -35.006   0.796 -12.965  0.00  0.00    -0.271 OA
HETATM    4  C           1     -35.264  -0.317 -13.358  0.00  0.00     0.249 C 
ENDROOT
BRANCH   1   5
HETATM    5  C           1     -35.360  -2.041 -11.632  0.00  0.00     0.190 C 
BRANCH   5   6
HETATM    6  C           1     -34.326  -2.427 -10.584  0.00  0.00     0.077 C 
BRANCH   6   7
HETATM    7  C           1     -33.684  -3.723 -10.968  0.00  0.00    -0.028 A 
HETATM    8  C           1     -32.581  -3.874 -11.778  0.00  0.00     0.096 A 
HETATM    9  N           1     -32.316  -5.213 -11.879  0.00  0.00    -0.365 N 
HETATM   10  C           1     -33.229  -5.937 -11.146  0.00  0.00     0.042 A 
HETATM   11  H           1     -31.528  -5.629 -12.436  0.00  0.00     0.165 HD
HETATM   12  C           1     -33.348  -7.320 -10.958  0.00  0.00     0.030 A 
HETATM   13  C           1     -34.104  -5.020 -10.562  0.00  0.00    -0.002 A 
HETATM   14  C           1     -34.391  -7.775 -10.147  0.00  0.00     0.002 A 
HETATM   15  C           1     -35.280  -6.882  -9.550  0.00  0.00     0.001 A 
HETATM   16  C           1     -35.147  -5.502  -9.749  0.00  0.00     0.014 A 
ENDBRANCH   6   7
ENDBRANCH   5   6
BRANCH   5  17
HETATM   17  C           1     -36.355  -1.081 -11.029  0.00  0.00     0.197 C 
HETATM   18  O           1     -36.009  -0.327 -10.095  0.00  0.00    -0.646 OA
HETATM   19  O           1     -37.527  -1.039 -11.463  0.00  0.00    -0.646 OA
ENDBRANCH   5  17
ENDBRANCH   1   5
BRANCH   4  20
HETATM   20  C           1     -36.214  -0.506 -14.516  0.00  0.00     0.275 C 
BRANCH  20  21
HETATM   21  N           1     -37.360   0.454 -14.384  0.00  0.00    -0.066 N 
HETATM   22  H           1     -37.168   1.306 -14.957  0.00  0.00     0.275 HD
HETATM   23  H           1     -37.472   0.725 -13.381  0.00  0.00     0.275 HD
HETATM   24  H           1     -38.237  -0.003 -14.721  0.00  0.00     0.275 HD
ENDBRANCH  20  21
BRANCH  20  25
HETATM   25  C           1     -35.480  -0.242 -15.824  0.00  0.00     0.052 C 
BRANCH  25  26
HETATM   26  C           1     -35.714  -1.402 -16.783  0.00  0.00     0.105 C 
BRANCH  26  27
HETATM   27  C           1     -34.690  -2.481 -16.527  0.00  0.00     0.215 C 
HETATM   28  N           1     -33.780  -2.805 -17.498  0.00  0.00    -0.370 N 
HETATM   29  H           1     -33.794  -2.321 -18.386  0.00  0.00     0.159 HD
HETATM   30  H           1     -33.093  -3.528 -17.326  0.00  0.00     0.159 HD
HETATM   31  O           1     -34.673  -3.059 -15.466  0.00  0.00    -0.274 OA
ENDBRANCH  26  27
ENDBRANCH  25  26
ENDBRANCH  20  25
ENDBRANCH   4  20
TORSDOF 9
ENDMDL
MODEL 3
REMARK VINA RESULT:      -7.3      2.455      7.961
REMARK  9 active torsions:
REMARK  status: ('A' for Active; 'I' for Inactive)
REMARK    1  A    between atoms: C_1  and  C_2 
REMARK    2  A    between atoms: C_1  and  C_19 
REMARK    3  A    between atoms: C_2  and  C_9 
REMARK    4  A    between atoms: C_2  and  N_11 
REMARK       I    between atoms: N_11  and  C_29 
REMARK    5  A    between atoms: C_14  and  C_31 
REMARK       I    between atoms: C_14  and  N_15 
REMARK    6  A    between atoms: N_17  and  C_28 
REMARK    7  A    between atoms: C_27  and  C_28 
REMARK    8  A    between atoms: C_27  and  C_31 
REMARK    9  A    between atoms: C_28  and  C_29 
ROOT
HETATM    1  N           1     -22.442  -6.320  -4.184  0.00  0.00    -0.344 N 
HETATM    2  H           1     -23.405  -6.018  -4.107  0.00  0.00     0.163 HD
HETATM    3  O           1     -21.011  -5.434  -2.716  0.00  0.00    -0.271 OA
HETATM    4  C           1     -21.657  -6.393  -3.065  0.00  0.00     0.249 C 
ENDROOT
BRANCH   1   5
HETATM    5  C           1     -21.894  -6.676  -5.478  0.00  0.00     0.190 C 
BRANCH   5   6
HETATM    6  C           1     -21.151  -5.481  -6.060  0.00  0.00     0.077 C 
BRANCH   6   7
HETATM    7  C           1     -21.957  -4.883  -7.170  0.00  0.00    -0.028 A 
HETATM    8  C           1     -23.274  -4.490  -7.096  0.00  0.00     0.096 A 
HETATM    9  N           1     -23.633  -3.997  -8.322  0.00  0.00    -0.365 N 
HETATM   10  C           1     -22.568  -4.063  -9.193  0.00  0.00     0.042 A 
HETATM   11  H           1     -24.584  -3.622  -8.563  0.00  0.00     0.165 HD
HETATM   12  C           1     -22.472  -3.677 -10.536  0.00  0.00     0.030 A 
HETATM   13  C           1     -21.499  -4.618  -8.490  0.00  0.00    -0.002 A 
HETATM   14  C           1     -21.243  -3.865 -11.175  0.00  0.00     0.002 A 
HETATM   15  C           1     -20.157  -4.418 -10.499  0.00  0.00     0.001 A 
HETATM   16  C           1     -20.272  -4.798  -9.156  0.00  0.00     0.014 A 
ENDBRANCH   6   7
ENDBRANCH   5   6
BRANCH   5  17
HETATM   17  C           1     -20.940  -7.834  -5.318  0.00  0.00     0.197 C 
HETATM   18  O           1     -21.382  -8.998  -5.214  0.00  0.00    -0.646 OA
HETATM   19  O           1     -19.707  -7.629  -5.292  0.00  0.00    -0.646 OA
ENDBRANCH   5  17
ENDBRANCH   1   5
BRANCH   4  20
HETATM   20  C           1     -21.598  -7.673  -2.266  0.00  0.00     0.275 C 
BRANCH  20  21
HETATM   21  N           1     -20.189  -8.186  -2.248  0.00  0.00    -0.066 N 
HETATM   22  H           1     -20.057  -8.815  -1.424  0.00  0.00     0.275 HD
HETATM   23  H           1     -19.526  -7.380  -2.182  0.00  0.00     0.275 HD
HETATM   24  H           1     -20.001  -8.718  -3.127  0.00  0.00     0.275 HD
ENDBRANCH  20  21
BRANCH  20  25
HETATM   25  C           1     -22.057  -7.402  -0.838  0.00  0.00     0.052 C 
BRANCH  25  26
HETATM   26  C           1     -22.546  -8.699  -0.206  0.00  0.00     0.105 C 
BRANCH  26  27
HETATM   27  C           1     -21.488  -9.234   0.727  0.00  0.00     0.215 C 
HETATM   28  N           1     -21.086 -10.539   0.630  0.00  0.00    -0.370 N 
HETATM   29  H           1     -21.498 -11.145  -0.069  0.00  0.00     0.159 HD
HETATM   30  H           1     -20.377 -10.898   1.256  0.00  0.00     0.159 HD
HETATM   31  O           1     -20.996  -8.511   1.561  0.00  0.00    -0.274 OA
ENDBRANCH  26  27
ENDBRANCH  25  26
ENDBRANCH  20  25
ENDBRANCH   4  20
TORSDOF 9
ENDMDL
MODEL 4
REMARK VINA RESULT:      -7.2      2.950      4.832
REMARK  9 active torsions:
REMARK  status: ('A' for Active; 'I' for Inactive)
REMARK    1  A    between atoms: C_1  and  C_2 
REMARK    2  A    between atoms: C_1  and  C_19 
REMARK    3  A    between atoms: C_2  and  C_9 
REMARK    4  A    between atoms: C_2  and  N_11 
REMARK       I    between atoms: N_11  and  C_29 
REMARK    5  A    between atoms: C_14  and  C_31 
REMARK       I    between atoms: C_14  and  N_15 
REMARK    6  A    between atoms: N_17  and  C_28 
REMARK    7  A    between atoms: C_27  and  C_28 
REMARK    8  A    between atoms: C_27  and  C_31 
REMARK    9  A    between atoms: C_28  and  C_29 
ROOT
HETATM    1  N           1     -21.438  -6.541  -2.924  0.00  0.00    -0.344 N 
HETATM    2  H           1     -21.203  -5.748  -2.340  0.00  0.00     0.163 HD
HETATM    3  O           1     -22.921  -6.163  -4.550  0.00  0.00    -0.271 OA
HETATM    4  C           1     -21.768  -6.348  -4.238  0.00  0.00     0.249 C 
ENDROOT
BRANCH   1   5
HETATM    5  C           1     -21.424  -7.880  -2.369  0.00  0.00     0.190 C 
BRANCH   5   6
HETATM    6  C           1     -19.986  -8.301  -2.096  0.00  0.00     0.077 C 
BRANCH   6   7
HETATM    7  C           1     -19.550  -9.291  -3.130  0.00  0.00    -0.028 A 
HETATM    8  C           1     -20.373  -9.981  -3.991  0.00  0.00     0.096 A 
HETATM    9  N           1     -19.584 -10.783  -4.773  0.00  0.00    -0.365 N 
HETATM   10  C           1     -18.260 -10.624  -4.433  0.00  0.00     0.042 A 
HETATM   11  H           1     -19.940 -11.426  -5.523  0.00  0.00     0.165 HD
HETATM   12  C           1     -17.112 -11.232  -4.957  0.00  0.00     0.030 A 
HETATM   13  C           1     -18.211  -9.689  -3.399  0.00  0.00    -0.002 A 
HETATM   14  C           1     -15.880 -10.869  -4.406  0.00  0.00     0.002 A 
HETATM   15  C           1     -15.800  -9.937  -3.372  0.00  0.00     0.001 A 
HETATM   16  C           1     -16.959  -9.340  -2.860  0.00  0.00     0.014 A 
ENDBRANCH   6   7
ENDBRANCH   5   6
BRANCH   5  17
HETATM   17  C           1     -22.207  -7.898  -1.079  0.00  0.00     0.197 C 
HETATM   18  O           1     -22.738  -6.849  -0.656  0.00  0.00    -0.646 OA
HETATM   19  O           1     -22.326  -8.961  -0.434  0.00  0.00    -0.646 OA
ENDBRANCH   5  17
ENDBRANCH   1   5
BRANCH   4  20
HETATM   20  C           1     -20.693  -6.367  -5.297  0.00  0.00     0.275 C 
BRANCH  20  21
HETATM   21  N           1     -20.997  -7.444  -6.297  0.00  0.00    -0.066 N 
HETATM   22  H           1     -21.293  -8.312  -5.795  0.00  0.00     0.275 HD
HETATM   23  H           1     -20.143  -7.642  -6.865  0.00  0.00     0.275 HD
HETATM   24  H           1     -21.767  -7.126  -6.927  0.00  0.00     0.275 HD
ENDBRANCH  20  21
BRANCH  20  25
HETATM   25  C           1     -20.652  -5.018  -6.004  0.00  0.00     0.052 C 
BRANCH  25  26
HETATM   26  C           1     -21.113  -5.184  -7.445  0.00  0.00     0.105 C 
BRANCH  26  27
HETATM   27  C           1     -22.331  -4.326  -7.686  0.00  0.00     0.215 C 
HETATM   28  N           1     -23.444  -4.482  -6.903  0.00  0.00    -0.370 N 
HETATM   29  H           1     -23.449  -5.172  -6.162  0.00  0.00     0.159 HD
HETATM   30  H           1     -24.260  -3.906  -7.063  0.00  0.00     0.159 HD
HETATM   31  O           1     -22.325  -3.502  -8.569  0.00  0.00    -0.274 OA
ENDBRANCH  26  27
ENDBRANCH  25  26
ENDBRANCH  20  25
ENDBRANCH   4  20
TORSDOF 9
ENDMDL
MODEL 5
REMARK VINA RESULT:      -7.2      2.518      3.076
REMARK  9 active torsions:
REMARK  status: ('A' for Active; 'I' for Inactive)
REMARK    1  A    between atoms: C_1  and  C_2 
REMARK    2  A    between atoms: C_1  and  C_19 
REMARK    3  A    between atoms: C_2  and  C_9 
REMARK    4  A    between atoms: C_2  and  N_11 
REMARK       I    between atoms: N_11  and  C_29 
REMARK    5  A    between atoms: C_14  and  C_31 
REMARK       I    between atoms: C_14  and  N_15 
REMARK    6  A    between atoms: N_17  and  C_28 
REMARK    7  A    between atoms: C_27  and  C_28 
REMARK    8  A    between atoms: C_27  and  C_31 
REMARK    9  A    between atoms: C_28  and  C_29 
ROOT
HETATM    1  N           1     -20.170  -6.687  -6.061  0.00  0.00    -0.344 N 
HETATM    2  H           1     -19.319  -7.135  -6.377  0.00  0.00     0.163 HD
HETATM    3  O           1     -20.036  -4.497  -5.645  0.00  0.00    -0.271 OA
HETATM    4  C           1     -20.413  -5.379  -6.381  0.00  0.00     0.249 C 
ENDROOT
BRANCH   1   5
HETATM    5  C           1     -21.131  -7.432  -5.271  0.00  0.00     0.190 C 
BRANCH   5   6
HETATM    6  C           1     -20.393  -8.299  -4.260  0.00  0.00     0.077 C 
BRANCH   6   7
HETATM    7  C           1     -21.276  -9.429  -3.832  0.00  0.00    -0.028 A 
HETATM    8  C           1     -21.626 -10.520  -4.596  0.00  0.00     0.096 A 
HETATM    9  N           1     -22.443 -11.316  -3.838  0.00  0.00    -0.365 N 
HETATM   10  C           1     -22.629 -10.760  -2.592  0.00  0.00     0.042 A 
HETATM   11  H           1     -22.866 -12.222  -4.161  0.00  0.00     0.165 HD
HETATM   12  C           1     -23.378 -11.216  -1.500  0.00  0.00     0.030 A 
HETATM   13  C           1     -21.904  -9.569  -2.563  0.00  0.00    -0.002 A 
HETATM   14  C           1     -23.381 -10.429  -0.345  0.00  0.00     0.002 A 
HETATM   15  C           1     -22.665  -9.234  -0.287  0.00  0.00     0.001 A 
HETATM   16  C           1     -21.923  -8.793  -1.389  0.00  0.00     0.014 A 
ENDBRANCH   6   7
ENDBRANCH   5   6
BRANCH   5  17
HETATM   17  C           1     -22.036  -6.468  -4.543  0.00  0.00     0.197 C 
HETATM   18  O           1     -23.143  -6.159  -5.034  0.00  0.00    -0.646 OA
HETATM   19  O           1     -21.679  -5.980  -3.449  0.00  0.00    -0.646 OA
ENDBRANCH   5  17
ENDBRANCH   1   5
BRANCH   4  20
HETATM   20  C           1     -21.152  -5.037  -7.651  0.00  0.00     0.275 C 
BRANCH  20  21
HETATM   21  N           1     -22.398  -4.272  -7.313  0.00  0.00    -0.066 N 
HETATM   22  H           1     -22.802  -3.860  -8.184  0.00  0.00     0.275 HD
HETATM   23  H           1     -22.164  -3.507  -6.641  0.00  0.00     0.275 HD
HETATM   24  H           1     -23.094  -4.917  -6.876  0.00  0.00     0.275 HD
ENDBRANCH  20  21
BRANCH  20  25
HETATM   25  C           1     -20.261  -4.184  -8.545  0.00  0.00     0.052 C 
BRANCH  25  26
HETATM   26  C           1     -20.126  -4.846  -9.910  0.00  0.00     0.105 C 
BRANCH  26  27
HETATM   27  C           1     -21.014  -4.138 -10.902  0.00  0.00     0.215 C 
HETATM   28  N           1     -20.559  -3.024 -11.557  0.00  0.00    -0.370 N 
HETATM   29  H           1     -19.626  -2.677 -11.375  0.00  0.00     0.159 HD
HETATM   30  H           1     -21.154  -2.550 -12.222  0.00  0.00     0.159 HD
HETATM   31  O           1     -22.128  -4.552 -11.120  0.00  0.00    -0.274 OA
ENDBRANCH  26  27
ENDBRANCH  25  26
ENDBRANCH  20  25
ENDBRANCH   4  20
TORSDOF 9
ENDMDL
MODEL 6
REMARK VINA RESULT:      -7.1      2.252      3.159
REMARK  9 active torsions:
REMARK  status: ('A' for Active; 'I' for Inactive)
REMARK    1  A    between atoms: C_1  and  C_2 
REMARK    2  A    between atoms: C_1  and  C_19 
REMARK    3  A    between atoms: C_2  and  C_9 
REMARK    4  A    between atoms: C_2  and  N_11 
REMARK       I    between atoms: N_11  and  C_29 
REMARK    5  A    between atoms: C_14  and  C_31 
REMARK       I    between atoms: C_14  and  N_15 
REMARK    6  A    between atoms: N_17  and  C_28 
REMARK    7  A    between atoms: C_27  and  C_28 
REMARK    8  A    between atoms: C_27  and  C_31 
REMARK    9  A    between atoms: C_28  and  C_29 
ROOT
HETATM    1  N           1     -20.774  -6.041  -8.175  0.00  0.00    -0.344 N 
HETATM    2  H           1     -20.367  -6.791  -8.719  0.00  0.00     0.163 HD
HETATM    3  O           1     -20.075  -3.976  -8.662  0.00  0.00    -0.271 OA
HETATM    4  C           1     -20.951  -4.805  -8.737  0.00  0.00     0.249 C 
ENDROOT
BRANCH   1   5
HETATM    5  C           1     -21.170  -6.275  -6.800  0.00  0.00     0.190 C 
BRANCH   5   6
HETATM    6  C           1     -19.933  -6.555  -5.956  0.00  0.00     0.077 C 
BRANCH   6   7
HETATM    7  C           1     -20.264  -7.565  -4.903  0.00  0.00    -0.028 A 
HETATM    8  C           1     -19.971  -8.909  -4.948  0.00  0.00     0.096 A 
HETATM    9  N           1     -20.441  -9.478  -3.794  0.00  0.00    -0.365 N 
HETATM   10  C           1     -21.034  -8.524  -2.999  0.00  0.00     0.042 A 
HETATM   11  H           1     -20.359 -10.497  -3.551  0.00  0.00     0.165 HD
HETATM   12  C           1     -21.645  -8.643  -1.745  0.00  0.00     0.030 A 
HETATM   13  C           1     -20.936  -7.308  -3.676  0.00  0.00    -0.002 A 
HETATM   14  C           1     -22.168  -7.482  -1.168  0.00  0.00     0.002 A 
HETATM   15  C           1     -22.084  -6.253  -1.821  0.00  0.00     0.001 A 
HETATM   16  C           1     -21.470  -6.153  -3.075  0.00  0.00     0.014 A 
ENDBRANCH   6   7
ENDBRANCH   5   6
BRANCH   5  17
HETATM   17  C           1     -21.878  -5.055  -6.266  0.00  0.00     0.197 C 
HETATM   18  O           1     -21.219  -4.051  -5.921  0.00  0.00    -0.646 OA
HETATM   19  O           1     -23.125  -5.047  -6.171  0.00  0.00    -0.646 OA
ENDBRANCH   5  17
ENDBRANCH   1   5
BRANCH   4  20
HETATM   20  C           1     -22.240  -4.478  -9.450  0.00  0.00     0.275 C 
BRANCH  20  21
HETATM   21  N           1     -22.948  -3.376  -8.719  0.00  0.00    -0.066 N 
HETATM   22  H           1     -22.624  -2.451  -9.083  0.00  0.00     0.275 HD
HETATM   23  H           1     -22.737  -3.444  -7.698  0.00  0.00     0.275 HD
HETATM   24  H           1     -23.979  -3.466  -8.868  0.00  0.00     0.275 HD
ENDBRANCH  20  21
BRANCH  20  25
HETATM   25  C           1     -21.933  -4.027 -10.873  0.00  0.00     0.052 C 
BRANCH  25  26
HETATM   26  C           1     -23.085  -4.416 -11.790  0.00  0.00     0.105 C 
BRANCH  26  27
HETATM   27  C           1     -23.984  -3.223 -12.003  0.00  0.00     0.215 C 
HETATM   28  N           1     -23.636  -2.257 -12.909  0.00  0.00    -0.370 N 
HETATM   29  H           1     -22.777  -2.344 -13.436  0.00  0.00     0.159 HD
HETATM   30  H           1     -24.239  -1.457 -13.052  0.00  0.00     0.159 HD
HETATM   31  O           1     -25.010  -3.119 -11.373  0.00  0.00    -0.274 OA
ENDBRANCH  26  27
ENDBRANCH  25  26
ENDBRANCH  20  25
ENDBRANCH   4  20
TORSDOF 9
ENDMDL
MODEL 7
REMARK VINA RESULT:      -7.1      2.608      7.623
REMARK  9 active torsions:
REMARK  status: ('A' for Active; 'I' for Inactive)
REMARK    1  A    between atoms: C_1  and  C_2 
REMARK    2  A    between atoms: C_1  and  C_19 
REMARK    3  A    between atoms: C_2  and  C_9 
REMARK    4  A    between atoms: C_2  and  N_11 
REMARK       I    between atoms: N_11  and  C_29 
REMARK    5  A    between atoms: C_14  and  C_31 
REMARK       I    between atoms: C_14  and  N_15 
REMARK    6  A    between atoms: N_17  and  C_28 
REMARK    7  A    between atoms: C_27  and  C_28 
REMARK    8  A    between atoms: C_27  and  C_31 
REMARK    9  A    between atoms: C_28  and  C_29 
ROOT
HETATM    1  N           1     -22.539  -6.400  -3.938  0.00  0.00    -0.344 N 
HETATM    2  H           1     -23.545  -6.347  -4.037  0.00  0.00     0.163 HD
HETATM    3  O           1     -21.661  -5.318  -2.194  0.00  0.00    -0.271 OA
HETATM    4  C           1     -21.972  -6.373  -2.693  0.00  0.00     0.249 C 
ENDROOT
BRANCH   1   5
HETATM    5  C           1     -21.700  -6.506  -5.115  0.00  0.00     0.190 C 
BRANCH   5   6
HETATM    6  C           1     -20.726  -5.336  -5.151  0.00  0.00     0.077 C 
BRANCH   6   7
HETATM    7  C           1     -20.494  -4.920  -6.570  0.00  0.00    -0.028 A 
HETATM    8  C           1     -19.273  -4.826  -7.198  0.00  0.00     0.096 A 
HETATM    9  N           1     -19.496  -4.415  -8.486  0.00  0.00    -0.365 N 
HETATM   10  C           1     -20.844  -4.241  -8.704  0.00  0.00     0.042 A 
HETATM   11  H           1     -18.745  -4.256  -9.203  0.00  0.00     0.165 HD
HETATM   12  C           1     -21.529  -3.834  -9.855  0.00  0.00     0.030 A 
HETATM   13  C           1     -21.496  -4.553  -7.511  0.00  0.00    -0.002 A 
HETATM   14  C           1     -22.923  -3.747  -9.781  0.00  0.00     0.002 A 
HETATM   15  C           1     -23.601  -4.052  -8.602  0.00  0.00     0.001 A 
HETATM   16  C           1     -22.899  -4.457  -7.460  0.00  0.00     0.014 A 
ENDBRANCH   6   7
ENDBRANCH   5   6
BRANCH   5  17
HETATM   17  C           1     -20.928  -7.802  -5.067  0.00  0.00     0.197 C 
HETATM   18  O           1     -19.695  -7.788  -4.861  0.00  0.00    -0.646 OA
HETATM   19  O           1     -21.521  -8.889  -5.231  0.00  0.00    -0.646 OA
ENDBRANCH   5  17
ENDBRANCH   1   5
BRANCH   4  20
HETATM   20  C           1     -21.735  -7.662  -1.943  0.00  0.00     0.275 C 
BRANCH  20  21
HETATM   21  N           1     -20.260  -7.864  -1.752  0.00  0.00    -0.066 N 
HETATM   22  H           1     -19.753  -6.984  -1.998  0.00  0.00     0.275 HD
HETATM   23  H           1     -19.933  -8.640  -2.370  0.00  0.00     0.275 HD
HETATM   24  H           1     -20.070  -8.109  -0.755  0.00  0.00     0.275 HD
ENDBRANCH  20  21
BRANCH  20  25
HETATM   25  C           1     -22.417  -7.591  -0.583  0.00  0.00     0.052 C 
BRANCH  25  26
HETATM   26  C           1     -21.917  -8.729   0.297  0.00  0.00     0.105 C 
BRANCH  26  27
HETATM   27  C           1     -22.597 -10.014  -0.108  0.00  0.00     0.215 C 
HETATM   28  N           1     -21.851 -11.071  -0.556  0.00  0.00    -0.370 N 
HETATM   29  H           1     -20.843 -10.991  -0.614  0.00  0.00     0.159 HD
HETATM   30  H           1     -22.306 -11.933  -0.827  0.00  0.00     0.159 HD
HETATM   31  O           1     -23.799 -10.110  -0.038  0.00  0.00    -0.274 OA
ENDBRANCH  26  27
ENDBRANCH  25  26
ENDBRANCH  20  25
ENDBRANCH   4  20
TORSDOF 9
ENDMDL
MODEL 8
REMARK VINA RESULT:      -7.0      2.865      5.292
REMARK  9 active torsions:
REMARK  status: ('A' for Active; 'I' for Inactive)
REMARK    1  A    between atoms: C_1  and  C_2 
REMARK    2  A    between atoms: C_1  and  C_19 
REMARK    3  A    between atoms: C_2  and  C_9 
REMARK    4  A    between atoms: C_2  and  N_11 
REMARK       I    between atoms: N_11  and  C_29 
REMARK    5  A    between atoms: C_14  and  C_31 
REMARK       I    between atoms: C_14  and  N_15 
REMARK    6  A    between atoms: N_17  and  C_28 
REMARK    7  A    between atoms: C_27  and  C_28 
REMARK    8  A    between atoms: C_27  and  C_31 
REMARK    9  A    between atoms: C_28  and  C_29 
ROOT
HETATM    1  N           1     -20.902  -7.398  -2.351  0.00  0.00    -0.344 N 
HETATM    2  H           1     -19.984  -7.091  -2.054  0.00  0.00     0.163 HD
HETATM    3  O           1     -22.489  -5.828  -2.432  0.00  0.00    -0.271 OA
HETATM    4  C           1     -21.722  -6.541  -3.035  0.00  0.00     0.249 C 
ENDROOT
BRANCH   1   5
HETATM    5  C           1     -21.349  -8.745  -2.053  0.00  0.00     0.190 C 
BRANCH   5   6
HETATM    6  C           1     -20.156  -9.691  -2.076  0.00  0.00     0.077 C 
BRANCH   6   7
HETATM    7  C           1     -19.609  -9.774  -3.467  0.00  0.00    -0.028 A 
HETATM    8  C           1     -20.348  -9.890  -4.623  0.00  0.00     0.096 A 
HETATM    9  N           1     -19.473  -9.935  -5.675  0.00  0.00    -0.365 N 
HETATM   10  C           1     -18.176  -9.850  -5.221  0.00  0.00     0.042 A 
HETATM   11  H           1     -19.752 -10.021  -6.684  0.00  0.00     0.165 HD
HETATM   12  C           1     -16.967  -9.857  -5.928  0.00  0.00     0.030 A 
HETATM   13  C           1     -18.235  -9.749  -3.831  0.00  0.00    -0.002 A 
HETATM   14  C           1     -15.785  -9.754  -5.188  0.00  0.00     0.002 A 
HETATM   15  C           1     -15.813  -9.651  -3.798  0.00  0.00     0.001 A 
HETATM   16  C           1     -17.032  -9.647  -3.108  0.00  0.00     0.014 A 
ENDBRANCH   6   7
ENDBRANCH   5   6
BRANCH   5  17
HETATM   17  C           1     -21.987  -8.771  -0.687  0.00  0.00     0.197 C 
HETATM   18  O           1     -21.506  -8.085   0.241  0.00  0.00    -0.646 OA
HETATM   19  O           1     -22.997  -9.479  -0.481  0.00  0.00    -0.646 OA
ENDBRANCH   5  17
ENDBRANCH   1   5
BRANCH   4  20
HETATM   20  C           1     -21.668  -6.486  -4.542  0.00  0.00     0.275 C 
BRANCH  20  21
HETATM   21  N           1     -23.022  -6.121  -5.077  0.00  0.00    -0.066 N 
HETATM   22  H           1     -23.666  -5.913  -4.281  0.00  0.00     0.275 HD
HETATM   23  H           1     -23.401  -6.919  -5.635  0.00  0.00     0.275 HD
HETATM   24  H           1     -22.938  -5.278  -5.688  0.00  0.00     0.275 HD
ENDBRANCH  20  21
BRANCH  20  25
HETATM   25  C           1     -20.653  -5.437  -4.977  0.00  0.00     0.052 C 
BRANCH  25  26
HETATM   26  C           1     -20.118  -5.787  -6.359  0.00  0.00     0.105 C 
BRANCH  26  27
HETATM   27  C           1     -20.613  -4.774  -7.362  0.00  0.00     0.215 C 
HETATM   28  N           1     -19.972  -4.630  -8.563  0.00  0.00    -0.370 N 
HETATM   29  H           1     -19.166  -5.203  -8.779  0.00  0.00     0.159 HD
HETATM   30  H           1     -20.304  -3.950  -9.235  0.00  0.00     0.159 HD
HETATM   31  O           1     -21.575  -4.089  -7.105  0.00  0.00    -0.274 OA
ENDBRANCH  26  27
ENDBRANCH  25  26
ENDBRANCH  20  25
ENDBRANCH   4  20
TORSDOF 9
ENDMDL
MODEL 9
REMARK VINA RESULT:      -6.9      3.181      7.017
REMARK  9 active torsions:
REMARK  status: ('A' for Active; 'I' for Inactive)
REMARK    1  A    between atoms: C_1  and  C_2 
REMARK    2  A    between atoms: C_1  and  C_19 
REMARK    3  A    between atoms: C_2  and  C_9 
REMARK    4  A    between atoms: C_2  and  N_11 
REMARK       I    between atoms: N_11  and  C_29 
REMARK    5  A    between atoms: C_14  and  C_31 
REMARK       I    between atoms: C_14  and  N_15 
REMARK    6  A    between atoms: N_17  and  C_28 
REMARK    7  A    between atoms: C_27  and  C_28 
REMARK    8  A    between atoms: C_27  and  C_31 
REMARK    9  A    between atoms: C_28  and  C_29 
ROOT
HETATM    1  N           1     -20.059 -10.141  -3.354  0.00  0.00    -0.344 N 
HETATM    2  H           1     -19.175  -9.938  -2.904  0.00  0.00     0.163 HD
HETATM    3  O           1     -21.066 -12.037  -2.740  0.00  0.00    -0.271 OA
HETATM    4  C           1     -21.028 -10.831  -2.678  0.00  0.00     0.249 C 
ENDROOT
BRANCH   1   5
HETATM    5  C           1     -20.298  -9.700  -4.715  0.00  0.00     0.190 C 
BRANCH   5   6
HETATM    6  C           1     -19.660  -8.333  -4.924  0.00  0.00     0.077 C 
BRANCH   6   7
HETATM    7  C           1     -20.726  -7.322  -5.205  0.00  0.00    -0.028 A 
HETATM    8  C           1     -21.947  -7.233  -4.575  0.00  0.00     0.096 A 
HETATM    9  N           1     -22.625  -6.176  -5.123  0.00  0.00    -0.365 N 
HETATM   10  C           1     -21.862  -5.576  -6.099  0.00  0.00     0.042 A 
HETATM   11  H           1     -23.588  -5.868  -4.838  0.00  0.00     0.165 HD
HETATM   12  C           1     -22.143  -4.474  -6.917  0.00  0.00     0.030 A 
HETATM   13  C           1     -20.660  -6.279  -6.171  0.00  0.00    -0.002 A 
HETATM   14  C           1     -21.162  -4.082  -7.832  0.00  0.00     0.002 A 
HETATM   15  C           1     -19.951  -4.766  -7.927  0.00  0.00     0.001 A 
HETATM   16  C           1     -19.688  -5.867  -7.101  0.00  0.00     0.014 A 
ENDBRANCH   6   7
ENDBRANCH   5   6
BRANCH   5  17
HETATM   17  C           1     -19.692 -10.691  -5.677  0.00  0.00     0.197 C 
HETATM   18  O           1     -18.602 -10.437  -6.233  0.00  0.00    -0.646 OA
HETATM   19  O           1     -20.279 -11.768  -5.919  0.00  0.00    -0.646 OA
ENDBRANCH   5  17
ENDBRANCH   1   5
BRANCH   4  20
HETATM   20  C           1     -22.051 -10.086  -1.855  0.00  0.00     0.275 C 
BRANCH  20  21
HETATM   21  N           1     -23.287 -10.925  -1.715  0.00  0.00    -0.066 N 
HETATM   22  H           1     -23.942 -10.471  -1.040  0.00  0.00     0.275 HD
HETATM   23  H           1     -23.025 -11.873  -1.365  0.00  0.00     0.275 HD
HETATM   24  H           1     -23.752 -11.015  -2.646  0.00  0.00     0.275 HD
ENDBRANCH  20  21
BRANCH  20  25
HETATM   25  C           1     -21.477  -9.795  -0.474  0.00  0.00     0.052 C 
BRANCH  25  26
HETATM   26  C           1     -21.199  -8.304  -0.341  0.00  0.00     0.105 C 
BRANCH  26  27
HETATM   27  C           1     -22.505  -7.551  -0.285  0.00  0.00     0.215 C 
HETATM   28  N           1     -23.481  -7.938   0.594  0.00  0.00    -0.370 N 
HETATM   29  H           1     -23.325  -8.729   1.206  0.00  0.00     0.159 HD
HETATM   30  H           1     -24.357  -7.433   0.632  0.00  0.00     0.159 HD
HETATM   31  O           1     -22.690  -6.606  -1.015  0.00  0.00    -0.274 OA
ENDBRANCH  26  27
ENDBRANCH  25  26
ENDBRANCH  20  25
ENDBRANCH   4  20
TORSDOF 9
ENDMDL
