MODEL 1
REMARK VINA RESULT:      -7.4      0.000      0.000
REMARK  7 active torsions:
REMARK  status: ('A' for Active; 'I' for Inactive)
REMARK    1  A    between atoms: C_7  and  C_10 
REMARK    2  A    between atoms: C_7  and  C_14 
REMARK    3  A    between atoms: C_7  and  N_22 
REMARK    4  A    between atoms: C_9  and  C_13 
REMARK    5  A    between atoms: C_11  and  C_14 
REMARK    6  A    between atoms: C_13  and  C_23 
REMARK    7  A    between atoms: C_13  and  N_19 
REMARK       I    between atoms: N_22  and  C_23 
ROOT
HETATM    1  H           1     -36.959   1.001 -11.526  0.00  0.00     0.163 HD
HETATM    2  O           1     -38.002  -0.761 -13.480  0.00  0.00    -0.271 OA
HETATM    3  N           1     -36.777   0.043 -11.794  0.00  0.00    -0.344 N 
HETATM    4  C           1     -36.934  -0.346 -13.098  0.00  0.00     0.249 C 
ENDROOT
BRANCH   3   5
HETATM    5  C           1     -36.349  -0.920 -10.798  0.00  0.00     0.189 C 
BRANCH   5   6
HETATM    6  C           1     -36.744  -0.433  -9.426  0.00  0.00     0.197 C 
HETATM    7  O           1     -37.952  -0.339  -9.120  0.00  0.00    -0.646 OA
HETATM    8  O           1     -35.862  -0.124  -8.594  0.00  0.00    -0.646 OA
ENDBRANCH   5   6
BRANCH   5   9
HETATM    9  C           1     -34.837  -1.081 -10.865  0.00  0.00     0.074 C 
BRANCH   9  10
HETATM   10  C           1     -34.493  -2.532 -11.003  0.00  0.00    -0.056 A 
HETATM   11  C           1     -33.191  -2.911 -11.327  0.00  0.00     0.007 A 
HETATM   12  C           1     -32.870  -4.264 -11.456  0.00  0.00     0.001 A 
HETATM   13  C           1     -33.853  -5.235 -11.260  0.00  0.00     0.000 A 
HETATM   14  C           1     -35.154  -4.854 -10.935  0.00  0.00     0.001 A 
HETATM   15  C           1     -35.475  -3.503 -10.807  0.00  0.00     0.007 A 
ENDBRANCH   9  10
ENDBRANCH   5   9
ENDBRANCH   3   5
BRANCH   4  16
HETATM   16  C           1     -35.772  -0.254 -14.057  0.00  0.00     0.278 C 
BRANCH  16  17
HETATM   17  C           1     -36.276   0.196 -15.423  0.00  0.00     0.017 C 
HETATM   18  C           1     -35.728   1.583 -15.735  0.00  0.00     0.012 C 
HETATM   19  C           1     -35.804  -0.786 -16.487  0.00  0.00     0.012 C 
ENDBRANCH  16  17
BRANCH  16  20
HETATM   20  N           1     -35.123  -1.600 -14.184  0.00  0.00    -0.066 N 
HETATM   21  H           1     -35.605  -2.281 -13.555  0.00  0.00     0.275 HD
HETATM   22  H           1     -35.196  -1.929 -15.174  0.00  0.00     0.275 HD
HETATM   23  H           1     -34.116  -1.528 -13.913  0.00  0.00     0.275 HD
ENDBRANCH  16  20
ENDBRANCH   4  16
TORSDOF 7
ENDMDL
MODEL 2
REMARK VINA RESULT:      -6.5     17.519     19.572
REMARK  7 active torsions:
REMARK  status: ('A' for Active; 'I' for Inactive)
REMARK    1  A    between atoms: C_7  and  C_10 
REMARK    2  A    between atoms: C_7  and  C_14 
REMARK    3  A    between atoms: C_7  and  N_22 
REMARK    4  A    between atoms: C_9  and  C_13 
REMARK    5  A    between atoms: C_11  and  C_14 
REMARK    6  A    between atoms: C_13  and  C_23 
REMARK    7  A    between atoms: C_13  and  N_19 
REMARK       I    between atoms: N_22  and  C_23 
ROOT
HETATM    1  H           1     -19.270  -7.122  -3.204  0.00  0.00     0.163 HD
HETATM    2  O           1     -19.614  -8.477  -5.665  0.00  0.00    -0.271 OA
HETATM    3  N           1     -19.908  -7.829  -3.548  0.00  0.00    -0.344 N 
HETATM    4  C           1     -19.489  -8.730  -4.490  0.00  0.00     0.249 C 
ENDROOT
BRANCH   3   5
HETATM    5  C           1     -21.266  -7.888  -3.043  0.00  0.00     0.189 C 
BRANCH   5   6
HETATM    6  C           1     -21.919  -6.536  -3.197  0.00  0.00     0.197 C 
HETATM    7  O           1     -22.404  -5.958  -2.201  0.00  0.00    -0.646 OA
HETATM    8  O           1     -21.974  -5.993  -4.323  0.00  0.00    -0.646 OA
ENDBRANCH   5   6
BRANCH   5   9
HETATM    9  C           1     -21.244  -8.276  -1.571  0.00  0.00     0.074 C 
BRANCH   9  10
HETATM   10  C           1     -22.187  -9.416  -1.340  0.00  0.00    -0.056 A 
HETATM   11  C           1     -22.990  -9.436  -0.200  0.00  0.00     0.007 A 
HETATM   12  C           1     -23.869 -10.499   0.015  0.00  0.00     0.001 A 
HETATM   13  C           1     -23.945 -11.539  -0.911  0.00  0.00     0.000 A 
HETATM   14  C           1     -23.142 -11.518  -2.052  0.00  0.00     0.001 A 
HETATM   15  C           1     -22.263 -10.456  -2.267  0.00  0.00     0.007 A 
ENDBRANCH   9  10
ENDBRANCH   5   9
ENDBRANCH   3   5
BRANCH   4  16
HETATM   16  C           1     -18.870 -10.037  -4.060  0.00  0.00     0.278 C 
BRANCH  16  17
HETATM   17  C           1     -18.141  -9.843  -2.737  0.00  0.00     0.017 C 
HETATM   18  C           1     -18.357 -11.064  -1.852  0.00  0.00     0.012 C 
HETATM   19  C           1     -16.651  -9.665  -3.000  0.00  0.00     0.012 C 
ENDBRANCH  16  17
BRANCH  16  20
HETATM   20  N           1     -17.897 -10.496  -5.104  0.00  0.00    -0.066 N 
HETATM   21  H           1     -17.661 -11.501  -4.943  0.00  0.00     0.275 HD
HETATM   22  H           1     -18.325 -10.387  -6.051  0.00  0.00     0.275 HD
HETATM   23  H           1     -17.027  -9.920  -5.046  0.00  0.00     0.275 HD
ENDBRANCH  16  20
ENDBRANCH   4  16
TORSDOF 7
ENDMDL
MODEL 3
REMARK VINA RESULT:      -6.5     15.580     18.133
REMARK  7 active torsions:
REMARK  status: ('A' for Active; 'I' for Inactive)
REMARK    1  A    between atoms: C_7  and  C_10 
REMARK    2  A    between atoms: C_7  and  C_14 
REMARK    3  A    between atoms: C_7  and  N_22 
REMARK    4  A    between atoms: C_9  and  C_13 
REMARK    5  A    between atoms: C_11  and  C_14 
REMARK    6  A    between atoms: C_13  and  C_23 
REMARK    7  A    between atoms: C_13  and  N_19 
REMARK       I    between atoms: N_22  and  C_23 
ROOT
HETATM    1  H           1     -23.700  -6.747  -3.676  0.00  0.00     0.163 HD
HETATM    2  O           1     -21.898  -5.578  -1.833  0.00  0.00    -0.271 OA
HETATM    3  N           1     -22.693  -6.729  -3.574  0.00  0.00    -0.344 N 
HETATM    4  C           1     -22.132  -6.655  -2.328  0.00  0.00     0.249 C 
ENDROOT
BRANCH   3   5
HETATM    5  C           1     -21.844  -6.781  -4.749  0.00  0.00     0.189 C 
BRANCH   5   6
HETATM    6  C           1     -21.029  -8.051  -4.723  0.00  0.00     0.197 C 
HETATM    7  O           1     -21.589  -9.157  -4.883  0.00  0.00    -0.646 OA
HETATM    8  O           1     -19.793  -7.997  -4.542  0.00  0.00    -0.646 OA
ENDBRANCH   5   6
BRANCH   5   9
HETATM    9  C           1     -20.911  -5.579  -4.754  0.00  0.00     0.074 C 
BRANCH   9  10
HETATM   10  C           1     -20.796  -5.042  -6.148  0.00  0.00    -0.056 A 
HETATM   11  C           1     -19.538  -4.803  -6.700  0.00  0.00     0.007 A 
HETATM   12  C           1     -19.431  -4.303  -7.999  0.00  0.00     0.001 A 
HETATM   13  C           1     -20.582  -4.043  -8.743  0.00  0.00     0.000 A 
HETATM   14  C           1     -21.839  -4.283  -8.190  0.00  0.00     0.001 A 
HETATM   15  C           1     -21.947  -4.783  -6.892  0.00  0.00     0.007 A 
ENDBRANCH   9  10
ENDBRANCH   5   9
ENDBRANCH   3   5
BRANCH   4  16
HETATM   16  C           1     -21.807  -7.920  -1.571  0.00  0.00     0.278 C 
BRANCH  16  17
HETATM   17  C           1     -22.502  -7.894  -0.215  0.00  0.00     0.017 C 
HETATM   18  C           1     -23.356  -9.144  -0.056  0.00  0.00     0.012 C 
HETATM   19  C           1     -21.454  -7.851   0.890  0.00  0.00     0.012 C 
ENDBRANCH  16  17
BRANCH  16  20
HETATM   20  N           1     -20.324  -8.014  -1.370  0.00  0.00    -0.066 N 
HETATM   21  H           1     -20.120  -8.194  -0.361  0.00  0.00     0.275 HD
HETATM   22  H           1     -19.944  -8.799  -1.947  0.00  0.00     0.275 HD
HETATM   23  H           1     -19.875  -7.117  -1.663  0.00  0.00     0.275 HD
ENDBRANCH  16  20
ENDBRANCH   4  16
TORSDOF 7
ENDMDL
MODEL 4
REMARK VINA RESULT:      -6.4     17.482     19.654
REMARK  7 active torsions:
REMARK  status: ('A' for Active; 'I' for Inactive)
REMARK    1  A    between atoms: C_7  and  C_10 
REMARK    2  A    between atoms: C_7  and  C_14 
REMARK    3  A    between atoms: C_7  and  N_22 
REMARK    4  A    between atoms: C_9  and  C_13 
REMARK    5  A    between atoms: C_11  and  C_14 
REMARK    6  A    between atoms: C_13  and  C_23 
REMARK    7  A    between atoms: C_13  and  N_19 
REMARK       I    between atoms: N_22  and  C_23 
ROOT
HETATM    1  H           1     -22.490  -8.209  -3.983  0.00  0.00     0.163 HD
HETATM    2  O           1     -22.161  -5.974  -2.278  0.00  0.00    -0.271 OA
HETATM    3  N           1     -21.695  -7.720  -3.591  0.00  0.00    -0.344 N 
HETATM    4  C           1     -21.797  -7.123  -2.363  0.00  0.00     0.249 C 
ENDROOT
BRANCH   3   5
HETATM    5  C           1     -20.449  -7.652  -4.329  0.00  0.00     0.189 C 
BRANCH   5   6
HETATM    6  C           1     -20.579  -6.640  -5.441  0.00  0.00     0.197 C 
HETATM    7  O           1     -20.672  -7.023  -6.627  0.00  0.00    -0.646 OA
HETATM    8  O           1     -20.594  -5.418  -5.176  0.00  0.00    -0.646 OA
ENDBRANCH   5   6
BRANCH   5   9
HETATM    9  C           1     -20.133  -9.019  -4.920  0.00  0.00     0.074 C 
BRANCH   9  10
HETATM   10  C           1     -18.683  -9.329  -4.715  0.00  0.00    -0.056 A 
HETATM   11  C           1     -17.877  -9.645  -5.809  0.00  0.00     0.007 A 
HETATM   12  C           1     -16.525  -9.934  -5.618  0.00  0.00     0.001 A 
HETATM   13  C           1     -15.980  -9.905  -4.335  0.00  0.00     0.000 A 
HETATM   14  C           1     -16.786  -9.587  -3.242  0.00  0.00     0.001 A 
HETATM   15  C           1     -18.137  -9.299  -3.432  0.00  0.00     0.007 A 
ENDBRANCH   9  10
ENDBRANCH   5   9
ENDBRANCH   3   5
BRANCH   4  16
HETATM   16  C           1     -21.453  -7.901  -1.116  0.00  0.00     0.278 C 
BRANCH  16  17
HETATM   17  C           1     -21.811  -9.368  -1.318  0.00  0.00     0.017 C 
HETATM   18  C           1     -20.606 -10.237  -0.982  0.00  0.00     0.012 C 
HETATM   19  C           1     -22.973  -9.737  -0.405  0.00  0.00     0.012 C 
ENDBRANCH  16  17
BRANCH  16  20
HETATM   20  N           1     -22.230  -7.353   0.043  0.00  0.00    -0.066 N 
HETATM   21  H           1     -21.585  -7.189   0.849  0.00  0.00     0.275 HD
HETATM   22  H           1     -22.678  -6.449  -0.233  0.00  0.00     0.275 HD
HETATM   23  H           1     -22.969  -8.037   0.322  0.00  0.00     0.275 HD
ENDBRANCH  16  20
ENDBRANCH   4  16
TORSDOF 7
ENDMDL
MODEL 5
REMARK VINA RESULT:      -6.4     17.039     18.937
REMARK  7 active torsions:
REMARK  status: ('A' for Active; 'I' for Inactive)
REMARK    1  A    between atoms: C_7  and  C_10 
REMARK    2  A    between atoms: C_7  and  C_14 
REMARK    3  A    between atoms: C_7  and  N_22 
REMARK    4  A    between atoms: C_9  and  C_13 
REMARK    5  A    between atoms: C_11  and  C_14 
REMARK    6  A    between atoms: C_13  and  C_23 
REMARK    7  A    between atoms: C_13  and  N_19 
REMARK       I    between atoms: N_22  and  C_23 
ROOT
HETATM    1  H           1     -20.130  -7.479  -1.607  0.00  0.00     0.163 HD
HETATM    2  O           1     -22.217  -5.729  -2.373  0.00  0.00    -0.271 OA
HETATM    3  N           1     -21.120  -7.583  -1.786  0.00  0.00    -0.344 N 
HETATM    4  C           1     -21.737  -6.784  -2.711  0.00  0.00     0.249 C 
ENDROOT
BRANCH   3   5
HETATM    5  C           1     -21.888  -8.579  -1.063  0.00  0.00     0.189 C 
BRANCH   5   6
HETATM    6  C           1     -22.327  -8.009   0.263  0.00  0.00     0.197 C 
HETATM    7  O           1     -21.537  -7.999   1.232  0.00  0.00    -0.646 OA
HETATM    8  O           1     -23.482  -7.547   0.394  0.00  0.00    -0.646 OA
ENDBRANCH   5   6
BRANCH   5   9
HETATM    9  C           1     -21.025  -9.811  -0.826  0.00  0.00     0.074 C 
BRANCH   9  10
HETATM   10  C           1     -21.891 -10.951  -0.389  0.00  0.00    -0.056 A 
HETATM   11  C           1     -21.478 -11.780   0.654  0.00  0.00     0.007 A 
HETATM   12  C           1     -22.285 -12.842   1.063  0.00  0.00     0.001 A 
HETATM   13  C           1     -23.505 -13.075   0.428  0.00  0.00     0.000 A 
HETATM   14  C           1     -23.918 -12.245  -0.615  0.00  0.00     0.001 A 
HETATM   15  C           1     -23.111 -11.184  -1.023  0.00  0.00     0.007 A 
ENDBRANCH   9  10
ENDBRANCH   5   9
ENDBRANCH   3   5
BRANCH   4  16
HETATM   16  C           1     -21.815  -7.223  -4.153  0.00  0.00     0.278 C 
BRANCH  16  17
HETATM   17  C           1     -20.410  -7.298  -4.738  0.00  0.00     0.017 C 
HETATM   18  C           1     -20.055  -8.751  -5.023  0.00  0.00     0.012 C 
HETATM   19  C           1     -20.357  -6.499  -6.034  0.00  0.00     0.012 C 
ENDBRANCH  16  17
BRANCH  16  20
HETATM   20  N           1     -22.627  -6.232  -4.933  0.00  0.00    -0.066 N 
HETATM   21  H           1     -23.420  -6.724  -5.403  0.00  0.00     0.275 HD
HETATM   22  H           1     -23.006  -5.505  -4.283  0.00  0.00     0.275 HD
HETATM   23  H           1     -22.023  -5.776  -5.653  0.00  0.00     0.275 HD
ENDBRANCH  16  20
ENDBRANCH   4  16
TORSDOF 7
ENDMDL
MODEL 6
REMARK VINA RESULT:      -6.4     17.035     19.597
REMARK  7 active torsions:
REMARK  status: ('A' for Active; 'I' for Inactive)
REMARK    1  A    between atoms: C_7  and  C_10 
REMARK    2  A    between atoms: C_7  and  C_14 
REMARK    3  A    between atoms: C_7  and  N_22 
REMARK    4  A    between atoms: C_9  and  C_13 
REMARK    5  A    between atoms: C_11  and  C_14 
REMARK    6  A    between atoms: C_13  and  C_23 
REMARK    7  A    between atoms: C_13  and  N_19 
REMARK       I    between atoms: N_22  and  C_23 
ROOT
HETATM    1  H           1     -18.958  -7.714  -4.453  0.00  0.00     0.163 HD
HETATM    2  O           1     -19.601  -9.961  -6.049  0.00  0.00    -0.271 OA
HETATM    3  N           1     -19.714  -8.387  -4.469  0.00  0.00    -0.344 N 
HETATM    4  C           1     -19.479  -9.671  -4.882  0.00  0.00     0.249 C 
ENDROOT
BRANCH   3   5
HETATM    5  C           1     -21.046  -7.993  -4.052  0.00  0.00     0.189 C 
BRANCH   5   6
HETATM    6  C           1     -21.643  -7.071  -5.086  0.00  0.00     0.197 C 
HETATM    7  O           1     -21.206  -7.077  -6.257  0.00  0.00    -0.646 OA
HETATM    8  O           1     -22.577  -6.300  -4.772  0.00  0.00    -0.646 OA
ENDBRANCH   5   6
BRANCH   5   9
HETATM    9  C           1     -20.966  -7.272  -2.714  0.00  0.00     0.074 C 
BRANCH   9  10
HETATM   10  C           1     -21.769  -8.019  -1.694  0.00  0.00    -0.056 A 
HETATM   11  C           1     -21.963  -9.393  -1.832  0.00  0.00     0.007 A 
HETATM   12  C           1     -22.712 -10.090  -0.881  0.00  0.00     0.001 A 
HETATM   13  C           1     -23.264  -9.412   0.205  0.00  0.00     0.000 A 
HETATM   14  C           1     -23.068  -8.038   0.342  0.00  0.00     0.001 A 
HETATM   15  C           1     -22.321  -7.341  -0.607  0.00  0.00     0.007 A 
ENDBRANCH   9  10
ENDBRANCH   5   9
ENDBRANCH   3   5
BRANCH   4  16
HETATM   16  C           1     -19.067 -10.723  -3.881  0.00  0.00     0.278 C 
BRANCH  16  17
HETATM   17  C           1     -18.399 -10.052  -2.687  0.00  0.00     0.017 C 
HETATM   18  C           1     -18.552 -10.936  -1.456  0.00  0.00     0.012 C 
HETATM   19  C           1     -16.919  -9.847  -2.983  0.00  0.00     0.012 C 
ENDBRANCH  16  17
BRANCH  16  20
HETATM   20  N           1     -18.102 -11.673  -4.524  0.00  0.00    -0.066 N 
HETATM   21  H           1     -18.631 -12.442  -4.994  0.00  0.00     0.275 HD
HETATM   22  H           1     -17.530 -11.161  -5.233  0.00  0.00     0.275 HD
HETATM   23  H           1     -17.474 -12.078  -3.794  0.00  0.00     0.275 HD
ENDBRANCH  16  20
ENDBRANCH   4  16
TORSDOF 7
ENDMDL
MODEL 7
REMARK VINA RESULT:      -6.3     15.069     17.988
REMARK  7 active torsions:
REMARK  status: ('A' for Active; 'I' for Inactive)
REMARK    1  A    between atoms: C_7  and  C_10 
REMARK    2  A    between atoms: C_7  and  C_14 
REMARK    3  A    between atoms: C_7  and  N_22 
REMARK    4  A    between atoms: C_9  and  C_13 
REMARK    5  A    between atoms: C_11  and  C_14 
REMARK    6  A    between atoms: C_13  and  C_23 
REMARK    7  A    between atoms: C_13  and  N_19 
REMARK       I    between atoms: N_22  and  C_23 
ROOT
HETATM    1  H           1     -22.033  -8.812  -4.693  0.00  0.00     0.163 HD
HETATM    2  O           1     -23.123  -6.245  -4.209  0.00  0.00    -0.271 OA
HETATM    3  N           1     -21.676  -7.866  -4.729  0.00  0.00    -0.344 N 
HETATM    4  C           1     -22.172  -6.914  -3.879  0.00  0.00     0.249 C 
ENDROOT
BRANCH   3   5
HETATM    5  C           1     -20.640  -7.517  -5.681  0.00  0.00     0.189 C 
BRANCH   5   6
HETATM    6  C           1     -19.398  -8.322  -5.388  0.00  0.00     0.197 C 
HETATM    7  O           1     -18.612  -8.620  -6.313  0.00  0.00    -0.646 OA
HETATM    8  O           1     -19.153  -8.692  -4.218  0.00  0.00    -0.646 OA
ENDBRANCH   5   6
BRANCH   5   9
HETATM    9  C           1     -20.322  -6.033  -5.565  0.00  0.00     0.074 C 
BRANCH   9  10
HETATM   10  C           1     -20.674  -5.345  -6.847  0.00  0.00    -0.056 A 
HETATM   11  C           1     -21.893  -4.679  -6.969  0.00  0.00     0.007 A 
HETATM   12  C           1     -22.222  -4.037  -8.164  0.00  0.00     0.001 A 
HETATM   13  C           1     -21.329  -4.061  -9.236  0.00  0.00     0.000 A 
HETATM   14  C           1     -20.110  -4.726  -9.113  0.00  0.00     0.001 A 
HETATM   15  C           1     -19.782  -5.368  -7.919  0.00  0.00     0.007 A 
ENDBRANCH   9  10
ENDBRANCH   5   9
ENDBRANCH   3   5
BRANCH   4  16
HETATM   16  C           1     -21.531  -6.701  -2.529  0.00  0.00     0.278 C 
BRANCH  16  17
HETATM   17  C           1     -21.804  -7.908  -1.641  0.00  0.00     0.017 C 
HETATM   18  C           1     -20.485  -8.555  -1.241  0.00  0.00     0.012 C 
HETATM   19  C           1     -22.549  -7.460  -0.390  0.00  0.00     0.012 C 
ENDBRANCH  16  17
BRANCH  16  20
HETATM   20  N           1     -22.107  -5.472  -1.891  0.00  0.00    -0.066 N 
HETATM   21  H           1     -22.328  -4.766  -2.630  0.00  0.00     0.275 HD
HETATM   22  H           1     -22.982  -5.724  -1.378  0.00  0.00     0.275 HD
HETATM   23  H           1     -21.413  -5.069  -1.222  0.00  0.00     0.275 HD
ENDBRANCH  16  20
ENDBRANCH   4  16
TORSDOF 7
ENDMDL
MODEL 8
REMARK VINA RESULT:      -6.2      2.072      4.135
REMARK  7 active torsions:
REMARK  status: ('A' for Active; 'I' for Inactive)
REMARK    1  A    between atoms: C_7  and  C_10 
REMARK    2  A    between atoms: C_7  and  C_14 
REMARK    3  A    between atoms: C_7  and  N_22 
REMARK    4  A    between atoms: C_9  and  C_13 
REMARK    5  A    between atoms: C_11  and  C_14 
REMARK    6  A    between atoms: C_13  and  C_23 
REMARK    7  A    between atoms: C_13  and  N_19 
REMARK       I    between atoms: N_22  and  C_23 
ROOT
HETATM    1  H           1     -34.181  -1.213 -10.077  0.00  0.00     0.163 HD
HETATM    2  O           1     -36.849  -2.135 -10.278  0.00  0.00    -0.271 OA
HETATM    3  N           1     -34.893  -1.190 -10.795  0.00  0.00    -0.344 N 
HETATM    4  C           1     -36.215  -1.121 -10.448  0.00  0.00     0.249 C 
ENDROOT
BRANCH   3   5
HETATM    5  C           1     -34.513  -1.230 -12.194  0.00  0.00     0.189 C 
BRANCH   5   6
HETATM    6  C           1     -35.080  -0.026 -12.904  0.00  0.00     0.197 C 
HETATM    7  O           1     -36.101  -0.143 -13.616  0.00  0.00    -0.646 OA
HETATM    8  O           1     -34.530   1.090 -12.779  0.00  0.00    -0.646 OA
ENDBRANCH   5   6
BRANCH   5   9
HETATM    9  C           1     -35.059  -2.500 -12.832  0.00  0.00     0.074 C 
BRANCH   9  10
HETATM   10  C           1     -34.405  -3.694 -12.209  0.00  0.00    -0.056 A 
HETATM   11  C           1     -33.023  -3.858 -12.301  0.00  0.00     0.007 A 
HETATM   12  C           1     -32.413  -4.971 -11.719  0.00  0.00     0.001 A 
HETATM   13  C           1     -33.186  -5.918 -11.047  0.00  0.00     0.000 A 
HETATM   14  C           1     -34.568  -5.752 -10.955  0.00  0.00     0.001 A 
HETATM   15  C           1     -35.177  -4.640 -11.536  0.00  0.00     0.007 A 
ENDBRANCH   9  10
ENDBRANCH   5   9
ENDBRANCH   3   5
BRANCH   4  16
HETATM   16  C           1     -36.881   0.223 -10.277  0.00  0.00     0.278 C 
BRANCH  16  17
HETATM   17  C           1     -37.336   0.384  -8.832  0.00  0.00     0.017 C 
HETATM   18  C           1     -36.123   0.368  -7.911  0.00  0.00     0.012 C 
HETATM   19  C           1     -38.073   1.708  -8.677  0.00  0.00     0.012 C 
ENDBRANCH  16  17
BRANCH  16  20
HETATM   20  N           1     -38.069   0.311 -11.187  0.00  0.00    -0.066 N 
HETATM   21  H           1     -38.085   1.247 -11.651  0.00  0.00     0.275 HD
HETATM   22  H           1     -38.005  -0.437 -11.915  0.00  0.00     0.275 HD
HETATM   23  H           1     -38.944   0.183 -10.631  0.00  0.00     0.275 HD
ENDBRANCH  16  20
ENDBRANCH   4  16
TORSDOF 7
ENDMDL
MODEL 9
REMARK VINA RESULT:      -6.1     18.422     19.708
REMARK  7 active torsions:
REMARK  status: ('A' for Active; 'I' for Inactive)
REMARK    1  A    between atoms: C_7  and  C_10 
REMARK    2  A    between atoms: C_7  and  C_14 
REMARK    3  A    between atoms: C_7  and  N_22 
REMARK    4  A    between atoms: C_9  and  C_13 
REMARK    5  A    between atoms: C_11  and  C_14 
REMARK    6  A    between atoms: C_13  and  C_23 
REMARK    7  A    between atoms: C_13  and  N_19 
REMARK       I    between atoms: N_22  and  C_23 
ROOT
HETATM    1  H           1     -19.298  -8.107  -1.992  0.00  0.00     0.163 HD
HETATM    2  O           1     -20.252  -8.467  -4.632  0.00  0.00    -0.271 OA
HETATM    3  N           1     -20.151  -8.467  -2.401  0.00  0.00    -0.344 N 
HETATM    4  C           1     -20.114  -9.102  -3.613  0.00  0.00     0.249 C 
ENDROOT
BRANCH   3   5
HETATM    5  C           1     -21.412  -8.311  -1.702  0.00  0.00     0.189 C 
BRANCH   5   6
HETATM    6  C           1     -21.847  -6.868  -1.768  0.00  0.00     0.197 C 
HETATM    7  O           1     -21.352  -6.103  -2.624  0.00  0.00    -0.646 OA
HETATM    8  O           1     -22.705  -6.436  -0.967  0.00  0.00    -0.646 OA
ENDBRANCH   5   6
BRANCH   5   9
HETATM    9  C           1     -21.241  -8.724  -0.247  0.00  0.00     0.074 C 
BRANCH   9  10
HETATM   10  C           1     -21.984 -10.000   0.001  0.00  0.00    -0.056 A 
HETATM   11  C           1     -23.334 -10.097  -0.338  0.00  0.00     0.007 A 
HETATM   12  C           1     -24.027 -11.287  -0.107  0.00  0.00     0.001 A 
HETATM   13  C           1     -23.369 -12.378   0.462  0.00  0.00     0.000 A 
HETATM   14  C           1     -22.019 -12.280   0.799  0.00  0.00     0.001 A 
HETATM   15  C           1     -21.327 -11.091   0.569  0.00  0.00     0.007 A 
ENDBRANCH   9  10
ENDBRANCH   5   9
ENDBRANCH   3   5
BRANCH   4  16
HETATM   16  C           1     -19.901 -10.595  -3.676  0.00  0.00     0.278 C 
BRANCH  16  17
HETATM   17  C           1     -21.251 -11.297  -3.748  0.00  0.00     0.017 C 
HETATM   18  C           1     -21.519 -11.741  -5.180  0.00  0.00     0.012 C 
HETATM   19  C           1     -21.238 -12.515  -2.833  0.00  0.00     0.012 C 
ENDBRANCH  16  17
BRANCH  16  20
HETATM   20  N           1     -19.168 -11.047  -2.449  0.00  0.00    -0.066 N 
HETATM   21  H           1     -18.181 -10.705  -2.487  0.00  0.00     0.275 HD
HETATM   22  H           1     -19.638 -10.658  -1.600  0.00  0.00     0.275 HD
HETATM   23  H           1     -19.173 -12.090  -2.404  0.00  0.00     0.275 HD
ENDBRANCH  16  20
ENDBRANCH   4  16
TORSDOF 7
ENDMDL
