MODEL 1
REMARK VINA RESULT:      -9.0      0.000      0.000
REMARK  12 active torsions:
REMARK  status: ('A' for Active; 'I' for Inactive)
REMARK    1  A    between atoms: C_1  and  C_19 
REMARK    2  A    between atoms: C_1  and  C_2 
REMARK    3  A    between atoms: C_1  and  N_14 
REMARK    4  A    between atoms: C_2  and  C_3 
REMARK    5  A    between atoms: C_6  and  O_7 
REMARK    6  A    between atoms: O_7  and  P_8 
REMARK    7  A    between atoms: P_8  and  O_9 
REMARK       I    between atoms: C_19  and  N_20 
REMARK    8  A    between atoms: N_20  and  C_24 
REMARK    9  A    between atoms: C_23  and  C_24 
REMARK   10  A    between atoms: C_24  and  C_25 
REMARK   11  A    between atoms: C_25  and  C_28 
REMARK   12  A    between atoms: C_31  and  O_32 
ROOT
HETATM    1  C           1     -20.383  -4.673  -7.259  0.00  0.00     0.278 C 
ENDROOT
BRANCH   1   2
HETATM    2  C           1     -20.307  -5.514  -6.008  0.00  0.00     0.249 C 
HETATM    3  O           1     -20.403  -4.992  -4.923  0.00  0.00    -0.271 OA
HETATM    4  N           1     -20.129  -6.868  -6.103  0.00  0.00    -0.344 N 
HETATM    5  H           1     -20.049  -7.306  -7.012  0.00  0.00     0.163 HD
BRANCH   4   6
HETATM    6  C           1     -20.057  -7.675  -4.902  0.00  0.00     0.189 C 
BRANCH   6   7
HETATM    7  C           1     -19.103  -8.823  -5.125  0.00  0.00     0.197 C 
HETATM    8  O           1     -18.827  -9.598  -4.183  0.00  0.00    -0.646 OA
HETATM    9  O           1     -18.589  -8.999  -6.249  0.00  0.00    -0.646 OA
ENDBRANCH   6   7
BRANCH   6  10
HETATM   10  C           1     -21.441  -8.222  -4.574  0.00  0.00     0.074 C 
BRANCH  10  11
HETATM   11  C           1     -21.691  -8.098  -3.102  0.00  0.00    -0.056 A 
HETATM   12  C           1     -21.695  -9.236  -2.298  0.00  0.00     0.010 A 
HETATM   13  C           1     -21.927  -9.122  -0.927  0.00  0.00     0.037 A 
HETATM   14  C           1     -22.157  -7.867  -0.362  0.00  0.00     0.065 A 
HETATM   15  C           1     -22.152  -6.728  -1.167  0.00  0.00     0.037 A 
HETATM   16  C           1     -21.920  -6.843  -2.538  0.00  0.00     0.010 A 
BRANCH  14  17
HETATM   17  O           1     -22.382  -7.755   0.969  0.00  0.00    -0.361 OA
HETATM   18  H           1     -22.118  -6.862   1.244  0.00  0.00     0.217 HD
ENDBRANCH  14  17
ENDBRANCH  10  11
ENDBRANCH   6  10
ENDBRANCH   4   6
ENDBRANCH   1   2
BRANCH   1  19
HETATM   19  C           1     -20.969  -5.503  -8.394  0.00  0.00     0.081 C 
BRANCH  19  20
HETATM   20  C           1     -21.503  -4.592  -9.454  0.00  0.00    -0.056 A 
HETATM   21  C           1     -20.691  -4.215 -10.524  0.00  0.00     0.010 A 
HETATM   22  C           1     -21.189  -3.366 -11.512  0.00  0.00     0.038 A 
HETATM   23  C           1     -22.498  -2.893 -11.430  0.00  0.00     0.081 A 
HETATM   24  C           1     -23.310  -3.269 -10.361  0.00  0.00     0.038 A 
HETATM   25  C           1     -22.813  -4.119  -9.372  0.00  0.00     0.010 A 
BRANCH  23  26
HETATM   26  O           1     -22.982  -2.068 -12.390  0.00  0.00    -0.247 OA
BRANCH  26  27
HETATM   27  P           1     -23.495  -2.730 -13.771  0.00  0.00     0.411 P 
HETATM   28  O           1     -24.314  -3.925 -13.468  0.00  0.00    -0.624 OA
HETATM   29  O           1     -24.312  -1.747 -14.516  0.00  0.00    -0.624 OA
BRANCH  27  30
HETATM   30  O           1     -22.223  -3.163 -14.668  0.00  0.00    -0.300 OA
HETATM   31  H           1     -21.602  -3.517 -14.055  0.00  0.00     0.223 HD
ENDBRANCH  27  30
ENDBRANCH  26  27
ENDBRANCH  23  26
ENDBRANCH  19  20
ENDBRANCH   1  19
BRANCH   1  32
HETATM   32  N           1     -19.005  -4.215  -7.637  0.00  0.00    -0.066 N 
HETATM   33  H           1     -19.065  -3.287  -8.114  0.00  0.00     0.275 HD
HETATM   34  H           1     -18.421  -4.124  -6.775  0.00  0.00     0.275 HD
HETATM   35  H           1     -18.570  -4.911  -8.282  0.00  0.00     0.275 HD
ENDBRANCH   1  32
TORSDOF 12
ENDMDL
MODEL 2
REMARK VINA RESULT:      -8.7      1.769      2.484
REMARK  12 active torsions:
REMARK  status: ('A' for Active; 'I' for Inactive)
REMARK    1  A    between atoms: C_1  and  C_19 
REMARK    2  A    between atoms: C_1  and  C_2 
REMARK    3  A    between atoms: C_1  and  N_14 
REMARK    4  A    between atoms: C_2  and  C_3 
REMARK    5  A    between atoms: C_6  and  O_7 
REMARK    6  A    between atoms: O_7  and  P_8 
REMARK    7  A    between atoms: P_8  and  O_9 
REMARK       I    between atoms: C_19  and  N_20 
REMARK    8  A    between atoms: N_20  and  C_24 
REMARK    9  A    between atoms: C_23  and  C_24 
REMARK   10  A    between atoms: C_24  and  C_25 
REMARK   11  A    between atoms: C_25  and  C_28 
REMARK   12  A    between atoms: C_31  and  O_32 
ROOT
HETATM    1  C           1     -21.558  -6.455  -5.946  0.00  0.00     0.278 C 
ENDROOT
BRANCH   1   2
HETATM    2  C           1     -20.606  -7.528  -5.479  0.00  0.00     0.249 C 
HETATM    3  O           1     -19.558  -7.697  -6.053  0.00  0.00    -0.271 OA
HETATM    4  N           1     -20.932  -8.311  -4.403  0.00  0.00    -0.344 N 
HETATM    5  H           1     -21.810  -8.169  -3.921  0.00  0.00     0.163 HD
BRANCH   4   6
HETATM    6  C           1     -20.017  -9.341  -3.954  0.00  0.00     0.189 C 
BRANCH   6   7
HETATM    7  C           1     -20.739 -10.666  -3.902  0.00  0.00     0.197 C 
HETATM    8  O           1     -20.123 -11.700  -3.563  0.00  0.00    -0.646 OA
HETATM    9  O           1     -21.951 -10.728  -4.198  0.00  0.00    -0.646 OA
ENDBRANCH   6   7
BRANCH   6  10
HETATM   10  C           1     -19.500  -8.990  -2.565  0.00  0.00     0.074 C 
BRANCH  10  11
HETATM   11  C           1     -20.652  -8.617  -1.683  0.00  0.00    -0.056 A 
HETATM   12  C           1     -21.189  -9.557  -0.804  0.00  0.00     0.010 A 
HETATM   13  C           1     -22.262  -9.211   0.018  0.00  0.00     0.037 A 
HETATM   14  C           1     -22.797  -7.924  -0.040  0.00  0.00     0.065 A 
HETATM   15  C           1     -22.259  -6.984  -0.919  0.00  0.00     0.037 A 
HETATM   16  C           1     -21.186  -7.330  -1.741  0.00  0.00     0.010 A 
BRANCH  14  17
HETATM   17  O           1     -23.838  -7.587   0.758  0.00  0.00    -0.361 OA
HETATM   18  H           1     -23.565  -7.721   1.681  0.00  0.00     0.217 HD
ENDBRANCH  14  17
ENDBRANCH  10  11
ENDBRANCH   6  10
ENDBRANCH   4   6
ENDBRANCH   1   2
BRANCH   1  19
HETATM   19  C           1     -20.781  -5.177  -6.236  0.00  0.00     0.081 C 
BRANCH  19  20
HETATM   20  C           1     -21.186  -4.640  -7.573  0.00  0.00    -0.056 A 
HETATM   21  C           1     -22.470  -4.127  -7.758  0.00  0.00     0.010 A 
HETATM   22  C           1     -22.847  -3.626  -9.004  0.00  0.00     0.038 A 
HETATM   23  C           1     -21.942  -3.638 -10.065  0.00  0.00     0.081 A 
HETATM   24  C           1     -20.658  -4.151  -9.880  0.00  0.00     0.038 A 
HETATM   25  C           1     -20.280  -4.652  -8.634  0.00  0.00     0.010 A 
BRANCH  23  26
HETATM   26  O           1     -22.309  -3.151 -11.275  0.00  0.00    -0.247 OA
BRANCH  26  27
HETATM   27  P           1     -23.609  -3.792 -11.987  0.00  0.00     0.411 P 
HETATM   28  O           1     -23.683  -5.235 -11.667  0.00  0.00    -0.624 OA
HETATM   29  O           1     -24.827  -3.113 -11.494  0.00  0.00    -0.624 OA
BRANCH  27  30
HETATM   30  O           1     -23.497  -3.601 -13.587  0.00  0.00    -0.300 OA
HETATM   31  H           1     -22.763  -3.026 -13.714  0.00  0.00     0.223 HD
ENDBRANCH  27  30
ENDBRANCH  26  27
ENDBRANCH  23  26
ENDBRANCH  19  20
ENDBRANCH   1  19
BRANCH   1  32
HETATM   32  N           1     -22.574  -6.188  -4.875  0.00  0.00    -0.066 N 
HETATM   33  H           1     -23.140  -7.050  -4.708  0.00  0.00     0.275 HD
HETATM   34  H           1     -22.085  -5.918  -3.992  0.00  0.00     0.275 HD
HETATM   35  H           1     -23.204  -5.411  -5.177  0.00  0.00     0.275 HD
ENDBRANCH   1  32
TORSDOF 12
ENDMDL
MODEL 3
REMARK VINA RESULT:      -8.6      2.107      3.578
REMARK  12 active torsions:
REMARK  status: ('A' for Active; 'I' for Inactive)
REMARK    1  A    between atoms: C_1  and  C_19 
REMARK    2  A    between atoms: C_1  and  C_2 
REMARK    3  A    between atoms: C_1  and  N_14 
REMARK    4  A    between atoms: C_2  and  C_3 
REMARK    5  A    between atoms: C_6  and  O_7 
REMARK    6  A    between atoms: O_7  and  P_8 
REMARK    7  A    between atoms: P_8  and  O_9 
REMARK       I    between atoms: C_19  and  N_20 
REMARK    8  A    between atoms: N_20  and  C_24 
REMARK    9  A    between atoms: C_23  and  C_24 
REMARK   10  A    between atoms: C_24  and  C_25 
REMARK   11  A    between atoms: C_25  and  C_28 
REMARK   12  A    between atoms: C_31  and  O_32 
ROOT
HETATM    1  C           1     -21.057  -4.913  -6.307  0.00  0.00     0.278 C 
ENDROOT
BRANCH   1   2
HETATM    2  C           1     -21.721  -5.880  -5.357  0.00  0.00     0.249 C 
HETATM    3  O           1     -22.910  -6.077  -5.429  0.00  0.00    -0.271 OA
HETATM    4  N           1     -20.975  -6.534  -4.414  0.00  0.00    -0.344 N 
HETATM    5  H           1     -19.978  -6.370  -4.354  0.00  0.00     0.163 HD
BRANCH   4   6
HETATM    6  C           1     -21.612  -7.463  -3.502  0.00  0.00     0.189 C 
BRANCH   6   7
HETATM    7  C           1     -21.880  -6.772  -2.187  0.00  0.00     0.197 C 
HETATM    8  O           1     -21.919  -5.523  -2.134  0.00  0.00    -0.646 OA
HETATM    9  O           1     -22.063  -7.448  -1.153  0.00  0.00    -0.646 OA
ENDBRANCH   6   7
BRANCH   6  10
HETATM   10  C           1     -20.695  -8.657  -3.271  0.00  0.00     0.074 C 
BRANCH  10  11
HETATM   11  C           1     -21.255  -9.859  -3.966  0.00  0.00    -0.056 A 
HETATM   12  C           1     -20.799 -10.203  -5.238  0.00  0.00     0.010 A 
HETATM   13  C           1     -21.319 -11.324  -5.887  0.00  0.00     0.037 A 
HETATM   14  C           1     -22.297 -12.099  -5.262  0.00  0.00     0.065 A 
HETATM   15  C           1     -22.752 -11.755  -3.990  0.00  0.00     0.037 A 
HETATM   16  C           1     -22.231 -10.635  -3.341  0.00  0.00     0.010 A 
BRANCH  14  17
HETATM   17  O           1     -22.802 -13.187  -5.891  0.00  0.00    -0.361 OA
HETATM   18  H           1     -23.576 -12.904  -6.405  0.00  0.00     0.217 HD
ENDBRANCH  14  17
ENDBRANCH  10  11
ENDBRANCH   6  10
ENDBRANCH   4   6
ENDBRANCH   1   2
BRANCH   1  19
HETATM   19  C           1     -20.779  -5.612  -7.631  0.00  0.00     0.081 C 
BRANCH  19  20
HETATM   20  C           1     -21.332  -4.792  -8.754  0.00  0.00    -0.056 A 
HETATM   21  C           1     -22.662  -4.370  -8.719  0.00  0.00     0.010 A 
HETATM   22  C           1     -23.177  -3.605  -9.766  0.00  0.00     0.038 A 
HETATM   23  C           1     -22.365  -3.263 -10.846  0.00  0.00     0.081 A 
HETATM   24  C           1     -21.036  -3.684 -10.881  0.00  0.00     0.038 A 
HETATM   25  C           1     -20.520  -4.449  -9.835  0.00  0.00     0.010 A 
BRANCH  23  26
HETATM   26  O           1     -22.867  -2.519 -11.863  0.00  0.00    -0.247 OA
BRANCH  26  27
HETATM   27  P           1     -23.857  -3.243 -12.914  0.00  0.00     0.411 P 
HETATM   28  O           1     -25.257  -2.880 -12.600  0.00  0.00    -0.624 OA
HETATM   29  O           1     -23.527  -2.799 -14.287  0.00  0.00    -0.624 OA
BRANCH  27  30
HETATM   30  O           1     -23.680  -4.844 -12.808  0.00  0.00    -0.300 OA
HETATM   31  H           1     -24.177  -5.193 -13.528  0.00  0.00     0.223 HD
ENDBRANCH  27  30
ENDBRANCH  26  27
ENDBRANCH  23  26
ENDBRANCH  19  20
ENDBRANCH   1  19
BRANCH   1  32
HETATM   32  N           1     -19.764  -4.439  -5.713  0.00  0.00    -0.066 N 
HETATM   33  H           1     -19.334  -3.722  -6.340  0.00  0.00     0.275 HD
HETATM   34  H           1     -19.948  -4.014  -4.776  0.00  0.00     0.275 HD
HETATM   35  H           1     -19.111  -5.247  -5.608  0.00  0.00     0.275 HD
ENDBRANCH   1  32
TORSDOF 12
ENDMDL
MODEL 4
REMARK VINA RESULT:      -8.5      2.150      4.290
REMARK  12 active torsions:
REMARK  status: ('A' for Active; 'I' for Inactive)
REMARK    1  A    between atoms: C_1  and  C_19 
REMARK    2  A    between atoms: C_1  and  C_2 
REMARK    3  A    between atoms: C_1  and  N_14 
REMARK    4  A    between atoms: C_2  and  C_3 
REMARK    5  A    between atoms: C_6  and  O_7 
REMARK    6  A    between atoms: O_7  and  P_8 
REMARK    7  A    between atoms: P_8  and  O_9 
REMARK       I    between atoms: C_19  and  N_20 
REMARK    8  A    between atoms: N_20  and  C_24 
REMARK    9  A    between atoms: C_23  and  C_24 
REMARK   10  A    between atoms: C_24  and  C_25 
REMARK   11  A    between atoms: C_25  and  C_28 
REMARK   12  A    between atoms: C_31  and  O_32 
ROOT
HETATM    1  C           1     -20.754  -5.645  -6.248  0.00  0.00     0.278 C 
ENDROOT
BRANCH   1   2
HETATM    2  C           1     -20.790  -7.057  -5.716  0.00  0.00     0.249 C 
HETATM    3  O           1     -21.301  -7.936  -6.367  0.00  0.00    -0.271 OA
HETATM    4  N           1     -20.242  -7.342  -4.493  0.00  0.00    -0.344 N 
HETATM    5  H           1     -19.813  -6.606  -3.947  0.00  0.00     0.163 HD
BRANCH   4   6
HETATM    6  C           1     -20.276  -8.698  -3.983  0.00  0.00     0.189 C 
BRANCH   6   7
HETATM    7  C           1     -21.458  -8.857  -3.058  0.00  0.00     0.197 C 
HETATM    8  O           1     -22.180  -9.875  -3.136  0.00  0.00    -0.646 OA
HETATM    9  O           1     -21.716  -7.971  -2.215  0.00  0.00    -0.646 OA
ENDBRANCH   6   7
BRANCH   6  10
HETATM   10  C           1     -18.990  -8.983  -3.217  0.00  0.00     0.074 C 
BRANCH  10  11
HETATM   11  C           1     -17.998  -9.632  -4.131  0.00  0.00    -0.056 A 
HETATM   12  C           1     -16.649  -9.674  -3.778  0.00  0.00     0.010 A 
HETATM   13  C           1     -15.724 -10.280  -4.630  0.00  0.00     0.037 A 
HETATM   14  C           1     -16.149 -10.842  -5.833  0.00  0.00     0.065 A 
HETATM   15  C           1     -17.498 -10.800  -6.186  0.00  0.00     0.037 A 
HETATM   16  C           1     -18.423 -10.195  -5.334  0.00  0.00     0.010 A 
BRANCH  14  17
HETATM   17  O           1     -15.251 -11.430  -6.660  0.00  0.00    -0.361 OA
HETATM   18  H           1     -14.657 -10.740  -6.998  0.00  0.00     0.217 HD
ENDBRANCH  14  17
ENDBRANCH  10  11
ENDBRANCH   6  10
ENDBRANCH   4   6
ENDBRANCH   1   2
BRANCH   1  19
HETATM   19  C           1     -19.892  -5.597  -7.503  0.00  0.00     0.081 C 
BRANCH  19  20
HETATM   20  C           1     -20.612  -4.837  -8.573  0.00  0.00    -0.056 A 
HETATM   21  C           1     -21.891  -4.335  -8.331  0.00  0.00     0.010 A 
HETATM   22  C           1     -22.561  -3.627  -9.329  0.00  0.00     0.038 A 
HETATM   23  C           1     -21.954  -3.421 -10.567  0.00  0.00     0.081 A 
HETATM   24  C           1     -20.675  -3.923 -10.809  0.00  0.00     0.038 A 
HETATM   25  C           1     -20.004  -4.632  -9.812  0.00  0.00     0.010 A 
BRANCH  23  26
HETATM   26  O           1     -22.605  -2.733 -11.536  0.00  0.00    -0.247 OA
BRANCH  26  27
HETATM   27  P           1     -23.917  -3.408 -12.194  0.00  0.00     0.411 P 
HETATM   28  O           1     -25.079  -3.196 -11.301  0.00  0.00    -0.624 OA
HETATM   29  O           1     -24.184  -2.787 -13.510  0.00  0.00    -0.624 OA
BRANCH  27  30
HETATM   30  O           1     -23.670  -4.992 -12.386  0.00  0.00    -0.300 OA
HETATM   31  H           1     -23.241  -5.073 -13.220  0.00  0.00     0.223 HD
ENDBRANCH  27  30
ENDBRANCH  26  27
ENDBRANCH  23  26
ENDBRANCH  19  20
ENDBRANCH   1  19
BRANCH   1  32
HETATM   32  N           1     -20.172  -4.734  -5.208  0.00  0.00    -0.066 N 
HETATM   33  H           1     -19.207  -5.054  -4.965  0.00  0.00     0.275 HD
HETATM   34  H           1     -20.131  -3.760  -5.584  0.00  0.00     0.275 HD
HETATM   35  H           1     -20.771  -4.753  -4.352  0.00  0.00     0.275 HD
ENDBRANCH   1  32
TORSDOF 12
ENDMDL
MODEL 5
REMARK VINA RESULT:      -7.9      1.631      3.478
REMARK  12 active torsions:
REMARK  status: ('A' for Active; 'I' for Inactive)
REMARK    1  A    between atoms: C_1  and  C_19 
REMARK    2  A    between atoms: C_1  and  C_2 
REMARK    3  A    between atoms: C_1  and  N_14 
REMARK    4  A    between atoms: C_2  and  C_3 
REMARK    5  A    between atoms: C_6  and  O_7 
REMARK    6  A    between atoms: O_7  and  P_8 
REMARK    7  A    between atoms: P_8  and  O_9 
REMARK       I    between atoms: C_19  and  N_20 
REMARK    8  A    between atoms: N_20  and  C_24 
REMARK    9  A    between atoms: C_23  and  C_24 
REMARK   10  A    between atoms: C_24  and  C_25 
REMARK   11  A    between atoms: C_25  and  C_28 
REMARK   12  A    between atoms: C_31  and  O_32 
ROOT
HETATM    1  C           1     -20.276  -5.414  -6.218  0.00  0.00     0.278 C 
ENDROOT
BRANCH   1   2
HETATM    2  C           1     -21.281  -6.060  -5.295  0.00  0.00     0.249 C 
HETATM    3  O           1     -22.457  -5.819  -5.419  0.00  0.00    -0.271 OA
HETATM    4  N           1     -20.858  -6.920  -4.317  0.00  0.00    -0.344 N 
HETATM    5  H           1     -19.871  -7.123  -4.214  0.00  0.00     0.163 HD
BRANCH   4   6
HETATM    6  C           1     -21.822  -7.541  -3.431  0.00  0.00     0.189 C 
BRANCH   6   7
HETATM    7  C           1     -21.800  -6.840  -2.095  0.00  0.00     0.197 C 
HETATM    8  O           1     -21.635  -7.500  -1.045  0.00  0.00    -0.646 OA
HETATM    9  O           1     -21.946  -5.601  -2.037  0.00  0.00    -0.646 OA
ENDBRANCH   6   7
BRANCH   6  10
HETATM   10  C           1     -21.464  -9.009  -3.241  0.00  0.00     0.074 C 
BRANCH  10  11
HETATM   11  C           1     -20.025  -9.222  -3.596  0.00  0.00    -0.056 A 
HETATM   12  C           1     -19.052  -9.217  -2.597  0.00  0.00     0.010 A 
HETATM   13  C           1     -17.711  -9.415  -2.928  0.00  0.00     0.037 A 
HETATM   14  C           1     -17.344  -9.619  -4.258  0.00  0.00     0.065 A 
HETATM   15  C           1     -18.317  -9.626  -5.257  0.00  0.00     0.037 A 
HETATM   16  C           1     -19.658  -9.427  -4.927  0.00  0.00     0.010 A 
BRANCH  14  17
HETATM   17  O           1     -16.042  -9.813  -4.579  0.00  0.00    -0.361 OA
HETATM   18  H           1     -15.624  -8.942  -4.675  0.00  0.00     0.217 HD
ENDBRANCH  14  17
ENDBRANCH  10  11
ENDBRANCH   6  10
ENDBRANCH   4   6
ENDBRANCH   1   2
BRANCH   1  19
HETATM   19  C           1     -20.813  -4.069  -6.691  0.00  0.00     0.081 C 
BRANCH  19  20
HETATM   20  C           1     -21.314  -4.197  -8.095  0.00  0.00    -0.056 A 
HETATM   21  C           1     -20.416  -4.150  -9.162  0.00  0.00     0.010 A 
HETATM   22  C           1     -20.883  -4.270 -10.471  0.00  0.00     0.038 A 
HETATM   23  C           1     -22.246  -4.437 -10.713  0.00  0.00     0.081 A 
HETATM   24  C           1     -23.143  -4.484  -9.647  0.00  0.00     0.038 A 
HETATM   25  C           1     -22.677  -4.364  -8.337  0.00  0.00     0.010 A 
BRANCH  23  26
HETATM   26  O           1     -22.700  -4.554 -11.985  0.00  0.00    -0.247 OA
BRANCH  26  27
HETATM   27  P           1     -23.112  -3.204 -12.770  0.00  0.00     0.411 P 
HETATM   28  O           1     -24.577  -3.186 -12.982  0.00  0.00    -0.624 OA
HETATM   29  O           1     -22.714  -2.026 -11.967  0.00  0.00    -0.624 OA
BRANCH  27  30
HETATM   30  O           1     -22.362  -3.159 -14.200  0.00  0.00    -0.300 OA
HETATM   31  H           1     -21.710  -3.836 -14.154  0.00  0.00     0.223 HD
ENDBRANCH  27  30
ENDBRANCH  26  27
ENDBRANCH  23  26
ENDBRANCH  19  20
ENDBRANCH   1  19
BRANCH   1  32
HETATM   32  N           1     -20.045  -6.303  -7.404  0.00  0.00    -0.066 N 
HETATM   33  H           1     -20.610  -5.959  -8.214  0.00  0.00     0.275 HD
HETATM   34  H           1     -19.031  -6.287  -7.657  0.00  0.00     0.275 HD
HETATM   35  H           1     -20.331  -7.280  -7.169  0.00  0.00     0.275 HD
ENDBRANCH   1  32
TORSDOF 12
ENDMDL
MODEL 6
REMARK VINA RESULT:      -7.9      2.342      3.637
REMARK  12 active torsions:
REMARK  status: ('A' for Active; 'I' for Inactive)
REMARK    1  A    between atoms: C_1  and  C_19 
REMARK    2  A    between atoms: C_1  and  C_2 
REMARK    3  A    between atoms: C_1  and  N_14 
REMARK    4  A    between atoms: C_2  and  C_3 
REMARK    5  A    between atoms: C_6  and  O_7 
REMARK    6  A    between atoms: O_7  and  P_8 
REMARK    7  A    between atoms: P_8  and  O_9 
REMARK       I    between atoms: C_19  and  N_20 
REMARK    8  A    between atoms: N_20  and  C_24 
REMARK    9  A    between atoms: C_23  and  C_24 
REMARK   10  A    between atoms: C_24  and  C_25 
REMARK   11  A    between atoms: C_25  and  C_28 
REMARK   12  A    between atoms: C_31  and  O_32 
ROOT
HETATM    1  C           1     -20.316  -6.414  -5.550  0.00  0.00     0.278 C 
ENDROOT
BRANCH   1   2
HETATM    2  C           1     -21.281  -6.958  -4.526  0.00  0.00     0.249 C 
HETATM    3  O           1     -22.455  -7.053  -4.791  0.00  0.00    -0.271 OA
HETATM    4  N           1     -20.825  -7.345  -3.294  0.00  0.00    -0.344 N 
HETATM    5  H           1     -19.841  -7.267  -3.071  0.00  0.00     0.163 HD
BRANCH   4   6
HETATM    6  C           1     -21.752  -7.869  -2.310  0.00  0.00     0.189 C 
BRANCH   6   7
HETATM    7  C           1     -22.187  -6.756  -1.388  0.00  0.00     0.197 C 
HETATM    8  O           1     -22.328  -6.976  -0.165  0.00  0.00    -0.646 OA
HETATM    9  O           1     -22.406  -5.615  -1.847  0.00  0.00    -0.646 OA
ENDBRANCH   6   7
BRANCH   6  10
HETATM   10  C           1     -21.066  -8.961  -1.499  0.00  0.00     0.074 C 
BRANCH  10  11
HETATM   11  C           1     -21.971 -10.151  -1.399  0.00  0.00    -0.056 A 
HETATM   12  C           1     -21.821 -11.215  -2.287  0.00  0.00     0.010 A 
HETATM   13  C           1     -22.663 -12.324  -2.195  0.00  0.00     0.037 A 
HETATM   14  C           1     -23.654 -12.367  -1.214  0.00  0.00     0.065 A 
HETATM   15  C           1     -23.803 -11.302  -0.326  0.00  0.00     0.037 A 
HETATM   16  C           1     -22.961 -10.193  -0.418  0.00  0.00     0.010 A 
BRANCH  14  17
HETATM   17  O           1     -24.471 -13.444  -1.124  0.00  0.00    -0.361 OA
HETATM   18  H           1     -24.661 -13.599  -0.183  0.00  0.00     0.217 HD
ENDBRANCH  14  17
ENDBRANCH  10  11
ENDBRANCH   6  10
ENDBRANCH   4   6
ENDBRANCH   1   2
BRANCH   1  19
HETATM   19  C           1     -20.446  -4.897  -5.614  0.00  0.00     0.081 C 
BRANCH  19  20
HETATM   20  C           1     -20.950  -4.496  -6.965  0.00  0.00    -0.056 A 
HETATM   21  C           1     -20.059  -4.365  -8.031  0.00  0.00     0.010 A 
HETATM   22  C           1     -20.530  -3.991  -9.290  0.00  0.00     0.038 A 
HETATM   23  C           1     -21.889  -3.749  -9.483  0.00  0.00     0.081 A 
HETATM   24  C           1     -22.780  -3.881  -8.419  0.00  0.00     0.038 A 
HETATM   25  C           1     -22.310  -4.255  -7.159  0.00  0.00     0.010 A 
BRANCH  23  26
HETATM   26  O           1     -22.346  -3.387 -10.707  0.00  0.00    -0.247 OA
BRANCH  26  27
HETATM   27  P           1     -23.689  -4.096 -11.256  0.00  0.00     0.411 P 
HETATM   28  O           1     -23.870  -5.399 -10.576  0.00  0.00    -0.624 OA
HETATM   29  O           1     -24.855  -3.228 -10.977  0.00  0.00    -0.624 OA
BRANCH  27  30
HETATM   30  O           1     -23.563  -4.333 -12.848  0.00  0.00    -0.300 OA
HETATM   31  H           1     -23.930  -3.561 -13.240  0.00  0.00     0.223 HD
ENDBRANCH  27  30
ENDBRANCH  26  27
ENDBRANCH  23  26
ENDBRANCH  19  20
ENDBRANCH   1  19
BRANCH   1  32
HETATM   32  N           1     -20.634  -6.998  -6.895  0.00  0.00    -0.066 N 
HETATM   33  H           1     -21.567  -7.468  -6.860  0.00  0.00     0.275 HD
HETATM   34  H           1     -20.656  -6.235  -7.609  0.00  0.00     0.275 HD
HETATM   35  H           1     -19.902  -7.697  -7.153  0.00  0.00     0.275 HD
ENDBRANCH   1  32
TORSDOF 12
ENDMDL
MODEL 7
REMARK VINA RESULT:      -7.9      2.749      4.744
REMARK  12 active torsions:
REMARK  status: ('A' for Active; 'I' for Inactive)
REMARK    1  A    between atoms: C_1  and  C_19 
REMARK    2  A    between atoms: C_1  and  C_2 
REMARK    3  A    between atoms: C_1  and  N_14 
REMARK    4  A    between atoms: C_2  and  C_3 
REMARK    5  A    between atoms: C_6  and  O_7 
REMARK    6  A    between atoms: O_7  and  P_8 
REMARK    7  A    between atoms: P_8  and  O_9 
REMARK       I    between atoms: C_19  and  N_20 
REMARK    8  A    between atoms: N_20  and  C_24 
REMARK    9  A    between atoms: C_23  and  C_24 
REMARK   10  A    between atoms: C_24  and  C_25 
REMARK   11  A    between atoms: C_25  and  C_28 
REMARK   12  A    between atoms: C_31  and  O_32 
ROOT
HETATM    1  C           1     -20.967  -6.475  -5.430  0.00  0.00     0.278 C 
ENDROOT
BRANCH   1   2
HETATM    2  C           1     -20.137  -7.714  -5.196  0.00  0.00     0.249 C 
HETATM    3  O           1     -19.404  -8.123  -6.063  0.00  0.00    -0.271 OA
HETATM    4  N           1     -20.216  -8.375  -3.999  0.00  0.00    -0.344 N 
HETATM    5  H           1     -20.831  -8.032  -3.271  0.00  0.00     0.163 HD
BRANCH   4   6
HETATM    6  C           1     -19.420  -9.564  -3.774  0.00  0.00     0.189 C 
BRANCH   6   7
HETATM    7  C           1     -20.215 -10.554  -2.958  0.00  0.00     0.197 C 
HETATM    8  O           1     -20.416 -11.708  -3.398  0.00  0.00    -0.646 OA
HETATM    9  O           1     -20.672 -10.222  -1.844  0.00  0.00    -0.646 OA
ENDBRANCH   6   7
BRANCH   6  10
HETATM   10  C           1     -18.150  -9.189  -3.020  0.00  0.00     0.074 C 
BRANCH  10  11
HETATM   11  C           1     -17.003 -10.000  -3.539  0.00  0.00    -0.056 A 
HETATM   12  C           1     -16.673  -9.952  -4.893  0.00  0.00     0.010 A 
HETATM   13  C           1     -15.604 -10.707  -5.378  0.00  0.00     0.037 A 
HETATM   14  C           1     -14.867 -11.509  -4.507  0.00  0.00     0.065 A 
HETATM   15  C           1     -15.196 -11.556  -3.153  0.00  0.00     0.037 A 
HETATM   16  C           1     -16.265 -10.801  -2.668  0.00  0.00     0.010 A 
BRANCH  14  17
HETATM   17  O           1     -13.828 -12.242  -4.977  0.00  0.00    -0.361 OA
HETATM   18  H           1     -13.869 -13.120  -4.563  0.00  0.00     0.217 HD
ENDBRANCH  14  17
ENDBRANCH  10  11
ENDBRANCH   6  10
ENDBRANCH   4   6
ENDBRANCH   1   2
BRANCH   1  19
HETATM   19  C           1     -20.090  -5.383  -6.030  0.00  0.00     0.081 C 
BRANCH  19  20
HETATM   20  C           1     -20.755  -4.823  -7.248  0.00  0.00    -0.056 A 
HETATM   21  C           1     -20.168  -4.992  -8.502  0.00  0.00     0.010 A 
HETATM   22  C           1     -20.788  -4.470  -9.637  0.00  0.00     0.038 A 
HETATM   23  C           1     -21.993  -3.779  -9.519  0.00  0.00     0.081 A 
HETATM   24  C           1     -22.580  -3.610  -8.265  0.00  0.00     0.038 A 
HETATM   25  C           1     -21.960  -4.132  -7.129  0.00  0.00     0.010 A 
BRANCH  23  26
HETATM   26  O           1     -22.596  -3.272 -10.622  0.00  0.00    -0.247 OA
BRANCH  26  27
HETATM   27  P           1     -23.878  -4.055 -11.213  0.00  0.00     0.411 P 
HETATM   28  O           1     -24.505  -4.855 -10.137  0.00  0.00    -0.624 OA
HETATM   29  O           1     -24.857  -3.075 -11.734  0.00  0.00    -0.624 OA
BRANCH  27  30
HETATM   30  O           1     -23.410  -5.036 -12.408  0.00  0.00    -0.300 OA
HETATM   31  H           1     -23.290  -4.473 -13.153  0.00  0.00     0.223 HD
ENDBRANCH  27  30
ENDBRANCH  26  27
ENDBRANCH  23  26
ENDBRANCH  19  20
ENDBRANCH   1  19
BRANCH   1  32
HETATM   32  N           1     -21.532  -5.999  -4.124  0.00  0.00    -0.066 N 
HETATM   33  H           1     -21.610  -6.805  -3.463  0.00  0.00     0.275 HD
HETATM   34  H           1     -20.899  -5.275  -3.715  0.00  0.00     0.275 HD
HETATM   35  H           1     -22.478  -5.586  -4.284  0.00  0.00     0.275 HD
ENDBRANCH   1  32
TORSDOF 12
ENDMDL
MODEL 8
REMARK VINA RESULT:      -7.8      2.626      4.301
REMARK  12 active torsions:
REMARK  status: ('A' for Active; 'I' for Inactive)
REMARK    1  A    between atoms: C_1  and  C_19 
REMARK    2  A    between atoms: C_1  and  C_2 
REMARK    3  A    between atoms: C_1  and  N_14 
REMARK    4  A    between atoms: C_2  and  C_3 
REMARK    5  A    between atoms: C_6  and  O_7 
REMARK    6  A    between atoms: O_7  and  P_8 
REMARK    7  A    between atoms: P_8  and  O_9 
REMARK       I    between atoms: C_19  and  N_20 
REMARK    8  A    between atoms: N_20  and  C_24 
REMARK    9  A    between atoms: C_23  and  C_24 
REMARK   10  A    between atoms: C_24  and  C_25 
REMARK   11  A    between atoms: C_25  and  C_28 
REMARK   12  A    between atoms: C_31  and  O_32 
ROOT
HETATM    1  C           1     -20.827  -5.725  -6.053  0.00  0.00     0.278 C 
ENDROOT
BRANCH   1   2
HETATM    2  C           1     -20.848  -7.112  -5.459  0.00  0.00     0.249 C 
HETATM    3  O           1     -21.901  -7.650  -5.217  0.00  0.00    -0.271 OA
HETATM    4  N           1     -19.672  -7.761  -5.194  0.00  0.00    -0.344 N 
HETATM    5  H           1     -18.788  -7.310  -5.396  0.00  0.00     0.163 HD
BRANCH   4   6
HETATM    6  C           1     -19.691  -9.093  -4.624  0.00  0.00     0.189 C 
BRANCH   6   7
HETATM    7  C           1     -19.129  -9.049  -3.224  0.00  0.00     0.197 C 
HETATM    8  O           1     -17.917  -9.287  -3.029  0.00  0.00    -0.646 OA
HETATM    9  O           1     -19.875  -8.775  -2.259  0.00  0.00    -0.646 OA
ENDBRANCH   6   7
BRANCH   6  10
HETATM   10  C           1     -18.845 -10.024  -5.482  0.00  0.00     0.074 C 
BRANCH  10  11
HETATM   11  C           1     -19.670 -11.199  -5.909  0.00  0.00    -0.056 A 
HETATM   12  C           1     -21.062 -11.120  -5.879  0.00  0.00     0.010 A 
HETATM   13  C           1     -21.832 -12.213  -6.277  0.00  0.00     0.037 A 
HETATM   14  C           1     -21.208 -13.385  -6.704  0.00  0.00     0.065 A 
HETATM   15  C           1     -19.816 -13.464  -6.734  0.00  0.00     0.037 A 
HETATM   16  C           1     -19.046 -12.371  -6.337  0.00  0.00     0.010 A 
BRANCH  14  17
HETATM   17  O           1     -21.955 -14.447  -7.091  0.00  0.00    -0.361 OA
HETATM   18  H           1     -22.397 -14.216  -7.925  0.00  0.00     0.217 HD
ENDBRANCH  14  17
ENDBRANCH  10  11
ENDBRANCH   6  10
ENDBRANCH   4   6
ENDBRANCH   1   2
BRANCH   1  19
HETATM   19  C           1     -19.966  -5.723  -7.309  0.00  0.00     0.081 C 
BRANCH  19  20
HETATM   20  C           1     -20.660  -4.953  -8.388  0.00  0.00    -0.056 A 
HETATM   21  C           1     -21.909  -4.381  -8.144  0.00  0.00     0.010 A 
HETATM   22  C           1     -22.555  -3.663  -9.149  0.00  0.00     0.038 A 
HETATM   23  C           1     -21.954  -3.517 -10.399  0.00  0.00     0.081 A 
HETATM   24  C           1     -20.706  -4.088 -10.644  0.00  0.00     0.038 A 
HETATM   25  C           1     -20.059  -4.807  -9.639  0.00  0.00     0.010 A 
BRANCH  23  26
HETATM   26  O           1     -22.583  -2.819 -11.376  0.00  0.00    -0.247 OA
BRANCH  26  27
HETATM   27  P           1     -23.943  -3.434 -11.992  0.00  0.00     0.411 P 
HETATM   28  O           1     -24.225  -2.795 -13.297  0.00  0.00    -0.624 OA
HETATM   29  O           1     -23.784  -4.893 -12.180  0.00  0.00    -0.624 OA
BRANCH  27  30
HETATM   30  O           1     -25.170  -3.152 -10.980  0.00  0.00    -0.300 OA
HETATM   31  H           1     -25.798  -2.667 -11.486  0.00  0.00     0.223 HD
ENDBRANCH  27  30
ENDBRANCH  26  27
ENDBRANCH  23  26
ENDBRANCH  19  20
ENDBRANCH   1  19
BRANCH   1  32
HETATM   32  N           1     -20.254  -4.763  -5.054  0.00  0.00    -0.066 N 
HETATM   33  H           1     -19.218  -4.890  -5.003  0.00  0.00     0.275 HD
HETATM   34  H           1     -20.470  -3.784  -5.352  0.00  0.00     0.275 HD
HETATM   35  H           1     -20.675  -4.943  -4.116  0.00  0.00     0.275 HD
ENDBRANCH   1  32
TORSDOF 12
ENDMDL
MODEL 9
REMARK VINA RESULT:      -7.6      1.767      2.618
REMARK  12 active torsions:
REMARK  status: ('A' for Active; 'I' for Inactive)
REMARK    1  A    between atoms: C_1  and  C_19 
REMARK    2  A    between atoms: C_1  and  C_2 
REMARK    3  A    between atoms: C_1  and  N_14 
REMARK    4  A    between atoms: C_2  and  C_3 
REMARK    5  A    between atoms: C_6  and  O_7 
REMARK    6  A    between atoms: O_7  and  P_8 
REMARK    7  A    between atoms: P_8  and  O_9 
REMARK       I    between atoms: C_19  and  N_20 
REMARK    8  A    between atoms: N_20  and  C_24 
REMARK    9  A    between atoms: C_23  and  C_24 
REMARK   10  A    between atoms: C_24  and  C_25 
REMARK   11  A    between atoms: C_25  and  C_28 
REMARK   12  A    between atoms: C_31  and  O_32 
ROOT
HETATM    1  C           1     -20.790  -5.820  -6.122  0.00  0.00     0.278 C 
ENDROOT
BRANCH   1   2
HETATM    2  C           1     -20.712  -7.268  -5.702  0.00  0.00     0.249 C 
HETATM    3  O           1     -21.324  -8.109  -6.315  0.00  0.00    -0.271 OA
HETATM    4  N           1     -19.945  -7.628  -4.626  0.00  0.00    -0.344 N 
HETATM    5  H           1     -19.431  -6.924  -4.113  0.00  0.00     0.163 HD
BRANCH   4   6
HETATM    6  C           1     -19.869  -9.018  -4.223  0.00  0.00     0.189 C 
BRANCH   6   7
HETATM    7  C           1     -18.740  -9.694  -4.962  0.00  0.00     0.197 C 
HETATM    8  O           1     -18.973 -10.328  -6.014  0.00  0.00    -0.646 OA
HETATM    9  O           1     -17.573  -9.621  -4.521  0.00  0.00    -0.646 OA
ENDBRANCH   6   7
BRANCH   6  10
HETATM   10  C           1     -21.183  -9.714  -4.556  0.00  0.00     0.074 C 
BRANCH  10  11
HETATM   11  C           1     -21.906 -10.049  -3.288  0.00  0.00    -0.056 A 
HETATM   12  C           1     -21.723  -9.260  -2.153  0.00  0.00     0.010 A 
HETATM   13  C           1     -22.397  -9.570  -0.971  0.00  0.00     0.037 A 
HETATM   14  C           1     -23.253 -10.670  -0.926  0.00  0.00     0.065 A 
HETATM   15  C           1     -23.437 -11.458  -2.061  0.00  0.00     0.037 A 
HETATM   16  C           1     -22.763 -11.148  -3.243  0.00  0.00     0.010 A 
BRANCH  14  17
HETATM   17  O           1     -23.908 -10.972   0.221  0.00  0.00    -0.361 OA
HETATM   18  H           1     -24.574 -10.281   0.377  0.00  0.00     0.217 HD
ENDBRANCH  14  17
ENDBRANCH  10  11
ENDBRANCH   6  10
ENDBRANCH   4   6
ENDBRANCH   1   2
BRANCH   1  19
HETATM   19  C           1     -19.835  -5.576  -7.284  0.00  0.00     0.081 C 
BRANCH  19  20
HETATM   20  C           1     -20.559  -4.860  -8.381  0.00  0.00    -0.056 A 
HETATM   21  C           1     -21.818  -4.309  -8.142  0.00  0.00     0.010 A 
HETATM   22  C           1     -22.492  -3.641  -9.165  0.00  0.00     0.038 A 
HETATM   23  C           1     -21.908  -3.525 -10.426  0.00  0.00     0.081 A 
HETATM   24  C           1     -20.649  -4.076 -10.665  0.00  0.00     0.038 A 
HETATM   25  C           1     -19.975  -4.744  -9.642  0.00  0.00     0.010 A 
BRANCH  23  26
HETATM   26  O           1     -22.563  -2.876 -11.419  0.00  0.00    -0.247 OA
BRANCH  26  27
HETATM   27  P           1     -23.916  -3.543 -11.996  0.00  0.00     0.411 P 
HETATM   28  O           1     -24.165  -3.042 -13.366  0.00  0.00    -0.624 OA
HETATM   29  O           1     -23.767  -5.015 -12.027  0.00  0.00    -0.624 OA
BRANCH  27  30
HETATM   30  O           1     -25.160  -3.148 -11.045  0.00  0.00    -0.300 OA
HETATM   31  H           1     -25.450  -3.962 -10.672  0.00  0.00     0.223 HD
ENDBRANCH  27  30
ENDBRANCH  26  27
ENDBRANCH  23  26
ENDBRANCH  19  20
ENDBRANCH   1  19
BRANCH   1  32
HETATM   32  N           1     -20.404  -4.944  -4.967  0.00  0.00    -0.066 N 
HETATM   33  H           1     -19.368  -4.977  -4.835  0.00  0.00     0.275 HD
HETATM   34  H           1     -20.697  -3.961  -5.165  0.00  0.00     0.275 HD
HETATM   35  H           1     -20.878  -5.282  -4.100  0.00  0.00     0.275 HD
ENDBRANCH   1  32
TORSDOF 12
ENDMDL
