MODEL 1
REMARK VINA RESULT:      -6.4      0.000      0.000
REMARK  11 active torsions:
REMARK  status: ('A' for Active; 'I' for Inactive)
REMARK    1  A    between atoms: C_1  and  C_13 
REMARK    2  A    between atoms: C_1  and  C_16 
REMARK    3  A    between atoms: C_1  and  N_6 
REMARK    4  A    between atoms: N_4  and  C_23 
REMARK       I    between atoms: N_4  and  C_13 
REMARK    5  A    between atoms: C_5  and  C_21 
REMARK    6  A    between atoms: C_5  and  N_14 
REMARK    7  A    between atoms: C_7  and  C_22 
REMARK    8  A    between atoms: C_7  and  C_23 
REMARK    9  A    between atoms: C_16  and  C_24 
REMARK   10  A    between atoms: C_18  and  C_23 
REMARK   11  A    between atoms: C_21  and  C_24 
ROOT
HETATM    1  C           1     -21.268  -5.815  -7.013  0.00  0.00     0.274 C 
ENDROOT
BRANCH   1   2
HETATM    2  C           1     -21.827  -4.669  -7.820  0.00  0.00     0.249 C 
HETATM    3  N           1     -22.401  -4.906  -9.041  0.00  0.00    -0.344 N 
HETATM    4  H           1     -22.450  -5.850  -9.401  0.00  0.00     0.163 HD
HETATM    5  O           1     -21.769  -3.542  -7.389  0.00  0.00    -0.271 OA
BRANCH   3   6
HETATM    6  C           1     -22.938  -3.805  -9.815  0.00  0.00     0.189 C 
BRANCH   6   7
HETATM    7  C           1     -22.535  -3.969 -11.275  0.00  0.00     0.014 C 
HETATM    8  C           1     -22.831  -2.679 -12.030  0.00  0.00     0.012 C 
BRANCH   7   9
HETATM    9  C           1     -21.047  -4.277 -11.359  0.00  0.00     0.002 C 
HETATM   10  C           1     -20.250  -2.994 -11.161  0.00  0.00     0.005 C 
ENDBRANCH   7   9
ENDBRANCH   6   7
BRANCH   6  11
HETATM   11  C           1     -24.443  -3.800  -9.706  0.00  0.00     0.197 C 
HETATM   12  O           1     -25.083  -4.865  -9.843  0.00  0.00    -0.646 OA
HETATM   13  O           1     -25.050  -2.732  -9.478  0.00  0.00    -0.646 OA
ENDBRANCH   6  11
ENDBRANCH   3   6
ENDBRANCH   1   2
BRANCH   1  14
HETATM   14  C           1     -21.228  -5.429  -5.541  0.00  0.00     0.042 C 
BRANCH  14  15
HETATM   15  C           1     -22.007  -6.454  -4.726  0.00  0.00     0.004 C 
BRANCH  15  16
HETATM   16  C           1     -21.052  -7.196  -3.799  0.00  0.00     0.027 C 
BRANCH  16  17
HETATM   17  C           1     -21.587  -7.148  -2.373  0.00  0.00     0.229 C 
BRANCH  17  18
HETATM   18  N           1     -22.311  -5.853  -2.154  0.00  0.00    -0.079 N 
HETATM   19  H           1     -21.615  -5.084  -2.023  0.00  0.00     0.274 HD
HETATM   20  H           1     -22.909  -5.643  -2.984  0.00  0.00     0.274 HD
HETATM   21  H           1     -22.912  -5.929  -1.302  0.00  0.00     0.274 HD
ENDBRANCH  17  18
ENDBRANCH  16  17
ENDBRANCH  15  16
ENDBRANCH  14  15
ENDBRANCH   1  14
BRANCH   1  22
HETATM   22  N           1     -19.879  -6.128  -7.486  0.00  0.00    -0.067 N 
HETATM   23  H           1     -19.307  -5.253  -7.487  0.00  0.00     0.275 HD
HETATM   24  H           1     -19.443  -6.829  -6.846  0.00  0.00     0.275 HD
HETATM   25  H           1     -19.921  -6.518  -8.455  0.00  0.00     0.275 HD
ENDBRANCH   1  22
TORSDOF 11
ENDMDL
MODEL 2
REMARK VINA RESULT:      -6.4     12.464     14.193
REMARK  11 active torsions:
REMARK  status: ('A' for Active; 'I' for Inactive)
REMARK    1  A    between atoms: C_1  and  C_13 
REMARK    2  A    between atoms: C_1  and  C_16 
REMARK    3  A    between atoms: C_1  and  N_6 
REMARK    4  A    between atoms: N_4  and  C_23 
REMARK       I    between atoms: N_4  and  C_13 
REMARK    5  A    between atoms: C_5  and  C_21 
REMARK    6  A    between atoms: C_5  and  N_14 
REMARK    7  A    between atoms: C_7  and  C_22 
REMARK    8  A    between atoms: C_7  and  C_23 
REMARK    9  A    between atoms: C_16  and  C_24 
REMARK   10  A    between atoms: C_18  and  C_23 
REMARK   11  A    between atoms: C_21  and  C_24 
ROOT
HETATM    1  C           1     -33.307  -3.192 -11.553  0.00  0.00     0.274 C 
ENDROOT
BRANCH   1   2
HETATM    2  C           1     -34.320  -2.737 -12.574  0.00  0.00     0.249 C 
HETATM    3  N           1     -34.793  -1.453 -12.545  0.00  0.00    -0.344 N 
HETATM    4  H           1     -34.464  -0.809 -11.837  0.00  0.00     0.163 HD
HETATM    5  O           1     -34.713  -3.506 -13.419  0.00  0.00    -0.271 OA
BRANCH   3   6
HETATM    6  C           1     -35.766  -1.016 -13.526  0.00  0.00     0.189 C 
BRANCH   6   7
HETATM    7  C           1     -36.610   0.108 -12.938  0.00  0.00     0.014 C 
HETATM    8  C           1     -38.056  -0.055 -13.390  0.00  0.00     0.012 C 
BRANCH   7   9
HETATM    9  C           1     -36.543   0.049 -11.418  0.00  0.00     0.002 C 
HETATM   10  C           1     -37.892  -0.394 -10.867  0.00  0.00     0.005 C 
ENDBRANCH   7   9
ENDBRANCH   6   7
BRANCH   6  11
HETATM   11  C           1     -35.049  -0.515 -14.756  0.00  0.00     0.197 C 
HETATM   12  O           1     -34.394   0.547 -14.709  0.00  0.00    -0.646 OA
HETATM   13  O           1     -35.110  -1.164 -15.823  0.00  0.00    -0.646 OA
ENDBRANCH   6  11
ENDBRANCH   3   6
ENDBRANCH   1   2
BRANCH   1  14
HETATM   14  C           1     -33.205  -4.711 -11.579  0.00  0.00     0.042 C 
BRANCH  14  15
HETATM   15  C           1     -34.138  -5.301 -10.529  0.00  0.00     0.004 C 
BRANCH  15  16
HETATM   16  C           1     -34.643  -6.657 -11.004  0.00  0.00     0.027 C 
BRANCH  16  17
HETATM   17  C           1     -34.483  -7.680  -9.886  0.00  0.00     0.229 C 
BRANCH  17  18
HETATM   18  N           1     -33.581  -8.786 -10.346  0.00  0.00    -0.079 N 
HETATM   19  H           1     -32.670  -8.383 -10.662  0.00  0.00     0.274 HD
HETATM   20  H           1     -33.413  -9.450  -9.557  0.00  0.00     0.274 HD
HETATM   21  H           1     -34.032  -9.296 -11.139  0.00  0.00     0.274 HD
ENDBRANCH  17  18
ENDBRANCH  16  17
ENDBRANCH  15  16
ENDBRANCH  14  15
ENDBRANCH   1  14
BRANCH   1  22
HETATM   22  N           1     -33.739  -2.744 -10.188  0.00  0.00    -0.067 N 
HETATM   23  H           1     -33.374  -1.782 -10.006  0.00  0.00     0.275 HD
HETATM   24  H           1     -34.782  -2.736 -10.138  0.00  0.00     0.275 HD
HETATM   25  H           1     -33.360  -3.402  -9.470  0.00  0.00     0.275 HD
ENDBRANCH   1  22
TORSDOF 11
ENDMDL
MODEL 3
REMARK VINA RESULT:      -6.3     12.560     14.140
REMARK  11 active torsions:
REMARK  status: ('A' for Active; 'I' for Inactive)
REMARK    1  A    between atoms: C_1  and  C_13 
REMARK    2  A    between atoms: C_1  and  C_16 
REMARK    3  A    between atoms: C_1  and  N_6 
REMARK    4  A    between atoms: N_4  and  C_23 
REMARK       I    between atoms: N_4  and  C_13 
REMARK    5  A    between atoms: C_5  and  C_21 
REMARK    6  A    between atoms: C_5  and  N_14 
REMARK    7  A    between atoms: C_7  and  C_22 
REMARK    8  A    between atoms: C_7  and  C_23 
REMARK    9  A    between atoms: C_16  and  C_24 
REMARK   10  A    between atoms: C_18  and  C_23 
REMARK   11  A    between atoms: C_21  and  C_24 
ROOT
HETATM    1  C           1     -33.070  -4.508 -16.630  0.00  0.00     0.274 C 
ENDROOT
BRANCH   1   2
HETATM    2  C           1     -33.938  -4.523 -15.395  0.00  0.00     0.249 C 
HETATM    3  N           1     -33.474  -3.984 -14.225  0.00  0.00    -0.344 N 
HETATM    4  H           1     -32.549  -3.575 -14.189  0.00  0.00     0.163 HD
HETATM    5  O           1     -35.042  -5.010 -15.440  0.00  0.00    -0.271 OA
BRANCH   3   6
HETATM    6  C           1     -34.308  -3.999 -13.040  0.00  0.00     0.189 C 
BRANCH   6   7
HETATM    7  C           1     -33.442  -4.259 -11.814  0.00  0.00     0.014 C 
HETATM    8  C           1     -32.904  -2.936 -11.284  0.00  0.00     0.012 C 
BRANCH   7   9
HETATM    9  C           1     -34.278  -4.935 -10.737  0.00  0.00     0.002 C 
HETATM   10  C           1     -34.030  -6.438 -10.770  0.00  0.00     0.005 C 
ENDBRANCH   7   9
ENDBRANCH   6   7
BRANCH   6  11
HETATM   11  C           1     -34.998  -2.665 -12.894  0.00  0.00     0.197 C 
HETATM   12  O           1     -34.767  -1.749 -13.712  0.00  0.00    -0.646 OA
HETATM   13  O           1     -35.802  -2.476 -11.955  0.00  0.00    -0.646 OA
ENDBRANCH   6  11
ENDBRANCH   3   6
ENDBRANCH   1   2
BRANCH   1  14
HETATM   14  C           1     -31.618  -4.743 -16.235  0.00  0.00     0.042 C 
BRANCH  14  15
HETATM   15  C           1     -30.859  -5.330 -17.419  0.00  0.00     0.004 C 
BRANCH  15  16
HETATM   16  C           1     -30.965  -6.849 -17.387  0.00  0.00     0.027 C 
BRANCH  16  17
HETATM   17  C           1     -29.601  -7.461 -17.678  0.00  0.00     0.229 C 
BRANCH  17  18
HETATM   18  N           1     -29.731  -8.470 -18.780  0.00  0.00    -0.079 N 
HETATM   19  H           1     -29.706  -9.432 -18.374  0.00  0.00     0.274 HD
HETATM   20  H           1     -30.638  -8.326 -19.279  0.00  0.00     0.274 HD
HETATM   21  H           1     -28.941  -8.354 -19.454  0.00  0.00     0.274 HD
ENDBRANCH  17  18
ENDBRANCH  16  17
ENDBRANCH  15  16
ENDBRANCH  14  15
ENDBRANCH   1  14
BRANCH   1  22
HETATM   22  N           1     -33.194  -3.176 -17.309  0.00  0.00    -0.067 N 
HETATM   23  H           1     -33.535  -2.465 -16.624  0.00  0.00     0.275 HD
HETATM   24  H           1     -32.261  -2.885 -17.678  0.00  0.00     0.275 HD
HETATM   25  H           1     -33.873  -3.251 -18.100  0.00  0.00     0.275 HD
ENDBRANCH   1  22
TORSDOF 11
ENDMDL
MODEL 4
REMARK VINA RESULT:      -5.9      2.735      7.482
REMARK  11 active torsions:
REMARK  status: ('A' for Active; 'I' for Inactive)
REMARK    1  A    between atoms: C_1  and  C_13 
REMARK    2  A    between atoms: C_1  and  C_16 
REMARK    3  A    between atoms: C_1  and  N_6 
REMARK    4  A    between atoms: N_4  and  C_23 
REMARK       I    between atoms: N_4  and  C_13 
REMARK    5  A    between atoms: C_5  and  C_21 
REMARK    6  A    between atoms: C_5  and  N_14 
REMARK    7  A    between atoms: C_7  and  C_22 
REMARK    8  A    between atoms: C_7  and  C_23 
REMARK    9  A    between atoms: C_16  and  C_24 
REMARK   10  A    between atoms: C_18  and  C_23 
REMARK   11  A    between atoms: C_21  and  C_24 
ROOT
HETATM    1  C           1     -21.971  -4.539  -7.122  0.00  0.00     0.274 C 
ENDROOT
BRANCH   1   2
HETATM    2  C           1     -21.056  -5.328  -6.218  0.00  0.00     0.249 C 
HETATM    3  N           1     -21.529  -6.430  -5.557  0.00  0.00    -0.344 N 
HETATM    4  H           1     -22.493  -6.714  -5.674  0.00  0.00     0.163 HD
HETATM    5  O           1     -19.905  -4.989  -6.079  0.00  0.00    -0.271 OA
BRANCH   3   6
HETATM    6  C           1     -20.650  -7.187  -4.689  0.00  0.00     0.189 C 
BRANCH   6   7
HETATM    7  C           1     -21.384  -7.531  -3.399  0.00  0.00     0.014 C 
HETATM    8  C           1     -20.430  -8.243  -2.448  0.00  0.00     0.012 C 
BRANCH   7   9
HETATM    9  C           1     -21.892  -6.252  -2.748  0.00  0.00     0.002 C 
HETATM   10  C           1     -22.280  -6.537  -1.303  0.00  0.00     0.005 C 
ENDBRANCH   7   9
ENDBRANCH   6   7
BRANCH   6  11
HETATM   11  C           1     -20.231  -8.459  -5.384  0.00  0.00     0.197 C 
HETATM   12  O           1     -19.026  -8.660  -5.648  0.00  0.00    -0.646 OA
HETATM   13  O           1     -21.090  -9.313  -5.696  0.00  0.00    -0.646 OA
ENDBRANCH   6  11
ENDBRANCH   3   6
ENDBRANCH   1   2
BRANCH   1  14
HETATM   14  C           1     -21.863  -5.071  -8.545  0.00  0.00     0.042 C 
BRANCH  14  15
HETATM   15  C           1     -22.349  -4.008  -9.523  0.00  0.00     0.004 C 
BRANCH  15  16
HETATM   16  C           1     -21.405  -3.947 -10.716  0.00  0.00     0.027 C 
BRANCH  16  17
HETATM   17  C           1     -21.874  -2.867 -11.682  0.00  0.00     0.229 C 
BRANCH  17  18
HETATM   18  N           1     -22.024  -3.454 -13.054  0.00  0.00    -0.079 N 
HETATM   19  H           1     -21.293  -4.185 -13.201  0.00  0.00     0.274 HD
HETATM   20  H           1     -22.971  -3.885 -13.146  0.00  0.00     0.274 HD
HETATM   21  H           1     -21.915  -2.699 -13.769  0.00  0.00     0.274 HD
ENDBRANCH  17  18
ENDBRANCH  16  17
ENDBRANCH  15  16
ENDBRANCH  14  15
ENDBRANCH   1  14
BRANCH   1  22
HETATM   22  N           1     -21.572  -3.094  -7.098  0.00  0.00    -0.067 N 
HETATM   23  H           1     -22.427  -2.495  -7.140  0.00  0.00     0.275 HD
HETATM   24  H           1     -21.048  -2.892  -6.216  0.00  0.00     0.275 HD
HETATM   25  H           1     -20.961  -2.888  -7.921  0.00  0.00     0.275 HD
ENDBRANCH   1  22
TORSDOF 11
ENDMDL
MODEL 5
REMARK VINA RESULT:      -5.7      2.894      7.148
REMARK  11 active torsions:
REMARK  status: ('A' for Active; 'I' for Inactive)
REMARK    1  A    between atoms: C_1  and  C_13 
REMARK    2  A    between atoms: C_1  and  C_16 
REMARK    3  A    between atoms: C_1  and  N_6 
REMARK    4  A    between atoms: N_4  and  C_23 
REMARK       I    between atoms: N_4  and  C_13 
REMARK    5  A    between atoms: C_5  and  C_21 
REMARK    6  A    between atoms: C_5  and  N_14 
REMARK    7  A    between atoms: C_7  and  C_22 
REMARK    8  A    between atoms: C_7  and  C_23 
REMARK    9  A    between atoms: C_16  and  C_24 
REMARK   10  A    between atoms: C_18  and  C_23 
REMARK   11  A    between atoms: C_21  and  C_24 
ROOT
HETATM    1  C           1     -20.442  -5.209  -6.274  0.00  0.00     0.274 C 
ENDROOT
BRANCH   1   2
HETATM    2  C           1     -21.321  -6.012  -5.347  0.00  0.00     0.249 C 
HETATM    3  N           1     -20.756  -6.836  -4.410  0.00  0.00    -0.344 N 
HETATM    4  H           1     -19.749  -6.907  -4.341  0.00  0.00     0.163 HD
HETATM    5  O           1     -22.523  -5.926  -5.429  0.00  0.00    -0.271 OA
BRANCH   3   6
HETATM    6  C           1     -21.601  -7.607  -3.520  0.00  0.00     0.189 C 
BRANCH   6   7
HETATM    7  C           1     -21.007  -8.997  -3.334  0.00  0.00     0.014 C 
HETATM    8  C           1     -21.901 -10.026  -4.014  0.00  0.00     0.012 C 
BRANCH   7   9
HETATM    9  C           1     -19.618  -9.041  -3.955  0.00  0.00     0.002 C 
HETATM   10  C           1     -18.589  -9.356  -2.878  0.00  0.00     0.005 C 
ENDBRANCH   7   9
ENDBRANCH   6   7
BRANCH   6  11
HETATM   11  C           1     -21.685  -6.913  -2.182  0.00  0.00     0.197 C 
HETATM   12  O           1     -21.209  -7.459  -1.164  0.00  0.00    -0.646 OA
HETATM   13  O           1     -22.231  -5.792  -2.093  0.00  0.00    -0.646 OA
ENDBRANCH   6  11
ENDBRANCH   3   6
ENDBRANCH   1   2
BRANCH   1  14
HETATM   14  C           1     -21.282  -4.159  -6.989  0.00  0.00     0.042 C 
BRANCH  14  15
HETATM   15  C           1     -20.906  -4.127  -8.465  0.00  0.00     0.004 C 
BRANCH  15  16
HETATM   16  C           1     -22.171  -4.147  -9.312  0.00  0.00     0.027 C 
BRANCH  16  17
HETATM   17  C           1     -23.393  -4.156  -8.402  0.00  0.00     0.229 C 
BRANCH  17  18
HETATM   18  N           1     -24.491  -3.353  -9.031  0.00  0.00    -0.079 N 
HETATM   19  H           1     -25.151  -3.994  -9.527  0.00  0.00     0.274 HD
HETATM   20  H           1     -25.007  -2.828  -8.290  0.00  0.00     0.274 HD
HETATM   21  H           1     -24.081  -2.677  -9.715  0.00  0.00     0.274 HD
ENDBRANCH  17  18
ENDBRANCH  16  17
ENDBRANCH  15  16
ENDBRANCH  14  15
ENDBRANCH   1  14
BRANCH   1  22
HETATM   22  N           1     -19.818  -6.124  -7.286  0.00  0.00    -0.067 N 
HETATM   23  H           1     -19.550  -7.023  -6.824  0.00  0.00     0.275 HD
HETATM   24  H           1     -20.503  -6.317  -8.051  0.00  0.00     0.275 HD
HETATM   25  H           1     -18.966  -5.670  -7.686  0.00  0.00     0.275 HD
ENDBRANCH   1  22
TORSDOF 11
ENDMDL
MODEL 6
REMARK VINA RESULT:      -5.6      1.633      2.196
REMARK  11 active torsions:
REMARK  status: ('A' for Active; 'I' for Inactive)
REMARK    1  A    between atoms: C_1  and  C_13 
REMARK    2  A    between atoms: C_1  and  C_16 
REMARK    3  A    between atoms: C_1  and  N_6 
REMARK    4  A    between atoms: N_4  and  C_23 
REMARK       I    between atoms: N_4  and  C_13 
REMARK    5  A    between atoms: C_5  and  C_21 
REMARK    6  A    between atoms: C_5  and  N_14 
REMARK    7  A    between atoms: C_7  and  C_22 
REMARK    8  A    between atoms: C_7  and  C_23 
REMARK    9  A    between atoms: C_16  and  C_24 
REMARK   10  A    between atoms: C_18  and  C_23 
REMARK   11  A    between atoms: C_21  and  C_24 
ROOT
HETATM    1  C           1     -21.544  -5.265  -6.134  0.00  0.00     0.274 C 
ENDROOT
BRANCH   1   2
HETATM    2  C           1     -21.867  -4.348  -7.288  0.00  0.00     0.249 C 
HETATM    3  N           1     -22.534  -4.830  -8.382  0.00  0.00    -0.344 N 
HETATM    4  H           1     -22.809  -5.803  -8.417  0.00  0.00     0.163 HD
HETATM    5  O           1     -21.538  -3.186  -7.245  0.00  0.00    -0.271 OA
BRANCH   3   6
HETATM    6  C           1     -22.843  -3.948  -9.489  0.00  0.00     0.189 C 
BRANCH   6   7
HETATM    7  C           1     -22.240  -4.511 -10.769  0.00  0.00     0.014 C 
HETATM    8  C           1     -22.763  -3.723 -11.965  0.00  0.00     0.012 C 
BRANCH   7   9
HETATM    9  C           1     -20.724  -4.395 -10.709  0.00  0.00     0.002 C 
HETATM   10  C           1     -20.301  -3.003 -11.160  0.00  0.00     0.005 C 
ENDBRANCH   7   9
ENDBRANCH   6   7
BRANCH   6  11
HETATM   11  C           1     -24.341  -3.842  -9.643  0.00  0.00     0.197 C 
HETATM   12  O           1     -25.021  -4.866  -9.863  0.00  0.00    -0.646 OA
HETATM   13  O           1     -24.901  -2.728  -9.549  0.00  0.00    -0.646 OA
ENDBRANCH   6  11
ENDBRANCH   3   6
ENDBRANCH   1   2
BRANCH   1  14
HETATM   14  C           1     -20.750  -6.462  -6.642  0.00  0.00     0.042 C 
BRANCH  14  15
HETATM   15  C           1     -20.127  -7.196  -5.461  0.00  0.00     0.004 C 
BRANCH  15  16
HETATM   16  C           1     -20.790  -8.557  -5.303  0.00  0.00     0.027 C 
BRANCH  16  17
HETATM   17  C           1     -19.733  -9.602  -4.966  0.00  0.00     0.229 C 
BRANCH  17  18
HETATM   18  N           1     -18.643  -9.560  -5.996  0.00  0.00    -0.079 N 
HETATM   19  H           1     -17.982 -10.353  -5.834  0.00  0.00     0.274 HD
HETATM   20  H           1     -19.062  -9.646  -6.950  0.00  0.00     0.274 HD
HETATM   21  H           1     -18.129  -8.654  -5.922  0.00  0.00     0.274 HD
ENDBRANCH  17  18
ENDBRANCH  16  17
ENDBRANCH  15  16
ENDBRANCH  14  15
ENDBRANCH   1  14
BRANCH   1  22
HETATM   22  N           1     -22.819  -5.743  -5.505  0.00  0.00    -0.067 N 
HETATM   23  H           1     -23.462  -4.931  -5.362  0.00  0.00     0.275 HD
HETATM   24  H           1     -23.276  -6.443  -6.131  0.00  0.00     0.275 HD
HETATM   25  H           1     -22.607  -6.186  -4.582  0.00  0.00     0.275 HD
ENDBRANCH   1  22
TORSDOF 11
ENDMDL
MODEL 7
REMARK VINA RESULT:      -5.3      5.527      7.438
REMARK  11 active torsions:
REMARK  status: ('A' for Active; 'I' for Inactive)
REMARK    1  A    between atoms: C_1  and  C_13 
REMARK    2  A    between atoms: C_1  and  C_16 
REMARK    3  A    between atoms: C_1  and  N_6 
REMARK    4  A    between atoms: N_4  and  C_23 
REMARK       I    between atoms: N_4  and  C_13 
REMARK    5  A    between atoms: C_5  and  C_21 
REMARK    6  A    between atoms: C_5  and  N_14 
REMARK    7  A    between atoms: C_7  and  C_22 
REMARK    8  A    between atoms: C_7  and  C_23 
REMARK    9  A    between atoms: C_16  and  C_24 
REMARK   10  A    between atoms: C_18  and  C_23 
REMARK   11  A    between atoms: C_21  and  C_24 
ROOT
HETATM    1  C           1     -21.073  -6.705  -3.976  0.00  0.00     0.274 C 
ENDROOT
BRANCH   1   2
HETATM    2  C           1     -20.388  -7.685  -4.896  0.00  0.00     0.249 C 
HETATM    3  N           1     -19.692  -8.743  -4.374  0.00  0.00    -0.344 N 
HETATM    4  H           1     -19.638  -8.866  -3.372  0.00  0.00     0.163 HD
HETATM    5  O           1     -20.454  -7.538  -6.093  0.00  0.00    -0.271 OA
BRANCH   3   6
HETATM    6  C           1     -19.035  -9.685  -5.258  0.00  0.00     0.189 C 
BRANCH   6   7
HETATM    7  C           1     -17.737 -10.159  -4.618  0.00  0.00     0.014 C 
HETATM    8  C           1     -16.571  -9.854  -5.550  0.00  0.00     0.012 C 
BRANCH   7   9
HETATM    9  C           1     -17.531  -9.437  -3.294  0.00  0.00     0.002 C 
HETATM   10  C           1     -16.071  -9.546  -2.877  0.00  0.00     0.005 C 
ENDBRANCH   7   9
ENDBRANCH   6   7
BRANCH   6  11
HETATM   11  C           1     -19.941 -10.868  -5.495  0.00  0.00     0.197 C 
HETATM   12  O           1     -20.597 -10.951  -6.556  0.00  0.00    -0.646 OA
HETATM   13  O           1     -20.036 -11.766  -4.631  0.00  0.00    -0.646 OA
ENDBRANCH   6  11
ENDBRANCH   3   6
ENDBRANCH   1   2
BRANCH   1  14
HETATM   14  C           1     -21.249  -7.334  -2.601  0.00  0.00     0.042 C 
BRANCH  14  15
HETATM   15  C           1     -22.124  -6.433  -1.738  0.00  0.00     0.004 C 
BRANCH  15  16
HETATM   16  C           1     -22.518  -7.173  -0.468  0.00  0.00     0.027 C 
BRANCH  16  17
HETATM   17  C           1     -21.529  -8.303  -0.209  0.00  0.00     0.229 C 
BRANCH  17  18
HETATM   18  N           1     -21.228  -8.378   1.258  0.00  0.00    -0.079 N 
HETATM   19  H           1     -22.122  -8.346   1.798  0.00  0.00     0.274 HD
HETATM   20  H           1     -20.728  -9.271   1.466  0.00  0.00     0.274 HD
HETATM   21  H           1     -20.625  -7.570   1.532  0.00  0.00     0.274 HD
ENDBRANCH  17  18
ENDBRANCH  16  17
ENDBRANCH  15  16
ENDBRANCH  14  15
ENDBRANCH   1  14
BRANCH   1  22
HETATM   22  N           1     -22.417  -6.348  -4.539  0.00  0.00    -0.067 N 
HETATM   23  H           1     -22.390  -6.427  -5.581  0.00  0.00     0.275 HD
HETATM   24  H           1     -23.138  -7.002  -4.159  0.00  0.00     0.275 HD
HETATM   25  H           1     -22.658  -5.367  -4.269  0.00  0.00     0.275 HD
ENDBRANCH   1  22
TORSDOF 11
ENDMDL
MODEL 8
REMARK VINA RESULT:      -5.2      3.768      8.302
REMARK  11 active torsions:
REMARK  status: ('A' for Active; 'I' for Inactive)
REMARK    1  A    between atoms: C_1  and  C_13 
REMARK    2  A    between atoms: C_1  and  C_16 
REMARK    3  A    between atoms: C_1  and  N_6 
REMARK    4  A    between atoms: N_4  and  C_23 
REMARK       I    between atoms: N_4  and  C_13 
REMARK    5  A    between atoms: C_5  and  C_21 
REMARK    6  A    between atoms: C_5  and  N_14 
REMARK    7  A    between atoms: C_7  and  C_22 
REMARK    8  A    between atoms: C_7  and  C_23 
REMARK    9  A    between atoms: C_16  and  C_24 
REMARK   10  A    between atoms: C_18  and  C_23 
REMARK   11  A    between atoms: C_21  and  C_24 
ROOT
HETATM    1  C           1     -21.427  -6.838  -5.713  0.00  0.00     0.274 C 
ENDROOT
BRANCH   1   2
HETATM    2  C           1     -20.759  -7.577  -4.579  0.00  0.00     0.249 C 
HETATM    3  N           1     -21.398  -7.704  -3.374  0.00  0.00    -0.344 N 
HETATM    4  H           1     -22.317  -7.302  -3.245  0.00  0.00     0.163 HD
HETATM    5  O           1     -19.662  -8.057  -4.734  0.00  0.00    -0.271 OA
BRANCH   3   6
HETATM    6  C           1     -20.756  -8.414  -2.286  0.00  0.00     0.189 C 
BRANCH   6   7
HETATM    7  C           1     -21.181  -7.798  -0.959  0.00  0.00     0.014 C 
HETATM    8  C           1     -22.295  -6.787  -1.203  0.00  0.00     0.012 C 
BRANCH   7   9
HETATM    9  C           1     -21.683  -8.893  -0.029  0.00  0.00     0.002 C 
HETATM   10  C           1     -21.167  -8.639   1.381  0.00  0.00     0.005 C 
ENDBRANCH   7   9
ENDBRANCH   6   7
BRANCH   6  11
HETATM   11  C           1     -21.168  -9.866  -2.321  0.00  0.00     0.197 C 
HETATM   12  O           1     -20.354 -10.755  -1.992  0.00  0.00    -0.646 OA
HETATM   13  O           1     -22.324 -10.179  -2.678  0.00  0.00    -0.646 OA
ENDBRANCH   6  11
ENDBRANCH   3   6
ENDBRANCH   1   2
BRANCH   1  14
HETATM   14  C           1     -20.453  -5.829  -6.306  0.00  0.00     0.042 C 
BRANCH  14  15
HETATM   15  C           1     -21.191  -4.532  -6.616  0.00  0.00     0.004 C 
BRANCH  15  16
HETATM   16  C           1     -21.103  -4.243  -8.109  0.00  0.00     0.027 C 
BRANCH  16  17
HETATM   17  C           1     -22.446  -4.538  -8.764  0.00  0.00     0.229 C 
BRANCH  17  18
HETATM   18  N           1     -23.554  -4.083  -7.861  0.00  0.00    -0.079 N 
HETATM   19  H           1     -23.931  -4.901  -7.333  0.00  0.00     0.274 HD
HETATM   20  H           1     -23.185  -3.373  -7.189  0.00  0.00     0.274 HD
HETATM   21  H           1     -24.317  -3.655  -8.435  0.00  0.00     0.274 HD
ENDBRANCH  17  18
ENDBRANCH  16  17
ENDBRANCH  15  16
ENDBRANCH  14  15
ENDBRANCH   1  14
BRANCH   1  22
HETATM   22  N           1     -22.638  -6.119  -5.196  0.00  0.00    -0.067 N 
HETATM   23  H           1     -23.163  -5.702  -5.997  0.00  0.00     0.275 HD
HETATM   24  H           1     -23.253  -6.794  -4.689  0.00  0.00     0.275 HD
HETATM   25  H           1     -22.339  -5.361  -4.542  0.00  0.00     0.275 HD
ENDBRANCH   1  22
TORSDOF 11
ENDMDL
MODEL 9
REMARK VINA RESULT:      -5.2      3.641      7.745
REMARK  11 active torsions:
REMARK  status: ('A' for Active; 'I' for Inactive)
REMARK    1  A    between atoms: C_1  and  C_13 
REMARK    2  A    between atoms: C_1  and  C_16 
REMARK    3  A    between atoms: C_1  and  N_6 
REMARK    4  A    between atoms: N_4  and  C_23 
REMARK       I    between atoms: N_4  and  C_13 
REMARK    5  A    between atoms: C_5  and  C_21 
REMARK    6  A    between atoms: C_5  and  N_14 
REMARK    7  A    between atoms: C_7  and  C_22 
REMARK    8  A    between atoms: C_7  and  C_23 
REMARK    9  A    between atoms: C_16  and  C_24 
REMARK   10  A    between atoms: C_18  and  C_23 
REMARK   11  A    between atoms: C_21  and  C_24 
ROOT
HETATM    1  C           1     -21.356  -6.097  -5.562  0.00  0.00     0.274 C 
ENDROOT
BRANCH   1   2
HETATM    2  C           1     -20.382  -7.250  -5.575  0.00  0.00     0.249 C 
HETATM    3  N           1     -20.416  -8.187  -4.577  0.00  0.00    -0.344 N 
HETATM    4  H           1     -21.095  -8.106  -3.830  0.00  0.00     0.163 HD
HETATM    5  O           1     -19.573  -7.347  -6.467  0.00  0.00    -0.271 OA
BRANCH   3   6
HETATM    6  C           1     -19.481  -9.294  -4.590  0.00  0.00     0.189 C 
BRANCH   6   7
HETATM    7  C           1     -19.096  -9.649  -3.159  0.00  0.00     0.014 C 
HETATM    8  C           1     -17.595  -9.459  -2.977  0.00  0.00     0.012 C 
BRANCH   7   9
HETATM    9  C           1     -19.844  -8.741  -2.193  0.00  0.00     0.002 C 
HETATM   10  C           1     -20.598  -9.591  -1.178  0.00  0.00     0.005 C 
ENDBRANCH   7   9
ENDBRANCH   6   7
BRANCH   6  11
HETATM   11  C           1     -20.126 -10.489  -5.248  0.00  0.00     0.197 C 
HETATM   12  O           1     -21.108 -11.045  -4.710  0.00  0.00    -0.646 OA
HETATM   13  O           1     -19.680 -10.923  -6.332  0.00  0.00    -0.646 OA
ENDBRANCH   6  11
ENDBRANCH   3   6
ENDBRANCH   1   2
BRANCH   1  14
HETATM   14  C           1     -20.590  -4.784  -5.646  0.00  0.00     0.042 C 
BRANCH  14  15
HETATM   15  C           1     -20.930  -4.081  -6.954  0.00  0.00     0.004 C 
BRANCH  15  16
HETATM   16  C           1     -22.378  -4.372  -7.326  0.00  0.00     0.027 C 
BRANCH  16  17
HETATM   17  C           1     -22.666  -3.825  -8.718  0.00  0.00     0.229 C 
BRANCH  17  18
HETATM   18  N           1     -24.127  -3.504  -8.836  0.00  0.00    -0.079 N 
HETATM   19  H           1     -24.542  -3.420  -7.881  0.00  0.00     0.274 HD
HETATM   20  H           1     -24.244  -2.601  -9.348  0.00  0.00     0.274 HD
HETATM   21  H           1     -24.609  -4.268  -9.362  0.00  0.00     0.274 HD
ENDBRANCH  17  18
ENDBRANCH  16  17
ENDBRANCH  15  16
ENDBRANCH  14  15
ENDBRANCH   1  14
BRANCH   1  22
HETATM   22  N           1     -22.153  -6.132  -4.292  0.00  0.00    -0.067 N 
HETATM   23  H           1     -22.237  -7.119  -3.960  0.00  0.00     0.275 HD
HETATM   24  H           1     -21.670  -5.560  -3.562  0.00  0.00     0.275 HD
HETATM   25  H           1     -23.106  -5.740  -4.468  0.00  0.00     0.275 HD
ENDBRANCH   1  22
TORSDOF 11
ENDMDL
