MODEL 1
REMARK VINA RESULT:      -5.3      0.000      0.000
REMARK  9 active torsions:
REMARK  status: ('A' for Active; 'I' for Inactive)
REMARK    1  A    between atoms: C_4  and  C_20 
REMARK    2  A    between atoms: C_4  and  Se_5 
REMARK    3  A    between atoms: N_6  and  C_20 
REMARK    4  A    between atoms: S_13  and  C_14 
REMARK    5  A    between atoms: C_14  and  C_15 
REMARK    6  A    between atoms: C_15  and  C_16 
REMARK    7  A    between atoms: C_16  and  C_17 
REMARK    8  A    between atoms: C_16  and  N_18 
REMARK       I    between atoms: N_18  and  C_19 
REMARK    9  A    between atoms: C_19  and  C_20 
ROOT
HETATM    1  O           1     -37.089  -0.897 -13.006  0.00  0.00    -0.271 OA
HETATM    2  H           1     -34.004  -1.045 -13.552  0.00  0.00     0.163 HD
HETATM    3  N           1     -34.895  -1.289 -13.140  0.00  0.00    -0.345 N 
HETATM    4  C           1     -36.026  -0.605 -13.498  0.00  0.00     0.249 C 
ENDROOT
BRANCH   3   5
HETATM    5  C           1     -34.974  -2.364 -12.170  0.00  0.00     0.186 C 
BRANCH   5   6
HETATM    6  C           1     -34.115  -3.532 -12.637  0.00  0.00     0.046 C 
BRANCH   6   7
HETATM    7  C           1     -34.726  -4.839 -12.148  0.00  0.00     0.076 C 
BRANCH   7   8
HETATM    8  S           1     -33.550  -5.687 -11.057  0.00  0.00    -0.173 SA
HETATM    9  C           1     -34.712  -6.941 -10.448  0.00  0.00     0.089 C 
ENDBRANCH   7   8
ENDBRANCH   6   7
ENDBRANCH   5   6
BRANCH   5  10
HETATM   10  C           1     -34.473  -1.872 -10.834  0.00  0.00     0.196 C 
HETATM   11  O           1     -33.254  -1.936 -10.562  0.00  0.00    -0.646 OA
HETATM   12  O           1     -35.276  -1.400 -10.001  0.00  0.00    -0.646 OA
ENDBRANCH   5  10
ENDBRANCH   3   5
BRANCH   4  13
HETATM   13  C           1     -35.943   0.514 -14.508  0.00  0.00     0.274 C 
BRANCH  13  14
HETATM   14  C           1     -36.791   0.165 -15.723  0.00  0.00     0.045 C 
BRANCH  14  15
HETATM   15 Se           1     -35.899  -1.221 -16.763  0.00  0.00     0.000 Se
HETATM   16  H           1     -37.077  -1.517 -17.595  0.00  0.00     0.000 HD
ENDBRANCH  14  15
ENDBRANCH  13  14
BRANCH  13  17
HETATM   17  N           1     -34.516   0.698 -14.931  0.00  0.00    -0.067 N 
HETATM   18  H           1     -34.481   0.919 -15.951  0.00  0.00     0.275 HD
HETATM   19  H           1     -33.981  -0.180 -14.745  0.00  0.00     0.275 HD
HETATM   20  H           1     -34.091   1.485 -14.389  0.00  0.00     0.275 HD
ENDBRANCH  13  17
ENDBRANCH   4  13
TORSDOF 9
ENDMDL
MODEL 2
REMARK VINA RESULT:      -5.0      1.818      2.475
REMARK  9 active torsions:
REMARK  status: ('A' for Active; 'I' for Inactive)
REMARK    1  A    between atoms: C_4  and  C_20 
REMARK    2  A    between atoms: C_4  and  Se_5 
REMARK    3  A    between atoms: N_6  and  C_20 
REMARK    4  A    between atoms: S_13  and  C_14 
REMARK    5  A    between atoms: C_14  and  C_15 
REMARK    6  A    between atoms: C_15  and  C_16 
REMARK    7  A    between atoms: C_16  and  C_17 
REMARK    8  A    between atoms: C_16  and  N_18 
REMARK       I    between atoms: N_18  and  C_19 
REMARK    9  A    between atoms: C_19  and  C_20 
ROOT
HETATM    1  O           1     -37.747  -0.726 -13.538  0.00  0.00    -0.271 OA
HETATM    2  H           1     -35.055   0.123 -12.170  0.00  0.00     0.163 HD
HETATM    3  N           1     -35.967  -0.306 -12.257  0.00  0.00    -0.345 N 
HETATM    4  C           1     -36.658  -0.214 -13.435  0.00  0.00     0.249 C 
ENDROOT
BRANCH   3   5
HETATM    5  C           1     -36.542  -1.019 -11.133  0.00  0.00     0.186 C 
BRANCH   5   6
HETATM    6  C           1     -35.547  -2.057 -10.629  0.00  0.00     0.046 C 
BRANCH   6   7
HETATM    7  C           1     -34.177  -1.782 -11.233  0.00  0.00     0.076 C 
BRANCH   7   8
HETATM    8  S           1     -33.278  -3.346 -11.431  0.00  0.00    -0.173 SA
HETATM    9  C           1     -34.115  -3.865 -12.955  0.00  0.00     0.089 C 
ENDBRANCH   7   8
ENDBRANCH   6   7
ENDBRANCH   5   6
BRANCH   5  10
HETATM   10  C           1     -36.855  -0.042 -10.026  0.00  0.00     0.196 C 
HETATM   11  O           1     -37.716   0.847 -10.202  0.00  0.00    -0.646 OA
HETATM   12  O           1     -36.254  -0.123  -8.932  0.00  0.00    -0.646 OA
ENDBRANCH   5  10
ENDBRANCH   3   5
BRANCH   4  13
HETATM   13  C           1     -36.059   0.529 -14.605  0.00  0.00     0.274 C 
BRANCH  13  14
HETATM   14  C           1     -36.635  -0.021 -15.904  0.00  0.00     0.045 C 
BRANCH  14  15
HETATM   15 Se           1     -35.471  -1.425 -16.589  0.00  0.00     0.000 Se
HETATM   16  H           1     -35.709  -2.335 -15.456  0.00  0.00     0.000 HD
ENDBRANCH  14  15
ENDBRANCH  13  14
BRANCH  13  17
HETATM   17  N           1     -34.571   0.346 -14.602  0.00  0.00    -0.067 N 
HETATM   18  H           1     -34.309  -0.390 -15.294  0.00  0.00     0.275 HD
HETATM   19  H           1     -34.258   0.057 -13.648  0.00  0.00     0.275 HD
HETATM   20  H           1     -34.109   1.248 -14.860  0.00  0.00     0.275 HD
ENDBRANCH  13  17
ENDBRANCH   4  13
TORSDOF 9
ENDMDL
MODEL 3
REMARK VINA RESULT:      -4.9      1.734      2.038
REMARK  9 active torsions:
REMARK  status: ('A' for Active; 'I' for Inactive)
REMARK    1  A    between atoms: C_4  and  C_20 
REMARK    2  A    between atoms: C_4  and  Se_5 
REMARK    3  A    between atoms: N_6  and  C_20 
REMARK    4  A    between atoms: S_13  and  C_14 
REMARK    5  A    between atoms: C_14  and  C_15 
REMARK    6  A    between atoms: C_15  and  C_16 
REMARK    7  A    between atoms: C_16  and  C_17 
REMARK    8  A    between atoms: C_16  and  N_18 
REMARK       I    between atoms: N_18  and  C_19 
REMARK    9  A    between atoms: C_19  and  C_20 
ROOT
HETATM    1  O           1     -34.947  -2.391 -14.160  0.00  0.00    -0.271 OA
HETATM    2  H           1     -35.675   0.211 -12.568  0.00  0.00     0.163 HD
HETATM    3  N           1     -35.463  -0.767 -12.718  0.00  0.00    -0.345 N 
HETATM    4  C           1     -35.201  -1.225 -13.981  0.00  0.00     0.249 C 
ENDROOT
BRANCH   3   5
HETATM    5  C           1     -35.434  -1.682 -11.594  0.00  0.00     0.186 C 
BRANCH   5   6
HETATM    6  C           1     -34.026  -1.732 -11.015  0.00  0.00     0.046 C 
BRANCH   6   7
HETATM    7  C           1     -33.518  -3.167 -11.038  0.00  0.00     0.076 C 
BRANCH   7   8
HETATM    8  S           1     -34.923  -4.305 -11.199  0.00  0.00    -0.173 SA
HETATM    9  C           1     -33.997  -5.819 -10.820  0.00  0.00     0.089 C 
ENDBRANCH   7   8
ENDBRANCH   6   7
ENDBRANCH   5   6
BRANCH   5  10
HETATM   10  C           1     -36.398  -1.206 -10.534  0.00  0.00     0.196 C 
HETATM   11  O           1     -35.964  -0.696  -9.479  0.00  0.00    -0.646 OA
HETATM   12  O           1     -37.629  -1.319 -10.713  0.00  0.00    -0.646 OA
ENDBRANCH   5  10
ENDBRANCH   3   5
BRANCH   4  13
HETATM   13  C           1     -35.231  -0.271 -15.151  0.00  0.00     0.274 C 
BRANCH  13  14
HETATM   14  C           1     -36.501   0.568 -15.089  0.00  0.00     0.045 C 
BRANCH  14  15
HETATM   15 Se           1     -37.968  -0.412 -15.918  0.00  0.00     0.000 Se
HETATM   16  H           1     -37.869   0.298 -17.203  0.00  0.00     0.000 HD
ENDBRANCH  14  15
ENDBRANCH  13  14
BRANCH  13  17
HETATM   17  N           1     -35.208  -1.050 -16.431  0.00  0.00    -0.067 N 
HETATM   18  H           1     -36.161  -1.431 -16.624  0.00  0.00     0.275 HD
HETATM   19  H           1     -34.528  -1.839 -16.347  0.00  0.00     0.275 HD
HETATM   20  H           1     -34.918  -0.424 -17.216  0.00  0.00     0.275 HD
ENDBRANCH  13  17
ENDBRANCH   4  13
TORSDOF 9
ENDMDL
MODEL 4
REMARK VINA RESULT:      -4.8     12.433     14.520
REMARK  9 active torsions:
REMARK  status: ('A' for Active; 'I' for Inactive)
REMARK    1  A    between atoms: C_4  and  C_20 
REMARK    2  A    between atoms: C_4  and  Se_5 
REMARK    3  A    between atoms: N_6  and  C_20 
REMARK    4  A    between atoms: S_13  and  C_14 
REMARK    5  A    between atoms: C_14  and  C_15 
REMARK    6  A    between atoms: C_15  and  C_16 
REMARK    7  A    between atoms: C_16  and  C_17 
REMARK    8  A    between atoms: C_16  and  N_18 
REMARK       I    between atoms: N_18  and  C_19 
REMARK    9  A    between atoms: C_19  and  C_20 
ROOT
HETATM    1  O           1     -21.529  -3.043  -7.248  0.00  0.00    -0.271 OA
HETATM    2  H           1     -22.551  -5.761  -8.434  0.00  0.00     0.163 HD
HETATM    3  N           1     -22.372  -4.766  -8.391  0.00  0.00    -0.345 N 
HETATM    4  C           1     -21.743  -4.230  -7.299  0.00  0.00     0.249 C 
ENDROOT
BRANCH   3   5
HETATM    5  C           1     -22.779  -3.909  -9.487  0.00  0.00     0.186 C 
BRANCH   5   6
HETATM    6  C           1     -22.225  -4.459 -10.795  0.00  0.00     0.046 C 
BRANCH   6   7
HETATM    7  C           1     -21.612  -3.324 -11.604  0.00  0.00     0.076 C 
BRANCH   7   8
HETATM    8  S           1     -22.919  -2.452 -12.512  0.00  0.00    -0.173 SA
HETATM    9  C           1     -23.808  -3.937 -13.057  0.00  0.00     0.089 C 
ENDBRANCH   7   8
ENDBRANCH   6   7
ENDBRANCH   5   6
BRANCH   5  10
HETATM   10  C           1     -24.287  -3.867  -9.557  0.00  0.00     0.196 C 
HETATM   11  O           1     -24.932  -4.916  -9.769  0.00  0.00    -0.646 OA
HETATM   12  O           1     -24.889  -2.783  -9.401  0.00  0.00    -0.646 OA
ENDBRANCH   5  10
ENDBRANCH   3   5
BRANCH   4  13
HETATM   13  C           1     -21.319  -5.123  -6.159  0.00  0.00     0.274 C 
BRANCH  13  14
HETATM   14  C           1     -20.375  -6.199  -6.680  0.00  0.00     0.045 C 
BRANCH  14  15
HETATM   15 Se           1     -20.190  -7.605  -5.344  0.00  0.00     0.000 Se
HETATM   16  H           1     -20.191  -6.678  -4.201  0.00  0.00     0.000 HD
ENDBRANCH  14  15
ENDBRANCH  13  14
BRANCH  13  17
HETATM   17  N           1     -22.530  -5.771  -5.556  0.00  0.00    -0.067 N 
HETATM   18  H           1     -23.265  -5.885  -6.289  0.00  0.00     0.275 HD
HETATM   19  H           1     -22.897  -5.171  -4.784  0.00  0.00     0.275 HD
HETATM   20  H           1     -22.270  -6.708  -5.174  0.00  0.00     0.275 HD
ENDBRANCH  13  17
ENDBRANCH   4  13
TORSDOF 9
ENDMDL
MODEL 5
REMARK VINA RESULT:      -4.6      3.059      4.038
REMARK  9 active torsions:
REMARK  status: ('A' for Active; 'I' for Inactive)
REMARK    1  A    between atoms: C_4  and  C_20 
REMARK    2  A    between atoms: C_4  and  Se_5 
REMARK    3  A    between atoms: N_6  and  C_20 
REMARK    4  A    between atoms: S_13  and  C_14 
REMARK    5  A    between atoms: C_14  and  C_15 
REMARK    6  A    between atoms: C_15  and  C_16 
REMARK    7  A    between atoms: C_16  and  C_17 
REMARK    8  A    between atoms: C_16  and  N_18 
REMARK       I    between atoms: N_18  and  C_19 
REMARK    9  A    between atoms: C_19  and  C_20 
ROOT
HETATM    1  O           1     -35.342   0.901 -13.807  0.00  0.00    -0.271 OA
HETATM    2  H           1     -37.745  -1.035 -13.248  0.00  0.00     0.163 HD
HETATM    3  N           1     -36.865  -0.563 -13.086  0.00  0.00    -0.345 N 
HETATM    4  C           1     -36.392   0.338 -14.002  0.00  0.00     0.249 C 
ENDROOT
BRANCH   3   5
HETATM    5  C           1     -36.107  -0.840 -11.881  0.00  0.00     0.186 C 
BRANCH   5   6
HETATM    6  C           1     -37.056  -0.939 -10.695  0.00  0.00     0.046 C 
BRANCH   6   7
HETATM    7  C           1     -36.859   0.266  -9.785  0.00  0.00     0.076 C 
BRANCH   7   8
HETATM    8  S           1     -37.591  -0.076  -8.160  0.00  0.00    -0.173 SA
HETATM    9  C           1     -37.217   1.543  -7.429  0.00  0.00     0.089 C 
ENDBRANCH   7   8
ENDBRANCH   6   7
ENDBRANCH   5   6
BRANCH   5  10
HETATM   10  C           1     -35.366  -2.146 -12.044  0.00  0.00     0.196 C 
HETATM   11  O           1     -35.682  -3.134 -11.347  0.00  0.00    -0.646 OA
HETATM   12  O           1     -34.439  -2.238 -12.877  0.00  0.00    -0.646 OA
ENDBRANCH   5  10
ENDBRANCH   3   5
BRANCH   4  13
HETATM   13  C           1     -37.183   0.625 -15.255  0.00  0.00     0.274 C 
BRANCH  13  14
HETATM   14  C           1     -37.317  -0.651 -16.074  0.00  0.00     0.045 C 
BRANCH  14  15
HETATM   15 Se           1     -35.546  -1.289 -16.580  0.00  0.00     0.000 Se
HETATM   16  H           1     -35.971  -1.770 -17.905  0.00  0.00     0.000 HD
ENDBRANCH  14  15
ENDBRANCH  13  14
BRANCH  13  17
HETATM   17  N           1     -36.471   1.667 -16.065  0.00  0.00    -0.067 N 
HETATM   18  H           1     -36.251   2.489 -15.460  0.00  0.00     0.275 HD
HETATM   19  H           1     -37.082   1.970 -16.857  0.00  0.00     0.275 HD
HETATM   20  H           1     -35.583   1.266 -16.446  0.00  0.00     0.275 HD
ENDBRANCH  13  17
ENDBRANCH   4  13
TORSDOF 9
ENDMDL
MODEL 6
REMARK VINA RESULT:      -4.5     10.575     11.538
REMARK  9 active torsions:
REMARK  status: ('A' for Active; 'I' for Inactive)
REMARK    1  A    between atoms: C_4  and  C_20 
REMARK    2  A    between atoms: C_4  and  Se_5 
REMARK    3  A    between atoms: N_6  and  C_20 
REMARK    4  A    between atoms: S_13  and  C_14 
REMARK    5  A    between atoms: C_14  and  C_15 
REMARK    6  A    between atoms: C_15  and  C_16 
REMARK    7  A    between atoms: C_16  and  C_17 
REMARK    8  A    between atoms: C_16  and  N_18 
REMARK       I    between atoms: N_18  and  C_19 
REMARK    9  A    between atoms: C_19  and  C_20 
ROOT
HETATM    1  O           1     -27.554  -5.668 -19.328  0.00  0.00    -0.271 OA
HETATM    2  H           1     -25.158  -7.315 -18.150  0.00  0.00     0.163 HD
HETATM    3  N           1     -25.986  -6.733 -18.148  0.00  0.00    -0.345 N 
HETATM    4  C           1     -26.566  -6.362 -19.331  0.00  0.00     0.249 C 
ENDROOT
BRANCH   3   5
HETATM    5  C           1     -26.558  -6.294 -16.890  0.00  0.00     0.186 C 
BRANCH   5   6
HETATM    6  C           1     -27.758  -7.166 -16.546  0.00  0.00     0.046 C 
BRANCH   6   7
HETATM    7  C           1     -28.820  -6.320 -15.858  0.00  0.00     0.076 C 
BRANCH   7   8
HETATM    8  S           1     -30.275  -6.181 -16.934  0.00  0.00    -0.173 SA
HETATM    9  C           1     -29.930  -7.661 -17.927  0.00  0.00     0.089 C 
ENDBRANCH   7   8
ENDBRANCH   6   7
ENDBRANCH   5   6
BRANCH   5  10
HETATM   10  C           1     -25.521  -6.410 -15.799  0.00  0.00     0.196 C 
HETATM   11  O           1     -24.922  -5.390 -15.395  0.00  0.00    -0.646 OA
HETATM   12  O           1     -25.262  -7.526 -15.300  0.00  0.00    -0.646 OA
ENDBRANCH   5  10
ENDBRANCH   3   5
BRANCH   4  13
HETATM   13  C           1     -25.969  -6.820 -20.640  0.00  0.00     0.274 C 
BRANCH  13  14
HETATM   14  C           1     -24.821  -7.783 -20.365  0.00  0.00     0.045 C 
BRANCH  14  15
HETATM   15 Se           1     -23.797  -8.058 -22.000  0.00  0.00     0.000 Se
HETATM   16  H           1     -23.670  -9.512 -21.814  0.00  0.00     0.000 HD
ENDBRANCH  14  15
ENDBRANCH  13  14
BRANCH  13  17
HETATM   17  N           1     -25.454  -5.632 -21.396  0.00  0.00    -0.067 N 
HETATM   18  H           1     -26.093  -4.820 -21.246  0.00  0.00     0.275 HD
HETATM   19  H           1     -25.413  -5.859 -22.415  0.00  0.00     0.275 HD
HETATM   20  H           1     -24.496  -5.390 -21.055  0.00  0.00     0.275 HD
ENDBRANCH  13  17
ENDBRANCH   4  13
TORSDOF 9
ENDMDL
MODEL 7
REMARK VINA RESULT:      -4.4     13.998     16.345
REMARK  9 active torsions:
REMARK  status: ('A' for Active; 'I' for Inactive)
REMARK    1  A    between atoms: C_4  and  C_20 
REMARK    2  A    between atoms: C_4  and  Se_5 
REMARK    3  A    between atoms: N_6  and  C_20 
REMARK    4  A    between atoms: S_13  and  C_14 
REMARK    5  A    between atoms: C_14  and  C_15 
REMARK    6  A    between atoms: C_15  and  C_16 
REMARK    7  A    between atoms: C_16  and  C_17 
REMARK    8  A    between atoms: C_16  and  N_18 
REMARK       I    between atoms: N_18  and  C_19 
REMARK    9  A    between atoms: C_19  and  C_20 
ROOT
HETATM    1  O           1     -21.091  -7.651  -6.424  0.00  0.00    -0.271 OA
HETATM    2  H           1     -21.397  -4.632  -5.631  0.00  0.00     0.163 HD
HETATM    3  N           1     -21.325  -5.439  -6.238  0.00  0.00    -0.345 N 
HETATM    4  C           1     -21.176  -6.689  -5.700  0.00  0.00     0.249 C 
ENDROOT
BRANCH   3   5
HETATM    5  C           1     -21.384  -5.270  -7.677  0.00  0.00     0.186 C 
BRANCH   5   6
HETATM    6  C           1     -22.424  -4.213  -8.022  0.00  0.00     0.046 C 
BRANCH   6   7
HETATM    7  C           1     -23.104  -4.579  -9.335  0.00  0.00     0.076 C 
BRANCH   7   8
HETATM    8  S           1     -24.485  -3.442  -9.640  0.00  0.00    -0.173 SA
HETATM    9  C           1     -24.228  -3.292 -11.430  0.00  0.00     0.089 C 
ENDBRANCH   7   8
ENDBRANCH   6   7
ENDBRANCH   5   6
BRANCH   5  10
HETATM   10  C           1     -20.032  -4.831  -8.185  0.00  0.00     0.196 C 
HETATM   11  O           1     -19.133  -4.513  -7.377  0.00  0.00    -0.646 OA
HETATM   12  O           1     -19.811  -4.787  -9.415  0.00  0.00    -0.646 OA
ENDBRANCH   5  10
ENDBRANCH   3   5
BRANCH   4  13
HETATM   13  C           1     -21.116  -6.863  -4.202  0.00  0.00     0.274 C 
BRANCH  13  14
HETATM   14  C           1     -21.257  -8.340  -3.857  0.00  0.00     0.045 C 
BRANCH  14  15
HETATM   15 Se           1     -20.077  -8.776  -2.368  0.00  0.00     0.000 Se
HETATM   16  H           1     -19.786 -10.137  -2.846  0.00  0.00     0.000 HD
ENDBRANCH  14  15
ENDBRANCH  13  14
BRANCH  13  17
HETATM   17  N           1     -22.233  -6.092  -3.565  0.00  0.00    -0.067 N 
HETATM   18  H           1     -22.564  -5.351  -4.222  0.00  0.00     0.275 HD
HETATM   19  H           1     -21.891  -5.649  -2.683  0.00  0.00     0.275 HD
HETATM   20  H           1     -23.023  -6.740  -3.344  0.00  0.00     0.275 HD
ENDBRANCH  13  17
ENDBRANCH   4  13
TORSDOF 9
ENDMDL
MODEL 8
REMARK VINA RESULT:      -4.4     15.126     16.521
REMARK  9 active torsions:
REMARK  status: ('A' for Active; 'I' for Inactive)
REMARK    1  A    between atoms: C_4  and  C_20 
REMARK    2  A    between atoms: C_4  and  Se_5 
REMARK    3  A    between atoms: N_6  and  C_20 
REMARK    4  A    between atoms: S_13  and  C_14 
REMARK    5  A    between atoms: C_14  and  C_15 
REMARK    6  A    between atoms: C_15  and  C_16 
REMARK    7  A    between atoms: C_16  and  C_17 
REMARK    8  A    between atoms: C_16  and  N_18 
REMARK       I    between atoms: N_18  and  C_19 
REMARK    9  A    between atoms: C_19  and  C_20 
ROOT
HETATM    1  O           1     -20.427  -4.495  -6.080  0.00  0.00    -0.271 OA
HETATM    2  H           1     -21.566  -7.228  -7.116  0.00  0.00     0.163 HD
HETATM    3  N           1     -21.128  -6.577  -6.476  0.00  0.00    -0.345 N 
HETATM    4  C           1     -20.949  -5.271  -6.844  0.00  0.00     0.249 C 
ENDROOT
BRANCH   3   5
HETATM    5  C           1     -20.693  -7.030  -5.169  0.00  0.00     0.186 C 
BRANCH   5   6
HETATM    6  C           1     -21.839  -6.891  -4.176  0.00  0.00     0.046 C 
BRANCH   6   7
HETATM    7  C           1     -21.374  -6.080  -2.974  0.00  0.00     0.076 C 
BRANCH   7   8
HETATM    8  S           1     -22.207  -6.683  -1.478  0.00  0.00    -0.173 SA
HETATM    9  C           1     -21.401  -8.309  -1.443  0.00  0.00     0.089 C 
ENDBRANCH   7   8
ENDBRANCH   6   7
ENDBRANCH   5   6
BRANCH   5  10
HETATM   10  C           1     -20.272  -8.477  -5.254  0.00  0.00     0.196 C 
HETATM   11  O           1     -19.143  -8.774  -5.700  0.00  0.00    -0.646 OA
HETATM   12  O           1     -21.052  -9.378  -4.876  0.00  0.00    -0.646 OA
ENDBRANCH   5  10
ENDBRANCH   3   5
BRANCH   4  13
HETATM   13  C           1     -21.403  -4.801  -8.204  0.00  0.00     0.274 C 
BRANCH  13  14
HETATM   14  C           1     -20.206  -4.275  -8.985  0.00  0.00     0.045 C 
BRANCH  14  15
HETATM   15 Se           1     -20.657  -4.176 -10.879  0.00  0.00     0.000 Se
HETATM   16  H           1     -21.416  -2.921 -10.750  0.00  0.00     0.000 HD
ENDBRANCH  14  15
ENDBRANCH  13  14
BRANCH  13  17
HETATM   17  N           1     -22.414  -3.706  -8.042  0.00  0.00    -0.067 N 
HETATM   18  H           1     -23.185  -3.838  -8.734  0.00  0.00     0.275 HD
HETATM   19  H           1     -21.955  -2.781  -8.204  0.00  0.00     0.275 HD
HETATM   20  H           1     -22.806  -3.734  -7.074  0.00  0.00     0.275 HD
ENDBRANCH  13  17
ENDBRANCH   4  13
TORSDOF 9
ENDMDL
MODEL 9
REMARK VINA RESULT:      -4.3      9.645     10.845
REMARK  9 active torsions:
REMARK  status: ('A' for Active; 'I' for Inactive)
REMARK    1  A    between atoms: C_4  and  C_20 
REMARK    2  A    between atoms: C_4  and  Se_5 
REMARK    3  A    between atoms: N_6  and  C_20 
REMARK    4  A    between atoms: S_13  and  C_14 
REMARK    5  A    between atoms: C_14  and  C_15 
REMARK    6  A    between atoms: C_15  and  C_16 
REMARK    7  A    between atoms: C_16  and  C_17 
REMARK    8  A    between atoms: C_16  and  N_18 
REMARK       I    between atoms: N_18  and  C_19 
REMARK    9  A    between atoms: C_19  and  C_20 
ROOT
HETATM    1  O           1     -25.951  -5.876 -16.990  0.00  0.00    -0.271 OA
HETATM    2  H           1     -27.846  -7.014 -19.216  0.00  0.00     0.163 HD
HETATM    3  N           1     -27.581  -6.624 -18.321  0.00  0.00    -0.345 N 
HETATM    4  C           1     -26.267  -6.341 -18.059  0.00  0.00     0.249 C 
ENDROOT
BRANCH   3   5
HETATM    5  C           1     -28.594  -6.364 -17.316  0.00  0.00     0.186 C 
BRANCH   5   6
HETATM    6  C           1     -29.934  -6.125 -17.997  0.00  0.00     0.046 C 
BRANCH   6   7
HETATM    7  C           1     -30.972  -5.733 -16.953  0.00  0.00     0.076 C 
BRANCH   7   8
HETATM    8  S           1     -31.647  -4.097 -17.354  0.00  0.00    -0.173 SA
HETATM    9  C           1     -33.202  -4.293 -16.439  0.00  0.00     0.089 C 
ENDBRANCH   7   8
ENDBRANCH   6   7
ENDBRANCH   5   6
BRANCH   5  10
HETATM   10  C           1     -28.702  -7.554 -16.393  0.00  0.00     0.196 C 
HETATM   11  O           1     -28.188  -7.511 -15.255  0.00  0.00    -0.646 OA
HETATM   12  O           1     -29.308  -8.581 -16.767  0.00  0.00    -0.646 OA
ENDBRANCH   5  10
ENDBRANCH   3   5
BRANCH   4  13
HETATM   13  C           1     -25.214  -6.612 -19.106  0.00  0.00     0.274 C 
BRANCH  13  14
HETATM   14  C           1     -25.861  -7.272 -20.317  0.00  0.00     0.045 C 
BRANCH  14  15
HETATM   15 Se           1     -24.473  -7.891 -21.538  0.00  0.00     0.000 Se
HETATM   16  H           1     -24.279  -9.176 -20.848  0.00  0.00     0.000 HD
ENDBRANCH  14  15
ENDBRANCH  13  14
BRANCH  13  17
HETATM   17  N           1     -24.170  -7.526 -18.537  0.00  0.00    -0.067 N 
HETATM   18  H           1     -24.179  -7.460 -17.495  0.00  0.00     0.275 HD
HETATM   19  H           1     -23.230  -7.246 -18.896  0.00  0.00     0.275 HD
HETATM   20  H           1     -24.373  -8.510 -18.826  0.00  0.00     0.275 HD
ENDBRANCH  13  17
ENDBRANCH   4  13
TORSDOF 9
ENDMDL
