MODEL 1
REMARK VINA RESULT:      -5.8      0.000      0.000
REMARK  7 active torsions:
REMARK  status: ('A' for Active; 'I' for Inactive)
REMARK    1  A    between atoms: C_2  and  C_14 
REMARK    2  A    between atoms: C_2  and  S_3 
REMARK    3  A    between atoms: N_4  and  C_14 
REMARK    4  A    between atoms: C_7  and  C_12 
REMARK    5  A    between atoms: C_12  and  C_19 
REMARK    6  A    between atoms: C_12  and  N_16 
REMARK    7  A    between atoms: C_14  and  C_15 
REMARK       I    between atoms: C_15  and  N_16 
ROOT
HETATM    1  H           1     -22.187  -5.803  -9.202  0.00  0.00     0.163 HD
HETATM    2  O           1     -21.557  -3.437  -7.241  0.00  0.00    -0.271 OA
HETATM    3  C           1     -21.610  -4.577  -7.638  0.00  0.00     0.249 C 
HETATM    4  N           1     -22.142  -4.849  -8.870  0.00  0.00    -0.344 N 
ENDROOT
BRANCH   3   5
HETATM    5  C           1     -21.091  -5.701  -6.776  0.00  0.00     0.283 C 
BRANCH   5   6
HETATM    6  C           1     -20.726  -5.160  -5.399  0.00  0.00     0.113 C 
BRANCH   6   7
HETATM    7  S           1     -21.383  -6.267  -4.120  0.00  0.00    -0.180 SA
HETATM    8  H           1     -20.187  -6.673  -3.659  0.00  0.00     0.101 HD
ENDBRANCH   6   7
ENDBRANCH   5   6
BRANCH   5   9
HETATM    9  N           1     -19.874  -6.300  -7.415  0.00  0.00    -0.066 N 
HETATM   10  H           1     -20.020  -7.326  -7.552  0.00  0.00     0.275 HD
HETATM   11  H           1     -19.708  -5.846  -8.342  0.00  0.00     0.275 HD
HETATM   12  H           1     -19.044  -6.145  -6.798  0.00  0.00     0.275 HD
ENDBRANCH   5   9
ENDBRANCH   3   5
BRANCH   4  13
HETATM   13  C           1     -22.641  -3.768  -9.698  0.00  0.00     0.189 C 
BRANCH  13  14
HETATM   14  C           1     -22.079  -3.908 -11.107  0.00  0.00     0.010 C 
HETATM   15  C           1     -22.487  -2.699 -11.938  0.00  0.00     0.012 C 
HETATM   16  C           1     -20.559  -3.990 -11.040  0.00  0.00     0.012 C 
ENDBRANCH  13  14
BRANCH  13  17
HETATM   17  C           1     -24.147  -3.829  -9.749  0.00  0.00     0.197 C 
HETATM   18  O           1     -24.823  -2.809  -9.493  0.00  0.00    -0.646 OA
HETATM   19  O           1     -24.720  -4.899 -10.048  0.00  0.00    -0.646 OA
ENDBRANCH  13  17
ENDBRANCH   4  13
TORSDOF 7
ENDMDL
MODEL 2
REMARK VINA RESULT:      -4.6     17.712     19.023
REMARK  7 active torsions:
REMARK  status: ('A' for Active; 'I' for Inactive)
REMARK    1  A    between atoms: C_2  and  C_14 
REMARK    2  A    between atoms: C_2  and  S_3 
REMARK    3  A    between atoms: N_4  and  C_14 
REMARK    4  A    between atoms: C_7  and  C_12 
REMARK    5  A    between atoms: C_12  and  C_19 
REMARK    6  A    between atoms: C_12  and  N_16 
REMARK    7  A    between atoms: C_14  and  C_15 
REMARK       I    between atoms: C_15  and  N_16 
ROOT
HETATM    1  H           1     -11.905   5.678 -19.222  0.00  0.00     0.163 HD
HETATM    2  O           1     -11.748   7.193 -21.965  0.00  0.00    -0.271 OA
HETATM    3  C           1     -11.536   6.970 -20.797  0.00  0.00     0.249 C 
HETATM    4  N           1     -12.081   5.864 -20.201  0.00  0.00    -0.344 N 
ENDROOT
BRANCH   3   5
HETATM    5  C           1     -10.673   7.911 -19.993  0.00  0.00     0.283 C 
BRANCH   5   6
HETATM    6  C           1     -11.217   9.329 -20.114  0.00  0.00     0.113 C 
BRANCH   6   7
HETATM    7  S           1     -12.695   9.501 -19.075  0.00  0.00    -0.180 SA
HETATM    8  H           1     -12.136   9.009 -17.955  0.00  0.00     0.101 HD
ENDBRANCH   6   7
ENDBRANCH   5   6
BRANCH   5   9
HETATM    9  N           1      -9.268   7.869 -20.516  0.00  0.00    -0.066 N 
HETATM   10  H           1      -8.727   8.674 -20.126  0.00  0.00     0.275 HD
HETATM   11  H           1      -8.815   6.973 -20.226  0.00  0.00     0.275 HD
HETATM   12  H           1      -9.283   7.931 -21.559  0.00  0.00     0.275 HD
ENDBRANCH   5   9
ENDBRANCH   3   5
BRANCH   4  13
HETATM   13  C           1     -12.911   4.960 -20.973  0.00  0.00     0.189 C 
BRANCH  13  14
HETATM   14  C           1     -12.639   3.526 -20.537  0.00  0.00     0.010 C 
HETATM   15  C           1     -13.400   2.568 -21.444  0.00  0.00     0.012 C 
HETATM   16  C           1     -11.146   3.241 -20.636  0.00  0.00     0.012 C 
ENDBRANCH  13  14
BRANCH  13  17
HETATM   17  C           1     -14.365   5.289 -20.741  0.00  0.00     0.197 C 
HETATM   18  O           1     -14.830   5.280 -19.581  0.00  0.00    -0.646 OA
HETATM   19  O           1     -15.104   5.572 -21.709  0.00  0.00    -0.646 OA
ENDBRANCH  13  17
ENDBRANCH   4  13
TORSDOF 7
ENDMDL
MODEL 3
REMARK VINA RESULT:      -4.5      3.895      6.714
REMARK  7 active torsions:
REMARK  status: ('A' for Active; 'I' for Inactive)
REMARK    1  A    between atoms: C_2  and  C_14 
REMARK    2  A    between atoms: C_2  and  S_3 
REMARK    3  A    between atoms: N_4  and  C_14 
REMARK    4  A    between atoms: C_7  and  C_12 
REMARK    5  A    between atoms: C_12  and  C_19 
REMARK    6  A    between atoms: C_12  and  N_16 
REMARK    7  A    between atoms: C_14  and  C_15 
REMARK       I    between atoms: C_15  and  N_16 
ROOT
HETATM    1  H           1     -19.797  -6.737  -4.604  0.00  0.00     0.163 HD
HETATM    2  O           1     -22.668  -5.885  -5.539  0.00  0.00    -0.271 OA
HETATM    3  C           1     -21.460  -5.908  -5.515  0.00  0.00     0.249 C 
HETATM    4  N           1     -20.808  -6.719  -4.624  0.00  0.00    -0.344 N 
ENDROOT
BRANCH   3   5
HETATM    5  C           1     -20.670  -5.043  -6.466  0.00  0.00     0.283 C 
BRANCH   5   6
HETATM    6  C           1     -21.600  -4.033  -7.126  0.00  0.00     0.113 C 
BRANCH   6   7
HETATM    7  S           1     -21.743  -4.409  -8.896  0.00  0.00    -0.180 SA
HETATM    8  H           1     -23.014  -3.990  -9.025  0.00  0.00     0.101 HD
ENDBRANCH   6   7
ENDBRANCH   5   6
BRANCH   5   9
HETATM    9  N           1     -20.040  -5.905  -7.519  0.00  0.00    -0.066 N 
HETATM   10  H           1     -19.599  -6.739  -7.070  0.00  0.00     0.275 HD
HETATM   11  H           1     -20.772  -6.220  -8.195  0.00  0.00     0.275 HD
HETATM   12  H           1     -19.309  -5.356  -8.026  0.00  0.00     0.275 HD
ENDBRANCH   5   9
ENDBRANCH   3   5
BRANCH   4  13
HETATM   13  C           1     -21.568  -7.550  -3.711  0.00  0.00     0.189 C 
BRANCH  13  14
HETATM   14  C           1     -20.895  -8.910  -3.585  0.00  0.00     0.010 C 
HETATM   15  C           1     -21.867  -9.999  -4.023  0.00  0.00     0.012 C 
HETATM   16  C           1     -19.658  -8.948  -4.473  0.00  0.00     0.012 C 
ENDBRANCH  13  14
BRANCH  13  17
HETATM   17  C           1     -21.622  -6.888  -2.356  0.00  0.00     0.197 C 
HETATM   18  O           1     -20.945  -7.345  -1.410  0.00  0.00    -0.646 OA
HETATM   19  O           1     -22.343  -5.882  -2.180  0.00  0.00    -0.646 OA
ENDBRANCH  13  17
ENDBRANCH   4  13
TORSDOF 7
ENDMDL
MODEL 4
REMARK VINA RESULT:      -4.4      6.282      8.798
REMARK  7 active torsions:
REMARK  status: ('A' for Active; 'I' for Inactive)
REMARK    1  A    between atoms: C_2  and  C_14 
REMARK    2  A    between atoms: C_2  and  S_3 
REMARK    3  A    between atoms: N_4  and  C_14 
REMARK    4  A    between atoms: C_7  and  C_12 
REMARK    5  A    between atoms: C_12  and  C_19 
REMARK    6  A    between atoms: C_12  and  N_16 
REMARK    7  A    between atoms: C_14  and  C_15 
REMARK       I    between atoms: C_15  and  N_16 
ROOT
HETATM    1  H           1     -22.368  -8.023  -2.966  0.00  0.00     0.163 HD
HETATM    2  O           1     -19.353  -8.883  -3.077  0.00  0.00    -0.271 OA
HETATM    3  C           1     -20.385  -8.372  -3.443  0.00  0.00     0.249 C 
HETATM    4  N           1     -21.504  -8.450  -2.659  0.00  0.00    -0.344 N 
ENDROOT
BRANCH   3   5
HETATM    5  C           1     -20.440  -7.647  -4.765  0.00  0.00     0.283 C 
BRANCH   5   6
HETATM    6  C           1     -21.191  -6.333  -4.595  0.00  0.00     0.113 C 
BRANCH   6   7
HETATM    7  S           1     -20.456  -5.072  -5.672  0.00  0.00    -0.180 SA
HETATM    8  H           1     -19.542  -4.644  -4.784  0.00  0.00     0.101 HD
ENDBRANCH   6   7
ENDBRANCH   5   6
BRANCH   5   9
HETATM    9  N           1     -21.150  -8.501  -5.773  0.00  0.00    -0.066 N 
HETATM   10  H           1     -20.820  -8.256  -6.734  0.00  0.00     0.275 HD
HETATM   11  H           1     -20.945  -9.508  -5.583  0.00  0.00     0.275 HD
HETATM   12  H           1     -22.180  -8.336  -5.706  0.00  0.00     0.275 HD
ENDBRANCH   5   9
ENDBRANCH   3   5
BRANCH   4  13
HETATM   13  C           1     -21.451  -9.147  -1.388  0.00  0.00     0.189 C 
BRANCH  13  14
HETATM   14  C           1     -22.241  -8.364  -0.348  0.00  0.00     0.010 C 
HETATM   15  C           1     -21.512  -8.417   0.988  0.00  0.00     0.012 C 
HETATM   16  C           1     -22.374  -6.914  -0.797  0.00  0.00     0.012 C 
ENDBRANCH  13  14
BRANCH  13  17
HETATM   17  C           1     -22.050 -10.523  -1.544  0.00  0.00     0.197 C 
HETATM   18  O           1     -23.283 -10.686  -1.422  0.00  0.00    -0.646 OA
HETATM   19  O           1     -21.312 -11.501  -1.795  0.00  0.00    -0.646 OA
ENDBRANCH  13  17
ENDBRANCH   4  13
TORSDOF 7
ENDMDL
MODEL 5
REMARK VINA RESULT:      -4.4      3.939      6.351
REMARK  7 active torsions:
REMARK  status: ('A' for Active; 'I' for Inactive)
REMARK    1  A    between atoms: C_2  and  C_14 
REMARK    2  A    between atoms: C_2  and  S_3 
REMARK    3  A    between atoms: N_4  and  C_14 
REMARK    4  A    between atoms: C_7  and  C_12 
REMARK    5  A    between atoms: C_12  and  C_19 
REMARK    6  A    between atoms: C_12  and  N_16 
REMARK    7  A    between atoms: C_14  and  C_15 
REMARK       I    between atoms: C_15  and  N_16 
ROOT
HETATM    1  H           1     -22.319  -6.061  -5.509  0.00  0.00     0.163 HD
HETATM    2  O           1     -19.442  -4.900  -5.971  0.00  0.00    -0.271 OA
HETATM    3  C           1     -20.643  -4.988  -6.074  0.00  0.00     0.249 C 
HETATM    4  N           1     -21.314  -5.987  -5.422  0.00  0.00    -0.344 N 
ENDROOT
BRANCH   3   5
HETATM    5  C           1     -21.402  -3.997  -6.921  0.00  0.00     0.283 C 
BRANCH   5   6
HETATM    6  C           1     -22.795  -4.540  -7.214  0.00  0.00     0.113 C 
BRANCH   6   7
HETATM    7  S           1     -23.277  -4.090  -8.904  0.00  0.00    -0.180 SA
HETATM    8  H           1     -24.519  -4.602  -8.837  0.00  0.00     0.101 HD
ENDBRANCH   6   7
ENDBRANCH   5   6
BRANCH   5   9
HETATM    9  N           1     -20.670  -3.779  -8.212  0.00  0.00    -0.066 N 
HETATM   10  H           1     -21.334  -3.884  -9.012  0.00  0.00     0.275 HD
HETATM   11  H           1     -20.261  -2.817  -8.223  0.00  0.00     0.275 HD
HETATM   12  H           1     -19.903  -4.484  -8.301  0.00  0.00     0.275 HD
ENDBRANCH   5   9
ENDBRANCH   3   5
BRANCH   4  13
HETATM   13  C           1     -20.585  -6.939  -4.608  0.00  0.00     0.189 C 
BRANCH  13  14
HETATM   14  C           1     -21.417  -7.304  -3.386  0.00  0.00     0.010 C 
HETATM   15  C           1     -20.601  -8.203  -2.467  0.00  0.00     0.012 C 
HETATM   16  C           1     -21.805  -6.034  -2.640  0.00  0.00     0.012 C 
ENDBRANCH  13  14
BRANCH  13  17
HETATM   17  C           1     -20.307  -8.183  -5.416  0.00  0.00     0.197 C 
HETATM   18  O           1     -19.130  -8.498  -5.694  0.00  0.00    -0.646 OA
HETATM   19  O           1     -21.254  -8.898  -5.809  0.00  0.00    -0.646 OA
ENDBRANCH  13  17
ENDBRANCH   4  13
TORSDOF 7
ENDMDL
MODEL 6
REMARK VINA RESULT:      -4.3      2.371      3.040
REMARK  7 active torsions:
REMARK  status: ('A' for Active; 'I' for Inactive)
REMARK    1  A    between atoms: C_2  and  C_14 
REMARK    2  A    between atoms: C_2  and  S_3 
REMARK    3  A    between atoms: N_4  and  C_14 
REMARK    4  A    between atoms: C_7  and  C_12 
REMARK    5  A    between atoms: C_12  and  C_19 
REMARK    6  A    between atoms: C_12  and  N_16 
REMARK    7  A    between atoms: C_14  and  C_15 
REMARK       I    between atoms: C_15  and  N_16 
ROOT
HETATM    1  H           1     -22.451  -3.954  -7.276  0.00  0.00     0.163 HD
HETATM    2  O           1     -20.827  -6.635  -7.412  0.00  0.00    -0.271 OA
HETATM    3  C           1     -21.430  -5.716  -6.909  0.00  0.00     0.249 C 
HETATM    4  N           1     -21.947  -4.723  -7.697  0.00  0.00    -0.344 N 
ENDROOT
BRANCH   3   5
HETATM    5  C           1     -21.611  -5.663  -5.412  0.00  0.00     0.283 C 
BRANCH   5   6
HETATM    6  C           1     -20.588  -6.572  -4.743  0.00  0.00     0.113 C 
BRANCH   6   7
HETATM    7  S           1     -21.423  -8.043  -4.087  0.00  0.00    -0.180 SA
HETATM    8  H           1     -21.412  -7.649  -2.801  0.00  0.00     0.101 HD
ENDBRANCH   6   7
ENDBRANCH   5   6
BRANCH   5   9
HETATM    9  N           1     -22.994  -6.123  -5.059  0.00  0.00    -0.066 N 
HETATM   10  H           1     -23.191  -5.902  -4.057  0.00  0.00     0.275 HD
HETATM   11  H           1     -23.690  -5.633  -5.666  0.00  0.00     0.275 HD
HETATM   12  H           1     -23.066  -7.155  -5.209  0.00  0.00     0.275 HD
ENDBRANCH   5   9
ENDBRANCH   3   5
BRANCH   4  13
HETATM   13  C           1     -21.773  -4.775  -9.135  0.00  0.00     0.189 C 
BRANCH  13  14
HETATM   14  C           1     -22.940  -4.069  -9.813  0.00  0.00     0.010 C 
HETATM   15  C           1     -23.564  -4.997 -10.846  0.00  0.00     0.012 C 
HETATM   16  C           1     -23.983  -3.696  -8.768  0.00  0.00     0.012 C 
ENDBRANCH  13  14
BRANCH  13  17
HETATM   17  C           1     -20.483  -4.089  -9.510  0.00  0.00     0.197 C 
HETATM   18  O           1     -19.715  -3.670  -8.618  0.00  0.00    -0.646 OA
HETATM   19  O           1     -20.181  -3.940 -10.715  0.00  0.00    -0.646 OA
ENDBRANCH  13  17
ENDBRANCH   4  13
TORSDOF 7
ENDMDL
MODEL 7
REMARK VINA RESULT:      -4.3      7.916      9.277
REMARK  7 active torsions:
REMARK  status: ('A' for Active; 'I' for Inactive)
REMARK    1  A    between atoms: C_2  and  C_14 
REMARK    2  A    between atoms: C_2  and  S_3 
REMARK    3  A    between atoms: N_4  and  C_14 
REMARK    4  A    between atoms: C_7  and  C_12 
REMARK    5  A    between atoms: C_12  and  C_19 
REMARK    6  A    between atoms: C_12  and  N_16 
REMARK    7  A    between atoms: C_14  and  C_15 
REMARK       I    between atoms: C_15  and  N_16 
ROOT
HETATM    1  H           1     -19.800  -8.594  -0.830  0.00  0.00     0.163 HD
HETATM    2  O           1     -20.874 -10.435  -3.132  0.00  0.00    -0.271 OA
HETATM    3  C           1     -20.080  -9.973  -2.347  0.00  0.00     0.249 C 
HETATM    4  N           1     -20.466  -8.981  -1.486  0.00  0.00    -0.344 N 
ENDROOT
BRANCH   3   5
HETATM    5  C           1     -18.662 -10.488  -2.317  0.00  0.00     0.283 C 
BRANCH   5   6
HETATM    6  C           1     -17.733  -9.457  -2.945  0.00  0.00     0.113 C 
BRANCH   6   7
HETATM    7  S           1     -16.013 -10.011  -2.778  0.00  0.00    -0.180 SA
HETATM    8  H           1     -16.000 -10.028  -1.434  0.00  0.00     0.101 HD
ENDBRANCH   6   7
ENDBRANCH   5   6
BRANCH   5   9
HETATM    9  N           1     -18.580 -11.770  -3.092  0.00  0.00    -0.066 N 
HETATM   10  H           1     -17.850 -12.387  -2.669  0.00  0.00     0.275 HD
HETATM   11  H           1     -19.505 -12.256  -3.061  0.00  0.00     0.275 HD
HETATM   12  H           1     -18.328 -11.562  -4.084  0.00  0.00     0.275 HD
ENDBRANCH   5   9
ENDBRANCH   3   5
BRANCH   4  13
HETATM   13  C           1     -21.828  -8.486  -1.515  0.00  0.00     0.189 C 
BRANCH  13  14
HETATM   14  C           1     -22.468  -8.682  -0.147  0.00  0.00     0.010 C 
HETATM   15  C           1     -23.243  -9.993  -0.133  0.00  0.00     0.012 C 
HETATM   16  C           1     -21.381  -8.723   0.920  0.00  0.00     0.012 C 
ENDBRANCH  13  14
BRANCH  13  17
HETATM   17  C           1     -21.822  -7.018  -1.862  0.00  0.00     0.197 C 
HETATM   18  O           1     -21.108  -6.600  -2.799  0.00  0.00    -0.646 OA
HETATM   19  O           1     -22.531  -6.219  -1.212  0.00  0.00    -0.646 OA
ENDBRANCH  13  17
ENDBRANCH   4  13
TORSDOF 7
ENDMDL
MODEL 8
REMARK VINA RESULT:      -4.3      6.498      9.464
REMARK  7 active torsions:
REMARK  status: ('A' for Active; 'I' for Inactive)
REMARK    1  A    between atoms: C_2  and  C_14 
REMARK    2  A    between atoms: C_2  and  S_3 
REMARK    3  A    between atoms: N_4  and  C_14 
REMARK    4  A    between atoms: C_7  and  C_12 
REMARK    5  A    between atoms: C_12  and  C_19 
REMARK    6  A    between atoms: C_12  and  N_16 
REMARK    7  A    between atoms: C_14  and  C_15 
REMARK       I    between atoms: C_15  and  N_16 
ROOT
HETATM    1  H           1     -22.265  -9.763  -2.566  0.00  0.00     0.163 HD
HETATM    2  O           1     -20.632  -7.110  -2.196  0.00  0.00    -0.271 OA
HETATM    3  C           1     -21.318  -7.933  -2.755  0.00  0.00     0.249 C 
HETATM    4  N           1     -21.692  -9.074  -2.097  0.00  0.00    -0.344 N 
ENDROOT
BRANCH   3   5
HETATM    5  C           1     -21.760  -7.704  -4.180  0.00  0.00     0.283 C 
BRANCH   5   6
HETATM    6  C           1     -20.564  -7.846  -5.112  0.00  0.00     0.113 C 
BRANCH   6   7
HETATM    7  S           1     -20.360  -6.318  -6.070  0.00  0.00    -0.180 SA
HETATM    8  H           1     -20.524  -6.887  -7.278  0.00  0.00     0.101 HD
ENDBRANCH   6   7
ENDBRANCH   5   6
BRANCH   5   9
HETATM    9  N           1     -22.334  -6.324  -4.309  0.00  0.00    -0.066 N 
HETATM   10  H           1     -22.101  -5.768  -3.456  0.00  0.00     0.275 HD
HETATM   11  H           1     -21.928  -5.856  -5.151  0.00  0.00     0.275 HD
HETATM   12  H           1     -23.372  -6.387  -4.411  0.00  0.00     0.275 HD
ENDBRANCH   5   9
ENDBRANCH   3   5
BRANCH   4  13
HETATM   13  C           1     -21.267  -9.294  -0.729  0.00  0.00     0.189 C 
BRANCH  13  14
HETATM   14  C           1     -22.490  -9.486   0.158  0.00  0.00     0.010 C 
HETATM   15  C           1     -23.143  -8.136   0.422  0.00  0.00     0.012 C 
HETATM   16  C           1     -23.485 -10.402  -0.544  0.00  0.00     0.012 C 
ENDBRANCH  13  14
BRANCH  13  17
HETATM   17  C           1     -20.399 -10.526  -0.664  0.00  0.00     0.197 C 
HETATM   18  O           1     -19.993 -11.061  -1.718  0.00  0.00    -0.646 OA
HETATM   19  O           1     -20.087 -11.013   0.445  0.00  0.00    -0.646 OA
ENDBRANCH  13  17
ENDBRANCH   4  13
TORSDOF 7
ENDMDL
MODEL 9
REMARK VINA RESULT:      -4.3      7.498      9.463
REMARK  7 active torsions:
REMARK  status: ('A' for Active; 'I' for Inactive)
REMARK    1  A    between atoms: C_2  and  C_14 
REMARK    2  A    between atoms: C_2  and  S_3 
REMARK    3  A    between atoms: N_4  and  C_14 
REMARK    4  A    between atoms: C_7  and  C_12 
REMARK    5  A    between atoms: C_12  and  C_19 
REMARK    6  A    between atoms: C_12  and  N_16 
REMARK    7  A    between atoms: C_14  and  C_15 
REMARK       I    between atoms: C_15  and  N_16 
ROOT
HETATM    1  H           1     -22.333  -8.482  -2.489  0.00  0.00     0.163 HD
HETATM    2  O           1     -19.636  -9.979  -1.918  0.00  0.00    -0.271 OA
HETATM    3  C           1     -20.423  -9.279  -2.509  0.00  0.00     0.249 C 
HETATM    4  N           1     -21.674  -9.068  -1.993  0.00  0.00    -0.344 N 
ENDROOT
BRANCH   3   5
HETATM    5  C           1     -20.028  -8.637  -3.816  0.00  0.00     0.283 C 
BRANCH   5   6
HETATM    6  C           1     -21.076  -8.955  -4.876  0.00  0.00     0.113 C 
BRANCH   6   7
HETATM    7  S           1     -20.972 -10.711  -5.322  0.00  0.00    -0.180 SA
HETATM    8  H           1     -19.684 -10.682  -5.705  0.00  0.00     0.101 HD
ENDBRANCH   6   7
ENDBRANCH   5   6
BRANCH   5   9
HETATM    9  N           1     -18.698  -9.173  -4.254  0.00  0.00    -0.066 N 
HETATM   10  H           1     -18.673 -10.208  -4.108  0.00  0.00     0.275 HD
HETATM   11  H           1     -18.553  -8.962  -5.267  0.00  0.00     0.275 HD
HETATM   12  H           1     -17.940  -8.724  -3.692  0.00  0.00     0.275 HD
ENDBRANCH   5   9
ENDBRANCH   3   5
BRANCH   4  13
HETATM   13  C           1     -22.054  -9.684  -0.737  0.00  0.00     0.189 C 
BRANCH  13  14
HETATM   14  C           1     -22.376  -8.600   0.282  0.00  0.00     0.010 C 
HETATM   15  C           1     -21.246  -8.509   1.300  0.00  0.00     0.012 C 
HETATM   16  C           1     -22.527  -7.262  -0.430  0.00  0.00     0.012 C 
ENDBRANCH  13  14
BRANCH  13  17
HETATM   17  C           1     -23.269 -10.552  -0.950  0.00  0.00     0.197 C 
HETATM   18  O           1     -23.427 -11.151  -2.036  0.00  0.00    -0.646 OA
HETATM   19  O           1     -24.119 -10.672  -0.041  0.00  0.00    -0.646 OA
ENDBRANCH  13  17
ENDBRANCH   4  13
TORSDOF 7
ENDMDL
