MODEL 1
REMARK VINA RESULT:      -7.9      0.000      0.000
REMARK  14 active torsions:
REMARK  status: ('A' for Active; 'I' for Inactive)
REMARK    1  A    between atoms: C_5  and  C_21 
REMARK    2  A    between atoms: C_5  and  C_6 
REMARK    3  A    between atoms: C_5  and  N_32 
REMARK    4  A    between atoms: C_6  and  C_25 
REMARK    5  A    between atoms: O_7  and  C_26 
REMARK    6  A    between atoms: O_7  and  P_15 
REMARK    7  A    between atoms: C_9  and  C_10 
REMARK    8  A    between atoms: C_10  and  C_23 
REMARK    9  A    between atoms: C_11  and  C_23 
REMARK   10  A    between atoms: P_15  and  O_28 
REMARK   11  A    between atoms: N_16  and  C_23 
REMARK       I    between atoms: N_16  and  C_21 
REMARK   12  A    between atoms: C_24  and  C_25 
REMARK   13  A    between atoms: C_24  and  C_34 
REMARK   14  A    between atoms: N_33  and  C_34 
ROOT
HETATM    1  N           1     -33.719  -4.653 -15.740  0.00  0.00    -0.344 N 
HETATM    2  H           1     -34.395  -5.249 -16.202  0.00  0.00     0.163 HD
HETATM    3  C           1     -34.062  -3.995 -14.588  0.00  0.00     0.249 C 
HETATM    4  O           1     -34.544  -2.888 -14.646  0.00  0.00    -0.271 OA
ENDROOT
BRANCH   1   5
HETATM    5  C           1     -32.390  -4.498 -16.295  0.00  0.00     0.189 C 
BRANCH   5   6
HETATM    6  C           1     -32.000  -5.769 -17.039  0.00  0.00     0.074 C 
BRANCH   6   7
HETATM    7  C           1     -30.643  -6.215 -16.590  0.00  0.00    -0.056 A 
HETATM    8  C           1     -30.002  -7.264 -17.247  0.00  0.00     0.010 A 
HETATM    9  C           1     -28.738  -7.680 -16.829  0.00  0.00     0.038 A 
HETATM   10  C           1     -28.115  -7.046 -15.754  0.00  0.00     0.081 A 
HETATM   11  C           1     -28.757  -5.996 -15.097  0.00  0.00     0.038 A 
HETATM   12  C           1     -30.021  -5.580 -15.515  0.00  0.00     0.010 A 
BRANCH  10  13
HETATM   13  O           1     -26.887  -7.450 -15.348  0.00  0.00    -0.247 OA
BRANCH  13  14
HETATM   14  P           1     -25.598  -6.709 -15.977  0.00  0.00     0.411 P 
HETATM   15  O           1     -25.998  -5.972 -17.197  0.00  0.00    -0.624 OA
HETATM   16  O           1     -24.570  -7.715 -16.323  0.00  0.00    -0.624 OA
BRANCH  14  17
HETATM   17  O           1     -24.995  -5.671 -14.897  0.00  0.00    -0.300 OA
HETATM   18  H           1     -24.073  -5.859 -14.865  0.00  0.00     0.223 HD
ENDBRANCH  14  17
ENDBRANCH  13  14
ENDBRANCH  10  13
ENDBRANCH   6   7
ENDBRANCH   5   6
BRANCH   5  19
HETATM   19  C           1     -32.378  -3.331 -17.251  0.00  0.00     0.197 C 
HETATM   20  O           1     -31.292  -2.890 -17.686  0.00  0.00    -0.646 OA
HETATM   21  O           1     -33.455  -2.804 -17.608  0.00  0.00    -0.646 OA
ENDBRANCH   5  19
ENDBRANCH   1   5
BRANCH   3  22
HETATM   22  C           1     -33.836  -4.651 -13.248  0.00  0.00     0.274 C 
BRANCH  22  23
HETATM   23  C           1     -34.700  -3.967 -12.196  0.00  0.00     0.042 C 
BRANCH  23  24
HETATM   24  C           1     -33.856  -3.662 -10.966  0.00  0.00     0.004 C 
BRANCH  24  25
HETATM   25  C           1     -34.018  -2.195 -10.591  0.00  0.00     0.027 C 
BRANCH  25  26
HETATM   26  C           1     -35.178  -1.595 -11.373  0.00  0.00     0.229 C 
BRANCH  26  27
HETATM   27  N           1     -34.723  -0.342 -12.061  0.00  0.00    -0.079 N 
HETATM   28  H           1     -34.711  -0.497 -13.094  0.00  0.00     0.274 HD
HETATM   29  H           1     -35.380   0.439 -11.835  0.00  0.00     0.274 HD
HETATM   30  H           1     -33.762  -0.094 -11.733  0.00  0.00     0.274 HD
ENDBRANCH  26  27
ENDBRANCH  25  26
ENDBRANCH  24  25
ENDBRANCH  23  24
ENDBRANCH  22  23
BRANCH  22  31
HETATM   31  N           1     -32.391  -4.523 -12.867  0.00  0.00    -0.067 N 
HETATM   32  H           1     -32.034  -3.587 -13.161  0.00  0.00     0.275 HD
HETATM   33  H           1     -32.294  -4.625 -11.832  0.00  0.00     0.275 HD
HETATM   34  H           1     -31.838  -5.271 -13.344  0.00  0.00     0.275 HD
ENDBRANCH  22  31
ENDBRANCH   3  22
TORSDOF 14
ENDMDL
MODEL 2
REMARK VINA RESULT:      -7.8      1.282      2.271
REMARK  14 active torsions:
REMARK  status: ('A' for Active; 'I' for Inactive)
REMARK    1  A    between atoms: C_5  and  C_21 
REMARK    2  A    between atoms: C_5  and  C_6 
REMARK    3  A    between atoms: C_5  and  N_32 
REMARK    4  A    between atoms: C_6  and  C_25 
REMARK    5  A    between atoms: O_7  and  C_26 
REMARK    6  A    between atoms: O_7  and  P_15 
REMARK    7  A    between atoms: C_9  and  C_10 
REMARK    8  A    between atoms: C_10  and  C_23 
REMARK    9  A    between atoms: C_11  and  C_23 
REMARK   10  A    between atoms: P_15  and  O_28 
REMARK   11  A    between atoms: N_16  and  C_23 
REMARK       I    between atoms: N_16  and  C_21 
REMARK   12  A    between atoms: C_24  and  C_25 
REMARK   13  A    between atoms: C_24  and  C_34 
REMARK   14  A    between atoms: N_33  and  C_34 
ROOT
HETATM    1  N           1     -33.697  -4.698 -15.817  0.00  0.00    -0.344 N 
HETATM    2  H           1     -34.355  -5.321 -16.268  0.00  0.00     0.163 HD
HETATM    3  C           1     -34.055  -4.038 -14.672  0.00  0.00     0.249 C 
HETATM    4  O           1     -34.575  -2.949 -14.740  0.00  0.00    -0.271 OA
ENDROOT
BRANCH   1   5
HETATM    5  C           1     -32.377  -4.505 -16.383  0.00  0.00     0.189 C 
BRANCH   5   6
HETATM    6  C           1     -31.956  -5.765 -17.128  0.00  0.00     0.074 C 
BRANCH   6   7
HETATM    7  C           1     -30.603  -6.198 -16.654  0.00  0.00    -0.056 A 
HETATM    8  C           1     -30.003  -5.552 -15.573  0.00  0.00     0.010 A 
HETATM    9  C           1     -28.744  -5.955 -15.131  0.00  0.00     0.038 A 
HETATM   10  C           1     -28.084  -7.006 -15.769  0.00  0.00     0.081 A 
HETATM   11  C           1     -28.685  -7.653 -16.849  0.00  0.00     0.038 A 
HETATM   12  C           1     -29.944  -7.249 -17.292  0.00  0.00     0.010 A 
BRANCH  10  13
HETATM   13  O           1     -26.860  -7.398 -15.339  0.00  0.00    -0.247 OA
BRANCH  13  14
HETATM   14  P           1     -25.563  -6.717 -16.018  0.00  0.00     0.411 P 
HETATM   15  O           1     -25.959  -6.050 -17.278  0.00  0.00    -0.624 OA
HETATM   16  O           1     -24.554  -7.760 -16.308  0.00  0.00    -0.624 OA
BRANCH  14  17
HETATM   17  O           1     -24.937  -5.626 -15.006  0.00  0.00    -0.300 OA
HETATM   18  H           1     -25.216  -5.899 -14.149  0.00  0.00     0.223 HD
ENDBRANCH  14  17
ENDBRANCH  13  14
ENDBRANCH  10  13
ENDBRANCH   6   7
ENDBRANCH   5   6
BRANCH   5  19
HETATM   19  C           1     -32.406  -3.339 -17.340  0.00  0.00     0.197 C 
HETATM   20  O           1     -33.485  -2.760 -17.587  0.00  0.00    -0.646 OA
HETATM   21  O           1     -31.350  -2.953 -17.886  0.00  0.00    -0.646 OA
ENDBRANCH   5  19
ENDBRANCH   1   5
BRANCH   3  22
HETATM   22  C           1     -33.799  -4.670 -13.325  0.00  0.00     0.274 C 
BRANCH  22  23
HETATM   23  C           1     -34.690  -4.013 -12.279  0.00  0.00     0.042 C 
BRANCH  23  24
HETATM   24  C           1     -34.129  -4.286 -10.890  0.00  0.00     0.004 C 
BRANCH  24  25
HETATM   25  C           1     -34.937  -5.394 -10.226  0.00  0.00     0.027 C 
BRANCH  25  26
HETATM   26  C           1     -34.197  -6.717 -10.368  0.00  0.00     0.229 C 
BRANCH  26  27
HETATM   27  N           1     -34.975  -7.801  -9.682  0.00  0.00    -0.079 N 
HETATM   28  H           1     -35.941  -7.841 -10.078  0.00  0.00     0.274 HD
HETATM   29  H           1     -34.500  -8.720  -9.832  0.00  0.00     0.274 HD
HETATM   30  H           1     -35.025  -7.599  -8.658  0.00  0.00     0.274 HD
ENDBRANCH  26  27
ENDBRANCH  25  26
ENDBRANCH  24  25
ENDBRANCH  23  24
ENDBRANCH  22  23
BRANCH  22  31
HETATM   31  N           1     -32.361  -4.478 -12.948  0.00  0.00    -0.067 N 
HETATM   32  H           1     -32.213  -3.495 -12.625  0.00  0.00     0.275 HD
HETATM   33  H           1     -32.111  -5.139 -12.179  0.00  0.00     0.275 HD
HETATM   34  H           1     -31.755  -4.666 -13.779  0.00  0.00     0.275 HD
ENDBRANCH  22  31
ENDBRANCH   3  22
TORSDOF 14
ENDMDL
MODEL 3
REMARK VINA RESULT:      -7.3     10.990     13.502
REMARK  14 active torsions:
REMARK  status: ('A' for Active; 'I' for Inactive)
REMARK    1  A    between atoms: C_5  and  C_21 
REMARK    2  A    between atoms: C_5  and  C_6 
REMARK    3  A    between atoms: C_5  and  N_32 
REMARK    4  A    between atoms: C_6  and  C_25 
REMARK    5  A    between atoms: O_7  and  C_26 
REMARK    6  A    between atoms: O_7  and  P_15 
REMARK    7  A    between atoms: C_9  and  C_10 
REMARK    8  A    between atoms: C_10  and  C_23 
REMARK    9  A    between atoms: C_11  and  C_23 
REMARK   10  A    between atoms: P_15  and  O_28 
REMARK   11  A    between atoms: N_16  and  C_23 
REMARK       I    between atoms: N_16  and  C_21 
REMARK   12  A    between atoms: C_24  and  C_25 
REMARK   13  A    between atoms: C_24  and  C_34 
REMARK   14  A    between atoms: N_33  and  C_34 
ROOT
HETATM    1  N           1     -22.235  -5.788  -5.382  0.00  0.00    -0.344 N 
HETATM    2  H           1     -23.182  -5.463  -5.231  0.00  0.00     0.163 HD
HETATM    3  C           1     -21.587  -6.490  -4.400  0.00  0.00     0.249 C 
HETATM    4  O           1     -20.931  -5.905  -3.572  0.00  0.00    -0.271 OA
ENDROOT
BRANCH   1   5
HETATM    5  C           1     -21.566  -5.511  -6.637  0.00  0.00     0.189 C 
BRANCH   5   6
HETATM    6  C           1     -21.947  -4.117  -7.118  0.00  0.00     0.074 C 
BRANCH   6   7
HETATM    7  C           1     -22.402  -4.186  -8.543  0.00  0.00    -0.056 A 
HETATM    8  C           1     -23.760  -4.090  -8.846  0.00  0.00     0.010 A 
HETATM    9  C           1     -24.184  -4.154 -10.173  0.00  0.00     0.038 A 
HETATM   10  C           1     -23.250  -4.314 -11.197  0.00  0.00     0.081 A 
HETATM   11  C           1     -21.892  -4.409 -10.893  0.00  0.00     0.038 A 
HETATM   12  C           1     -21.468  -4.345  -9.566  0.00  0.00     0.010 A 
BRANCH  10  13
HETATM   13  O           1     -23.663  -4.376 -12.486  0.00  0.00    -0.247 OA
BRANCH  13  14
HETATM   14  P           1     -23.980  -2.989 -13.249  0.00  0.00     0.411 P 
HETATM   15  O           1     -25.399  -2.625 -13.043  0.00  0.00    -0.624 OA
HETATM   16  O           1     -23.717  -3.150 -14.696  0.00  0.00    -0.624 OA
BRANCH  14  17
HETATM   17  O           1     -23.035  -1.822 -12.656  0.00  0.00    -0.300 OA
HETATM   18  H           1     -22.819  -2.102 -11.783  0.00  0.00     0.223 HD
ENDBRANCH  14  17
ENDBRANCH  13  14
ENDBRANCH  10  13
ENDBRANCH   6   7
ENDBRANCH   5   6
BRANCH   5  19
HETATM   19  C           1     -20.072  -5.584  -6.436  0.00  0.00     0.197 C 
HETATM   20  O           1     -19.449  -6.621  -6.750  0.00  0.00    -0.646 OA
HETATM   21  O           1     -19.458  -4.607  -5.956  0.00  0.00    -0.646 OA
ENDBRANCH   5  19
ENDBRANCH   1   5
BRANCH   3  22
HETATM   22  C           1     -21.694  -7.995  -4.354  0.00  0.00     0.274 C 
BRANCH  22  23
HETATM   23  C           1     -20.839  -8.530  -3.212  0.00  0.00     0.042 C 
BRANCH  23  24
HETATM   24  C           1     -21.741  -9.095  -2.124  0.00  0.00     0.004 C 
BRANCH  24  25
HETATM   25  C           1     -21.433  -8.406  -0.800  0.00  0.00     0.027 C 
BRANCH  25  26
HETATM   26  C           1     -22.531  -7.401  -0.483  0.00  0.00     0.229 C 
BRANCH  26  27
HETATM   27  N           1     -23.446  -7.972   0.560  0.00  0.00    -0.079 N 
HETATM   28  H           1     -23.181  -8.964   0.749  0.00  0.00     0.274 HD
HETATM   29  H           1     -23.362  -7.415   1.440  0.00  0.00     0.274 HD
HETATM   30  H           1     -24.433  -7.933   0.217  0.00  0.00     0.274 HD
ENDBRANCH  26  27
ENDBRANCH  25  26
ENDBRANCH  24  25
ENDBRANCH  23  24
ENDBRANCH  22  23
BRANCH  22  31
HETATM   31  N           1     -21.210  -8.570  -5.652  0.00  0.00    -0.067 N 
HETATM   32  H           1     -20.762  -7.818  -6.221  0.00  0.00     0.275 HD
HETATM   33  H           1     -20.513  -9.324  -5.460  0.00  0.00     0.275 HD
HETATM   34  H           1     -22.020  -8.969  -6.179  0.00  0.00     0.275 HD
ENDBRANCH  22  31
ENDBRANCH   3  22
TORSDOF 14
ENDMDL
MODEL 4
REMARK VINA RESULT:      -7.3     12.310     14.681
REMARK  14 active torsions:
REMARK  status: ('A' for Active; 'I' for Inactive)
REMARK    1  A    between atoms: C_5  and  C_21 
REMARK    2  A    between atoms: C_5  and  C_6 
REMARK    3  A    between atoms: C_5  and  N_32 
REMARK    4  A    between atoms: C_6  and  C_25 
REMARK    5  A    between atoms: O_7  and  C_26 
REMARK    6  A    between atoms: O_7  and  P_15 
REMARK    7  A    between atoms: C_9  and  C_10 
REMARK    8  A    between atoms: C_10  and  C_23 
REMARK    9  A    between atoms: C_11  and  C_23 
REMARK   10  A    between atoms: P_15  and  O_28 
REMARK   11  A    between atoms: N_16  and  C_23 
REMARK       I    between atoms: N_16  and  C_21 
REMARK   12  A    between atoms: C_24  and  C_25 
REMARK   13  A    between atoms: C_24  and  C_34 
REMARK   14  A    between atoms: N_33  and  C_34 
ROOT
HETATM    1  N           1     -22.339  -6.428  -4.269  0.00  0.00    -0.344 N 
HETATM    2  H           1     -23.317  -6.192  -4.377  0.00  0.00     0.163 HD
HETATM    3  C           1     -21.740  -6.322  -3.042  0.00  0.00     0.249 C 
HETATM    4  O           1     -21.214  -5.285  -2.715  0.00  0.00    -0.271 OA
ENDROOT
BRANCH   1   5
HETATM    5  C           1     -21.572  -6.877  -5.414  0.00  0.00     0.189 C 
BRANCH   5   6
HETATM    6  C           1     -20.586  -5.791  -5.821  0.00  0.00     0.074 C 
BRANCH   6   7
HETATM    7  C           1     -21.059  -5.131  -7.080  0.00  0.00    -0.056 A 
HETATM    8  C           1     -20.253  -5.144  -8.218  0.00  0.00     0.010 A 
HETATM    9  C           1     -20.694  -4.531  -9.390  0.00  0.00     0.038 A 
HETATM   10  C           1     -21.940  -3.905  -9.425  0.00  0.00     0.081 A 
HETATM   11  C           1     -22.746  -3.893  -8.286  0.00  0.00     0.038 A 
HETATM   12  C           1     -22.305  -4.506  -7.113  0.00  0.00     0.010 A 
BRANCH  10  13
HETATM   13  O           1     -22.368  -3.309 -10.564  0.00  0.00    -0.247 OA
BRANCH  13  14
HETATM   14  P           1     -23.619  -3.968 -11.342  0.00  0.00     0.411 P 
HETATM   15  O           1     -24.843  -3.184 -11.063  0.00  0.00    -0.624 OA
HETATM   16  O           1     -23.810  -5.361 -10.878  0.00  0.00    -0.624 OA
BRANCH  14  17
HETATM   17  O           1     -23.328  -3.963 -12.930  0.00  0.00    -0.300 OA
HETATM   18  H           1     -24.074  -3.535 -13.314  0.00  0.00     0.223 HD
ENDBRANCH  14  17
ENDBRANCH  13  14
ENDBRANCH  10  13
ENDBRANCH   6   7
ENDBRANCH   5   6
BRANCH   5  19
HETATM   19  C           1     -20.818  -8.133  -5.052  0.00  0.00     0.197 C 
HETATM   20  O           1     -21.438  -9.202  -4.865  0.00  0.00    -0.646 OA
HETATM   21  O           1     -19.574  -8.104  -4.940  0.00  0.00    -0.646 OA
ENDBRANCH   5  19
ENDBRANCH   1   5
BRANCH   3  22
HETATM   22  C           1     -21.737  -7.501  -2.100  0.00  0.00     0.274 C 
BRANCH  22  23
HETATM   23  C           1     -22.359  -7.090  -0.771  0.00  0.00     0.042 C 
BRANCH  23  24
HETATM   24  C           1     -22.108  -8.178   0.264  0.00  0.00     0.004 C 
BRANCH  24  25
HETATM   25  C           1     -23.046  -9.350   0.007  0.00  0.00     0.027 C 
BRANCH  25  26
HETATM   26  C           1     -22.243 -10.644  -0.030  0.00  0.00     0.229 C 
BRANCH  26  27
HETATM   27  N           1     -20.967 -10.463   0.738  0.00  0.00    -0.079 N 
HETATM   28  H           1     -20.159 -10.477   0.076  0.00  0.00     0.274 HD
HETATM   29  H           1     -20.989  -9.549   1.241  0.00  0.00     0.274 HD
HETATM   30  H           1     -20.864 -11.240   1.430  0.00  0.00     0.274 HD
ENDBRANCH  26  27
ENDBRANCH  25  26
ENDBRANCH  24  25
ENDBRANCH  23  24
ENDBRANCH  22  23
BRANCH  22  31
HETATM   31  N           1     -20.326  -7.955  -1.872  0.00  0.00    -0.067 N 
HETATM   32  H           1     -19.717  -7.601  -2.643  0.00  0.00     0.275 HD
HETATM   33  H           1     -19.984  -7.581  -0.958  0.00  0.00     0.275 HD
HETATM   34  H           1     -20.295  -8.999  -1.855  0.00  0.00     0.275 HD
ENDBRANCH  22  31
ENDBRANCH   3  22
TORSDOF 14
ENDMDL
MODEL 5
REMARK VINA RESULT:      -6.8     12.214     14.772
REMARK  14 active torsions:
REMARK  status: ('A' for Active; 'I' for Inactive)
REMARK    1  A    between atoms: C_5  and  C_21 
REMARK    2  A    between atoms: C_5  and  C_6 
REMARK    3  A    between atoms: C_5  and  N_32 
REMARK    4  A    between atoms: C_6  and  C_25 
REMARK    5  A    between atoms: O_7  and  C_26 
REMARK    6  A    between atoms: O_7  and  P_15 
REMARK    7  A    between atoms: C_9  and  C_10 
REMARK    8  A    between atoms: C_10  and  C_23 
REMARK    9  A    between atoms: C_11  and  C_23 
REMARK   10  A    between atoms: P_15  and  O_28 
REMARK   11  A    between atoms: N_16  and  C_23 
REMARK       I    between atoms: N_16  and  C_21 
REMARK   12  A    between atoms: C_24  and  C_25 
REMARK   13  A    between atoms: C_24  and  C_34 
REMARK   14  A    between atoms: N_33  and  C_34 
ROOT
HETATM    1  N           1     -21.631  -4.058  -6.777  0.00  0.00    -0.344 N 
HETATM    2  H           1     -21.346  -3.087  -6.760  0.00  0.00     0.163 HD
HETATM    3  C           1     -22.814  -4.415  -7.368  0.00  0.00     0.249 C 
HETATM    4  O           1     -23.830  -4.443  -6.716  0.00  0.00    -0.271 OA
ENDROOT
BRANCH   1   5
HETATM    5  C           1     -20.786  -5.071  -6.176  0.00  0.00     0.189 C 
BRANCH   5   6
HETATM    6  C           1     -21.604  -6.333  -5.931  0.00  0.00     0.074 C 
BRANCH   6   7
HETATM    7  C           1     -21.366  -6.819  -4.535  0.00  0.00    -0.056 A 
HETATM    8  C           1     -21.996  -6.190  -3.461  0.00  0.00     0.010 A 
HETATM    9  C           1     -21.775  -6.644  -2.161  0.00  0.00     0.038 A 
HETATM   10  C           1     -20.925  -7.726  -1.934  0.00  0.00     0.081 A 
HETATM   11  C           1     -20.297  -8.356  -3.009  0.00  0.00     0.038 A 
HETATM   12  C           1     -20.517  -7.902  -4.309  0.00  0.00     0.010 A 
BRANCH  10  13
HETATM   13  O           1     -20.711  -8.167  -0.671  0.00  0.00    -0.247 OA
BRANCH  13  14
HETATM   14  P           1     -21.855  -9.071   0.022  0.00  0.00     0.411 P 
HETATM   15  O           1     -22.783  -8.200   0.778  0.00  0.00    -0.624 OA
HETATM   16  O           1     -21.226 -10.041   0.945  0.00  0.00    -0.624 OA
BRANCH  14  17
HETATM   17  O           1     -22.675  -9.866  -1.120  0.00  0.00    -0.300 OA
HETATM   18  H           1     -22.603 -10.775  -0.884  0.00  0.00     0.223 HD
ENDBRANCH  14  17
ENDBRANCH  13  14
ENDBRANCH  10  13
ENDBRANCH   6   7
ENDBRANCH   5   6
BRANCH   5  19
HETATM   19  C           1     -19.641  -5.386  -7.106  0.00  0.00     0.197 C 
HETATM   20  O           1     -18.887  -4.471  -7.502  0.00  0.00    -0.646 OA
HETATM   21  O           1     -19.446  -6.563  -7.481  0.00  0.00    -0.646 OA
ENDBRANCH   5  19
ENDBRANCH   1   5
BRANCH   3  22
HETATM   22  C           1     -22.847  -4.772  -8.834  0.00  0.00     0.274 C 
BRANCH  22  23
HETATM   23  C           1     -21.840  -3.913  -9.589  0.00  0.00     0.042 C 
BRANCH  23  24
HETATM   24  C           1     -22.551  -3.158 -10.703  0.00  0.00     0.004 C 
BRANCH  24  25
HETATM   25  C           1     -22.087  -3.690 -12.053  0.00  0.00     0.027 C 
BRANCH  25  26
HETATM   26  C           1     -22.781  -2.920 -13.168  0.00  0.00     0.229 C 
BRANCH  26  27
HETATM   27  N           1     -24.191  -2.610 -12.760  0.00  0.00    -0.079 N 
HETATM   28  H           1     -24.336  -2.898 -11.767  0.00  0.00     0.274 HD
HETATM   29  H           1     -24.364  -1.584 -12.854  0.00  0.00     0.274 HD
HETATM   30  H           1     -24.855  -3.132 -13.376  0.00  0.00     0.274 HD
ENDBRANCH  26  27
ENDBRANCH  25  26
ENDBRANCH  24  25
ENDBRANCH  23  24
ENDBRANCH  22  23
BRANCH  22  31
HETATM   31  N           1     -24.222  -4.524  -9.378  0.00  0.00    -0.067 N 
HETATM   32  H           1     -24.180  -3.774 -10.104  0.00  0.00     0.275 HD
HETATM   33  H           1     -24.591  -5.403  -9.806  0.00  0.00     0.275 HD
HETATM   34  H           1     -24.853  -4.222  -8.602  0.00  0.00     0.275 HD
ENDBRANCH  22  31
ENDBRANCH   3  22
TORSDOF 14
ENDMDL
MODEL 6
REMARK VINA RESULT:      -6.6     13.736     16.103
REMARK  14 active torsions:
REMARK  status: ('A' for Active; 'I' for Inactive)
REMARK    1  A    between atoms: C_5  and  C_21 
REMARK    2  A    between atoms: C_5  and  C_6 
REMARK    3  A    between atoms: C_5  and  N_32 
REMARK    4  A    between atoms: C_6  and  C_25 
REMARK    5  A    between atoms: O_7  and  C_26 
REMARK    6  A    between atoms: O_7  and  P_15 
REMARK    7  A    between atoms: C_9  and  C_10 
REMARK    8  A    between atoms: C_10  and  C_23 
REMARK    9  A    between atoms: C_11  and  C_23 
REMARK   10  A    between atoms: P_15  and  O_28 
REMARK   11  A    between atoms: N_16  and  C_23 
REMARK       I    between atoms: N_16  and  C_21 
REMARK   12  A    between atoms: C_24  and  C_25 
REMARK   13  A    between atoms: C_24  and  C_34 
REMARK   14  A    between atoms: N_33  and  C_34 
ROOT
HETATM    1  N           1     -21.501  -6.441  -2.945  0.00  0.00    -0.344 N 
HETATM    2  H           1     -21.419  -5.620  -2.360  0.00  0.00     0.163 HD
HETATM    3  C           1     -21.691  -6.304  -4.295  0.00  0.00     0.249 C 
HETATM    4  O           1     -22.810  -6.243  -4.745  0.00  0.00    -0.271 OA
ENDROOT
BRANCH   1   5
HETATM    5  C           1     -21.419  -7.762  -2.356  0.00  0.00     0.189 C 
BRANCH   5   6
HETATM    6  C           1     -19.968  -8.073  -2.010  0.00  0.00     0.074 C 
BRANCH   6   7
HETATM    7  C           1     -19.499  -9.239  -2.824  0.00  0.00    -0.056 A 
HETATM    8  C           1     -20.422 -10.154  -3.328  0.00  0.00     0.010 A 
HETATM    9  C           1     -19.985 -11.239  -4.087  0.00  0.00     0.038 A 
HETATM   10  C           1     -18.625 -11.410  -4.342  0.00  0.00     0.081 A 
HETATM   11  C           1     -17.701 -10.493  -3.838  0.00  0.00     0.038 A 
HETATM   12  C           1     -18.138  -9.408  -3.079  0.00  0.00     0.010 A 
BRANCH  10  13
HETATM   13  O           1     -18.200 -12.464  -5.079  0.00  0.00    -0.247 OA
BRANCH  13  14
HETATM   14  P           1     -17.761 -12.193  -6.609  0.00  0.00     0.411 P 
HETATM   15  O           1     -16.344 -11.765  -6.648  0.00  0.00    -0.624 OA
HETATM   16  O           1     -18.613 -11.130  -7.186  0.00  0.00    -0.624 OA
BRANCH  14  17
HETATM   17  O           1     -17.935 -13.549  -7.467  0.00  0.00    -0.300 OA
HETATM   18  H           1     -18.799 -13.861  -7.258  0.00  0.00     0.223 HD
ENDBRANCH  14  17
ENDBRANCH  13  14
ENDBRANCH  10  13
ENDBRANCH   6   7
ENDBRANCH   5   6
BRANCH   5  19
HETATM   19  C           1     -22.257  -7.806  -1.102  0.00  0.00     0.197 C 
HETATM   20  O           1     -22.453  -8.895  -0.520  0.00  0.00    -0.646 OA
HETATM   21  O           1     -22.755  -6.754  -0.646  0.00  0.00    -0.646 OA
ENDBRANCH   5  19
ENDBRANCH   1   5
BRANCH   3  22
HETATM   22  C           1     -20.500  -6.229  -5.220  0.00  0.00     0.274 C 
BRANCH  22  23
HETATM   23  C           1     -20.197  -4.770  -5.539  0.00  0.00     0.042 C 
BRANCH  23  24
HETATM   24  C           1     -20.302  -4.547  -7.041  0.00  0.00     0.004 C 
BRANCH  24  25
HETATM   25  C           1     -21.407  -3.538  -7.328  0.00  0.00     0.027 C 
BRANCH  25  26
HETATM   26  C           1     -22.593  -4.251  -7.964  0.00  0.00     0.229 C 
BRANCH  26  27
HETATM   27  N           1     -23.667  -4.452  -6.936  0.00  0.00    -0.079 N 
HETATM   28  H           1     -24.256  -5.272  -7.205  0.00  0.00     0.274 HD
HETATM   29  H           1     -23.229  -4.629  -6.004  0.00  0.00     0.274 HD
HETATM   30  H           1     -24.264  -3.595  -6.884  0.00  0.00     0.274 HD
ENDBRANCH  26  27
ENDBRANCH  25  26
ENDBRANCH  24  25
ENDBRANCH  23  24
ENDBRANCH  22  23
BRANCH  22  31
HETATM   31  N           1     -20.807  -6.964  -6.490  0.00  0.00    -0.067 N 
HETATM   32  H           1     -21.120  -6.285  -7.220  0.00  0.00     0.275 HD
HETATM   33  H           1     -19.949  -7.461  -6.821  0.00  0.00     0.275 HD
HETATM   34  H           1     -21.566  -7.660  -6.314  0.00  0.00     0.275 HD
ENDBRANCH  22  31
ENDBRANCH   3  22
TORSDOF 14
ENDMDL
MODEL 7
REMARK VINA RESULT:      -6.3     12.741     15.196
REMARK  14 active torsions:
REMARK  status: ('A' for Active; 'I' for Inactive)
REMARK    1  A    between atoms: C_5  and  C_21 
REMARK    2  A    between atoms: C_5  and  C_6 
REMARK    3  A    between atoms: C_5  and  N_32 
REMARK    4  A    between atoms: C_6  and  C_25 
REMARK    5  A    between atoms: O_7  and  C_26 
REMARK    6  A    between atoms: O_7  and  P_15 
REMARK    7  A    between atoms: C_9  and  C_10 
REMARK    8  A    between atoms: C_10  and  C_23 
REMARK    9  A    between atoms: C_11  and  C_23 
REMARK   10  A    between atoms: P_15  and  O_28 
REMARK   11  A    between atoms: N_16  and  C_23 
REMARK       I    between atoms: N_16  and  C_21 
REMARK   12  A    between atoms: C_24  and  C_25 
REMARK   13  A    between atoms: C_24  and  C_34 
REMARK   14  A    between atoms: N_33  and  C_34 
ROOT
HETATM    1  N           1     -20.602  -6.235  -7.052  0.00  0.00    -0.344 N 
HETATM    2  H           1     -19.874  -6.575  -7.668  0.00  0.00     0.163 HD
HETATM    3  C           1     -21.144  -4.993  -7.251  0.00  0.00     0.249 C 
HETATM    4  O           1     -20.656  -4.028  -6.711  0.00  0.00    -0.271 OA
ENDROOT
BRANCH   1   5
HETATM    5  C           1     -21.070  -7.064  -5.959  0.00  0.00     0.189 C 
BRANCH   5   6
HETATM    6  C           1     -19.889  -7.798  -5.337  0.00  0.00     0.074 C 
BRANCH   6   7
HETATM    7  C           1     -20.389  -8.796  -4.339  0.00  0.00    -0.056 A 
HETATM    8  C           1     -21.511  -9.571  -4.632  0.00  0.00     0.010 A 
HETATM    9  C           1     -21.976 -10.502  -3.704  0.00  0.00     0.038 A 
HETATM   10  C           1     -21.321 -10.657  -2.482  0.00  0.00     0.081 A 
HETATM   11  C           1     -20.198  -9.882  -2.190  0.00  0.00     0.038 A 
HETATM   12  C           1     -19.732  -8.951  -3.119  0.00  0.00     0.010 A 
BRANCH  10  13
HETATM   13  O           1     -21.773 -11.561  -1.580  0.00  0.00    -0.247 OA
BRANCH  13  14
HETATM   14  P           1     -22.409 -11.006  -0.204  0.00  0.00     0.411 P 
HETATM   15  O           1     -21.341 -10.862   0.811  0.00  0.00    -0.624 OA
HETATM   16  O           1     -23.430 -11.958   0.288  0.00  0.00    -0.624 OA
BRANCH  14  17
HETATM   17  O           1     -23.094  -9.569  -0.469  0.00  0.00    -0.300 OA
HETATM   18  H           1     -22.934  -9.386  -1.379  0.00  0.00     0.223 HD
ENDBRANCH  14  17
ENDBRANCH  13  14
ENDBRANCH  10  13
ENDBRANCH   6   7
ENDBRANCH   5   6
BRANCH   5  19
HETATM   19  C           1     -21.729  -6.195  -4.916  0.00  0.00     0.197 C 
HETATM   20  O           1     -22.973  -6.079  -4.895  0.00  0.00    -0.646 OA
HETATM   21  O           1     -21.030  -5.591  -4.074  0.00  0.00    -0.646 OA
ENDBRANCH   5  19
ENDBRANCH   1   5
BRANCH   3  22
HETATM   22  C           1     -22.350  -4.831  -8.144  0.00  0.00     0.274 C 
BRANCH  22  23
HETATM   23  C           1     -22.031  -3.832  -9.250  0.00  0.00     0.042 C 
BRANCH  23  24
HETATM   24  C           1     -22.604  -4.335 -10.568  0.00  0.00     0.004 C 
BRANCH  24  25
HETATM   25  C           1     -23.612  -3.325 -11.101  0.00  0.00     0.027 C 
BRANCH  25  26
HETATM   26  C           1     -23.136  -2.795 -12.447  0.00  0.00     0.229 C 
BRANCH  26  27
HETATM   27  N           1     -21.967  -3.608 -12.920  0.00  0.00    -0.079 N 
HETATM   28  H           1     -21.935  -3.595 -13.964  0.00  0.00     0.274 HD
HETATM   29  H           1     -21.083  -3.201 -12.540  0.00  0.00     0.274 HD
HETATM   30  H           1     -22.070  -4.593 -12.586  0.00  0.00     0.274 HD
ENDBRANCH  26  27
ENDBRANCH  25  26
ENDBRANCH  24  25
ENDBRANCH  23  24
ENDBRANCH  22  23
BRANCH  22  31
HETATM   31  N           1     -23.506  -4.326  -7.334  0.00  0.00    -0.067 N 
HETATM   32  H           1     -24.353  -4.904  -7.537  0.00  0.00     0.275 HD
HETATM   33  H           1     -23.275  -4.392  -6.317  0.00  0.00     0.275 HD
HETATM   34  H           1     -23.698  -3.330  -7.584  0.00  0.00     0.275 HD
ENDBRANCH  22  31
ENDBRANCH   3  22
TORSDOF 14
ENDMDL
MODEL 8
REMARK VINA RESULT:      -6.2     14.236     16.636
REMARK  14 active torsions:
REMARK  status: ('A' for Active; 'I' for Inactive)
REMARK    1  A    between atoms: C_5  and  C_21 
REMARK    2  A    between atoms: C_5  and  C_6 
REMARK    3  A    between atoms: C_5  and  N_32 
REMARK    4  A    between atoms: C_6  and  C_25 
REMARK    5  A    between atoms: O_7  and  C_26 
REMARK    6  A    between atoms: O_7  and  P_15 
REMARK    7  A    between atoms: C_9  and  C_10 
REMARK    8  A    between atoms: C_10  and  C_23 
REMARK    9  A    between atoms: C_11  and  C_23 
REMARK   10  A    between atoms: P_15  and  O_28 
REMARK   11  A    between atoms: N_16  and  C_23 
REMARK       I    between atoms: N_16  and  C_21 
REMARK   12  A    between atoms: C_24  and  C_25 
REMARK   13  A    between atoms: C_24  and  C_34 
REMARK   14  A    between atoms: N_33  and  C_34 
ROOT
HETATM    1  N           1     -20.918  -7.334  -3.540  0.00  0.00    -0.344 N 
HETATM    2  H           1     -20.938  -6.813  -2.673  0.00  0.00     0.163 HD
HETATM    3  C           1     -21.258  -6.719  -4.716  0.00  0.00     0.249 C 
HETATM    4  O           1     -22.406  -6.726  -5.091  0.00  0.00    -0.271 OA
ENDROOT
BRANCH   1   5
HETATM    5  C           1     -20.530  -8.730  -3.537  0.00  0.00     0.189 C 
BRANCH   5   6
HETATM    6  C           1     -19.325  -8.919  -2.624  0.00  0.00     0.074 C 
BRANCH   6   7
HETATM    7  C           1     -18.164  -9.423  -3.426  0.00  0.00    -0.056 A 
HETATM    8  C           1     -18.332  -9.736  -4.774  0.00  0.00     0.010 A 
HETATM    9  C           1     -17.252 -10.204  -5.520  0.00  0.00     0.038 A 
HETATM   10  C           1     -16.003 -10.358  -4.919  0.00  0.00     0.081 A 
HETATM   11  C           1     -15.835 -10.043  -3.570  0.00  0.00     0.038 A 
HETATM   12  C           1     -16.915  -9.575  -2.824  0.00  0.00     0.010 A 
BRANCH  10  13
HETATM   13  O           1     -14.952 -10.813  -5.645  0.00  0.00    -0.247 OA
BRANCH  13  14
HETATM   14  P           1     -14.435 -12.317  -5.371  0.00  0.00     0.411 P 
HETATM   15  O           1     -15.598 -13.210  -5.165  0.00  0.00    -0.624 OA
HETATM   16  O           1     -13.582 -12.334  -4.162  0.00  0.00    -0.624 OA
BRANCH  14  17
HETATM   17  O           1     -13.582 -12.832  -6.641  0.00  0.00    -0.300 OA
HETATM   18  H           1     -13.240 -12.050  -7.039  0.00  0.00     0.223 HD
ENDBRANCH  14  17
ENDBRANCH  13  14
ENDBRANCH  10  13
ENDBRANCH   6   7
ENDBRANCH   5   6
BRANCH   5  19
HETATM   19  C           1     -21.679  -9.570  -3.037  0.00  0.00     0.197 C 
HETATM   20  O           1     -22.030  -9.498  -1.839  0.00  0.00    -0.646 OA
HETATM   21  O           1     -22.278 -10.339  -3.819  0.00  0.00    -0.646 OA
ENDBRANCH   5  19
ENDBRANCH   1   5
BRANCH   3  22
HETATM   22  C           1     -20.197  -6.035  -5.543  0.00  0.00     0.274 C 
BRANCH  22  23
HETATM   23  C           1     -20.793  -4.805  -6.216  0.00  0.00     0.042 C 
BRANCH  23  24
HETATM   24  C           1     -20.551  -4.880  -7.717  0.00  0.00     0.004 C 
BRANCH  24  25
HETATM   25  C           1     -21.680  -4.167  -8.450  0.00  0.00     0.027 C 
BRANCH  25  26
HETATM   26  C           1     -22.970  -4.303  -7.652  0.00  0.00     0.229 C 
BRANCH  26  27
HETATM   27  N           1     -24.120  -3.794  -8.468  0.00  0.00    -0.079 N 
HETATM   28  H           1     -25.019  -4.067  -8.011  0.00  0.00     0.274 HD
HETATM   29  H           1     -24.067  -2.752  -8.535  0.00  0.00     0.274 HD
HETATM   30  H           1     -24.077  -4.206  -9.428  0.00  0.00     0.274 HD
ENDBRANCH  26  27
ENDBRANCH  25  26
ENDBRANCH  24  25
ENDBRANCH  23  24
ENDBRANCH  22  23
BRANCH  22  31
HETATM   31  N           1     -19.692  -6.981  -6.590  0.00  0.00    -0.067 N 
HETATM   32  H           1     -19.534  -6.462  -7.483  0.00  0.00     0.275 HD
HETATM   33  H           1     -18.792  -7.407  -6.271  0.00  0.00     0.275 HD
HETATM   34  H           1     -20.397  -7.736  -6.747  0.00  0.00     0.275 HD
ENDBRANCH  22  31
ENDBRANCH   3  22
TORSDOF 14
ENDMDL
MODEL 9
REMARK VINA RESULT:      -6.1     13.382     15.970
REMARK  14 active torsions:
REMARK  status: ('A' for Active; 'I' for Inactive)
REMARK    1  A    between atoms: C_5  and  C_21 
REMARK    2  A    between atoms: C_5  and  C_6 
REMARK    3  A    between atoms: C_5  and  N_32 
REMARK    4  A    between atoms: C_6  and  C_25 
REMARK    5  A    between atoms: O_7  and  C_26 
REMARK    6  A    between atoms: O_7  and  P_15 
REMARK    7  A    between atoms: C_9  and  C_10 
REMARK    8  A    between atoms: C_10  and  C_23 
REMARK    9  A    between atoms: C_11  and  C_23 
REMARK   10  A    between atoms: P_15  and  O_28 
REMARK   11  A    between atoms: N_16  and  C_23 
REMARK       I    between atoms: N_16  and  C_21 
REMARK   12  A    between atoms: C_24  and  C_25 
REMARK   13  A    between atoms: C_24  and  C_34 
REMARK   14  A    between atoms: N_33  and  C_34 
ROOT
HETATM    1  N           1     -19.766  -6.951  -6.627  0.00  0.00    -0.344 N 
HETATM    2  H           1     -19.333  -7.414  -7.416  0.00  0.00     0.163 HD
HETATM    3  C           1     -20.179  -5.649  -6.738  0.00  0.00     0.249 C 
HETATM    4  O           1     -19.421  -4.750  -6.463  0.00  0.00    -0.271 OA
ENDROOT
BRANCH   1   5
HETATM    5  C           1     -19.948  -7.665  -5.379  0.00  0.00     0.189 C 
BRANCH   5   6
HETATM    6  C           1     -21.355  -8.246  -5.328  0.00  0.00     0.074 C 
BRANCH   6   7
HETATM    7  C           1     -21.612  -8.816  -3.968  0.00  0.00    -0.056 A 
HETATM    8  C           1     -21.440  -8.020  -2.835  0.00  0.00     0.010 A 
HETATM    9  C           1     -21.680  -8.550  -1.568  0.00  0.00     0.038 A 
HETATM   10  C           1     -22.093  -9.875  -1.433  0.00  0.00     0.081 A 
HETATM   11  C           1     -22.267 -10.671  -2.566  0.00  0.00     0.038 A 
HETATM   12  C           1     -22.027 -10.141  -3.833  0.00  0.00     0.010 A 
BRANCH  10  13
HETATM   13  O           1     -22.327 -10.390  -0.201  0.00  0.00    -0.247 OA
BRANCH  13  14
HETATM   14  P           1     -21.104 -11.116   0.562  0.00  0.00     0.411 P 
HETATM   15  O           1     -20.025 -11.415  -0.406  0.00  0.00    -0.624 OA
HETATM   16  O           1     -21.581 -12.376   1.173  0.00  0.00    -0.624 OA
BRANCH  14  17
HETATM   17  O           1     -20.535 -10.139   1.715  0.00  0.00    -0.300 OA
HETATM   18  H           1     -20.340  -9.329   1.276  0.00  0.00     0.223 HD
ENDBRANCH  14  17
ENDBRANCH  13  14
ENDBRANCH  10  13
ENDBRANCH   6   7
ENDBRANCH   5   6
BRANCH   5  19
HETATM   19  C           1     -18.938  -8.781  -5.286  0.00  0.00     0.197 C 
HETATM   20  O           1     -18.323  -8.980  -4.217  0.00  0.00    -0.646 OA
HETATM   21  O           1     -18.716  -9.507  -6.280  0.00  0.00    -0.646 OA
ENDBRANCH   5  19
ENDBRANCH   1   5
BRANCH   3  22
HETATM   22  C           1     -21.581  -5.340  -7.204  0.00  0.00     0.274 C 
BRANCH  22  23
HETATM   23  C           1     -21.570  -4.062  -8.033  0.00  0.00     0.042 C 
BRANCH  23  24
HETATM   24  C           1     -21.580  -4.417  -9.513  0.00  0.00     0.004 C 
BRANCH  24  25
HETATM   25  C           1     -23.020  -4.514 -10.002  0.00  0.00     0.027 C 
BRANCH  25  26
HETATM   26  C           1     -23.909  -3.622  -9.146  0.00  0.00     0.229 C 
BRANCH  26  27
HETATM   27  N           1     -25.327  -3.724  -9.623  0.00  0.00    -0.079 N 
HETATM   28  H           1     -25.420  -4.542 -10.266  0.00  0.00     0.274 HD
HETATM   29  H           1     -25.963  -3.852  -8.804  0.00  0.00     0.274 HD
HETATM   30  H           1     -25.588  -2.848 -10.132  0.00  0.00     0.274 HD
ENDBRANCH  26  27
ENDBRANCH  25  26
ENDBRANCH  24  25
ENDBRANCH  23  24
ENDBRANCH  22  23
BRANCH  22  31
HETATM   31  N           1     -22.474  -5.157  -6.014  0.00  0.00    -0.067 N 
HETATM   32  H           1     -23.123  -5.971  -5.936  0.00  0.00     0.275 HD
HETATM   33  H           1     -21.891  -5.091  -5.148  0.00  0.00     0.275 HD
HETATM   34  H           1     -23.029  -4.279  -6.127  0.00  0.00     0.275 HD
ENDBRANCH  22  31
ENDBRANCH   3  22
TORSDOF 14
ENDMDL
