MODEL 1
REMARK VINA RESULT:      -7.4      0.000      0.000
REMARK  9 active torsions:
REMARK  status: ('A' for Active; 'I' for Inactive)
REMARK    1  A    between atoms: C_1  and  C_6 
REMARK    2  A    between atoms: C_1  and  C_12 
REMARK    3  A    between atoms: C_2  and  C_24 
REMARK    4  A    between atoms: C_2  and  C_14 
REMARK    5  A    between atoms: C_6  and  C_16 
REMARK    6  A    between atoms: N_8  and  C_16 
REMARK       I    between atoms: N_11  and  C_12 
REMARK    7  A    between atoms: N_15  and  C_24 
REMARK       I    between atoms: N_15  and  C_17 
REMARK    8  A    between atoms: C_16  and  C_17 
REMARK    9  A    between atoms: C_22  and  C_24 
ROOT
HETATM    1  H           1     -34.145  -1.885  -9.714  0.00  0.00     0.163 HD
HETATM    2  O           1     -32.722  -3.305 -11.705  0.00  0.00    -0.271 OA
HETATM    3  N           1     -34.271  -2.045 -10.705  0.00  0.00    -0.344 N 
HETATM    4  C           1     -33.845  -3.218 -11.269  0.00  0.00     0.249 C 
ENDROOT
BRANCH   3   5
HETATM    5  C           1     -34.902  -1.031 -11.528  0.00  0.00     0.191 C 
BRANCH   5   6
HETATM    6  C           1     -35.113  -1.580 -12.933  0.00  0.00     0.094 C 
BRANCH   6   7
HETATM    7  C           1     -35.488  -0.462 -13.856  0.00  0.00     0.028 A 
HETATM    8  C           1     -36.754  -0.245 -14.345  0.00  0.00     0.114 A 
HETATM    9  N           1     -36.643   0.865 -15.135  0.00  0.00    -0.360 N 
HETATM   10  C           1     -35.339   1.269 -15.094  0.00  0.00     0.180 A 
HETATM   11  H           1     -37.418   1.323 -15.675  0.00  0.00     0.166 HD
HETATM   12  N           1     -34.617   0.485 -14.327  0.00  0.00    -0.354 N 
ATOM     13  HN          1     -33.620   0.564 -14.124  1.00  0.00     0.166 HD
ENDBRANCH   6   7
ENDBRANCH   5   6
BRANCH   5  14
HETATM   14  C           1     -36.233  -0.655 -10.928  0.00  0.00     0.197 C 
HETATM   15  O           1     -37.177  -1.474 -10.936  0.00  0.00    -0.646 OA
HETATM   16  O           1     -36.393   0.477 -10.422  0.00  0.00    -0.646 OA
ENDBRANCH   5  14
ENDBRANCH   3   5
BRANCH   4  17
HETATM   17  C           1     -34.778  -4.401 -11.346  0.00  0.00     0.275 C 
BRANCH  17  18
HETATM   18  C           1     -34.450  -5.381 -10.228  0.00  0.00     0.052 C 
BRANCH  18  19
HETATM   19  C           1     -33.728  -6.591 -10.808  0.00  0.00     0.105 C 
BRANCH  19  20
HETATM   20  C           1     -34.282  -7.852 -10.192  0.00  0.00     0.215 C 
HETATM   21  O           1     -35.379  -7.845  -9.685  0.00  0.00    -0.274 OA
HETATM   22  N           1     -33.543  -9.004 -10.209  0.00  0.00    -0.370 N 
HETATM   23  H           1     -33.914  -9.850  -9.795  0.00  0.00     0.159 HD
HETATM   24  H           1     -32.625  -9.010 -10.633  0.00  0.00     0.159 HD
ENDBRANCH  19  20
ENDBRANCH  18  19
ENDBRANCH  17  18
BRANCH  17  25
HETATM   25  N           1     -34.613  -5.082 -12.672  0.00  0.00    -0.066 N 
HETATM   26  H           1     -35.544  -5.410 -13.014  0.00  0.00     0.275 HD
HETATM   27  H           1     -34.207  -4.409 -13.360  0.00  0.00     0.275 HD
HETATM   28  H           1     -33.972  -5.901 -12.565  0.00  0.00     0.275 HD
ENDBRANCH  17  25
ENDBRANCH   4  17
TORSDOF 9
ENDMDL
MODEL 2
REMARK VINA RESULT:      -7.3      2.204      3.612
REMARK  9 active torsions:
REMARK  status: ('A' for Active; 'I' for Inactive)
REMARK    1  A    between atoms: C_1  and  C_6 
REMARK    2  A    between atoms: C_1  and  C_12 
REMARK    3  A    between atoms: C_2  and  C_24 
REMARK    4  A    between atoms: C_2  and  C_14 
REMARK    5  A    between atoms: C_6  and  C_16 
REMARK    6  A    between atoms: N_8  and  C_16 
REMARK       I    between atoms: N_11  and  C_12 
REMARK    7  A    between atoms: N_15  and  C_24 
REMARK       I    between atoms: N_15  and  C_17 
REMARK    8  A    between atoms: C_16  and  C_17 
REMARK    9  A    between atoms: C_22  and  C_24 
ROOT
HETATM    1  H           1     -34.052  -0.606 -13.454  0.00  0.00     0.163 HD
HETATM    2  O           1     -34.660  -3.359 -13.686  0.00  0.00    -0.271 OA
HETATM    3  N           1     -34.725  -1.227 -13.025  0.00  0.00    -0.344 N 
HETATM    4  C           1     -34.412  -2.546 -12.828  0.00  0.00     0.249 C 
ENDROOT
BRANCH   3   5
HETATM    5  C           1     -36.022  -0.721 -12.619  0.00  0.00     0.191 C 
BRANCH   5   6
HETATM    6  C           1     -35.834   0.528 -11.768  0.00  0.00     0.094 C 
BRANCH   6   7
HETATM    7  C           1     -36.436   0.307 -10.416  0.00  0.00     0.028 A 
HETATM    8  C           1     -36.920  -0.897  -9.963  0.00  0.00     0.114 A 
HETATM    9  N           1     -37.369  -0.645  -8.696  0.00  0.00    -0.360 N 
HETATM   10  C           1     -37.143   0.677  -8.437  0.00  0.00     0.180 A 
HETATM   11  H           1     -37.807  -1.341  -8.043  0.00  0.00     0.166 HD
HETATM   12  N           1     -36.579   1.278  -9.459  0.00  0.00    -0.354 N 
ATOM     13  HN          1     -36.305   2.258  -9.526  1.00  0.00     0.166 HD
ENDBRANCH   6   7
ENDBRANCH   5   6
BRANCH   5  14
HETATM   14  C           1     -36.834  -0.380 -13.844  0.00  0.00     0.197 C 
HETATM   15  O           1     -37.998  -0.820 -13.965  0.00  0.00    -0.646 OA
HETATM   16  O           1     -36.344   0.343 -14.737  0.00  0.00    -0.646 OA
ENDBRANCH   5  14
ENDBRANCH   3   5
BRANCH   4  17
HETATM   17  C           1     -33.757  -2.982 -11.541  0.00  0.00     0.275 C 
BRANCH  17  18
HETATM   18  C           1     -34.702  -3.898 -10.775  0.00  0.00     0.052 C 
BRANCH  18  19
HETATM   19  C           1     -33.981  -5.195 -10.427  0.00  0.00     0.105 C 
BRANCH  19  20
HETATM   20  C           1     -34.622  -6.342 -11.169  0.00  0.00     0.215 C 
HETATM   21  O           1     -34.850  -7.380 -10.594  0.00  0.00    -0.274 OA
HETATM   22  N           1     -34.945  -6.207 -12.492  0.00  0.00    -0.370 N 
HETATM   23  H           1     -35.374  -6.977 -12.990  0.00  0.00     0.159 HD
HETATM   24  H           1     -34.753  -5.338 -12.974  0.00  0.00     0.159 HD
ENDBRANCH  19  20
ENDBRANCH  18  19
ENDBRANCH  17  18
BRANCH  17  25
HETATM   25  N           1     -33.444  -1.776 -10.706  0.00  0.00    -0.066 N 
HETATM   26  H           1     -34.229  -1.090 -10.777  0.00  0.00     0.275 HD
HETATM   27  H           1     -33.323  -2.065  -9.709  0.00  0.00     0.275 HD
HETATM   28  H           1     -32.562  -1.334 -11.051  0.00  0.00     0.275 HD
ENDBRANCH  17  25
ENDBRANCH   4  17
TORSDOF 9
ENDMDL
MODEL 3
REMARK VINA RESULT:      -7.0      2.032      7.046
REMARK  9 active torsions:
REMARK  status: ('A' for Active; 'I' for Inactive)
REMARK    1  A    between atoms: C_1  and  C_6 
REMARK    2  A    between atoms: C_1  and  C_12 
REMARK    3  A    between atoms: C_2  and  C_24 
REMARK    4  A    between atoms: C_2  and  C_14 
REMARK    5  A    between atoms: C_6  and  C_16 
REMARK    6  A    between atoms: N_8  and  C_16 
REMARK       I    between atoms: N_11  and  C_12 
REMARK    7  A    between atoms: N_15  and  C_24 
REMARK       I    between atoms: N_15  and  C_17 
REMARK    8  A    between atoms: C_16  and  C_17 
REMARK    9  A    between atoms: C_22  and  C_24 
ROOT
HETATM    1  H           1     -32.559  -2.454 -12.161  0.00  0.00     0.163 HD
HETATM    2  O           1     -33.881  -1.883  -9.726  0.00  0.00    -0.271 OA
HETATM    3  N           1     -33.357  -2.840 -11.674  0.00  0.00    -0.344 N 
HETATM    4  C           1     -34.141  -2.030 -10.896  0.00  0.00     0.249 C 
ENDROOT
BRANCH   3   5
HETATM    5  C           1     -33.673  -4.249 -11.802  0.00  0.00     0.191 C 
BRANCH   5   6
HETATM    6  C           1     -34.536  -4.683 -10.624  0.00  0.00     0.094 C 
BRANCH   6   7
HETATM    7  C           1     -34.345  -6.147 -10.376  0.00  0.00     0.028 A 
HETATM    8  C           1     -35.157  -6.917  -9.578  0.00  0.00     0.114 A 
HETATM    9  N           1     -34.622  -8.174  -9.636  0.00  0.00    -0.360 N 
HETATM   10  C           1     -33.528  -8.117 -10.452  0.00  0.00     0.180 A 
HETATM   11  H           1     -34.986  -9.027  -9.144  0.00  0.00     0.166 HD
HETATM   12  N           1     -33.336  -6.903 -10.914  0.00  0.00    -0.354 N 
ATOM     13  HN          1     -32.595  -6.590 -11.541  1.00  0.00     0.166 HD
ENDBRANCH   6   7
ENDBRANCH   5   6
BRANCH   5  14
HETATM   14  C           1     -34.423  -4.481 -13.089  0.00  0.00     0.197 C 
HETATM   15  O           1     -35.187  -5.464 -13.199  0.00  0.00    -0.646 OA
HETATM   16  O           1     -34.282  -3.691 -14.047  0.00  0.00    -0.646 OA
ENDBRANCH   5  14
ENDBRANCH   3   5
BRANCH   4  17
HETATM   17  C           1     -35.329  -1.322 -11.500  0.00  0.00     0.275 C 
BRANCH  17  18
HETATM   18  C           1     -34.861  -0.423 -12.637  0.00  0.00     0.052 C 
BRANCH  18  19
HETATM   19  C           1     -36.046  -0.076 -13.529  0.00  0.00     0.105 C 
BRANCH  19  20
HETATM   20  C           1     -35.548   0.571 -14.799  0.00  0.00     0.215 C 
HETATM   21  O           1     -34.372   0.534 -15.074  0.00  0.00    -0.274 OA
HETATM   22  N           1     -36.428   1.198 -15.638  0.00  0.00    -0.370 N 
HETATM   23  H           1     -36.094   1.633 -16.489  0.00  0.00     0.159 HD
HETATM   24  H           1     -37.412   1.230 -15.408  0.00  0.00     0.159 HD
ENDBRANCH  19  20
ENDBRANCH  18  19
ENDBRANCH  17  18
BRANCH  17  25
HETATM   25  N           1     -36.001  -0.489 -10.449  0.00  0.00    -0.066 N 
HETATM   26  H           1     -36.940  -0.185 -10.792  0.00  0.00     0.275 HD
HETATM   27  H           1     -36.115  -1.054  -9.577  0.00  0.00     0.275 HD
HETATM   28  H           1     -35.415   0.353 -10.245  0.00  0.00     0.275 HD
ENDBRANCH  17  25
ENDBRANCH   4  17
TORSDOF 9
ENDMDL
MODEL 4
REMARK VINA RESULT:      -6.9      2.433      6.359
REMARK  9 active torsions:
REMARK  status: ('A' for Active; 'I' for Inactive)
REMARK    1  A    between atoms: C_1  and  C_6 
REMARK    2  A    between atoms: C_1  and  C_12 
REMARK    3  A    between atoms: C_2  and  C_24 
REMARK    4  A    between atoms: C_2  and  C_14 
REMARK    5  A    between atoms: C_6  and  C_16 
REMARK    6  A    between atoms: N_8  and  C_16 
REMARK       I    between atoms: N_11  and  C_12 
REMARK    7  A    between atoms: N_15  and  C_24 
REMARK       I    between atoms: N_15  and  C_17 
REMARK    8  A    between atoms: C_16  and  C_17 
REMARK    9  A    between atoms: C_22  and  C_24 
ROOT
HETATM    1  H           1     -33.992  -1.540 -12.940  0.00  0.00     0.163 HD
HETATM    2  O           1     -35.344   0.839 -12.219  0.00  0.00    -0.271 OA
HETATM    3  N           1     -34.834  -1.326 -12.421  0.00  0.00    -0.344 N 
HETATM    4  C           1     -35.576  -0.222 -12.747  0.00  0.00     0.249 C 
ENDROOT
BRANCH   3   5
HETATM    5  C           1     -35.254  -2.188 -11.334  0.00  0.00     0.191 C 
BRANCH   5   6
HETATM    6  C           1     -34.032  -2.635 -10.541  0.00  0.00     0.094 C 
BRANCH   6   7
HETATM    7  C           1     -33.736  -4.070 -10.846  0.00  0.00     0.028 A 
HETATM    8  C           1     -32.748  -4.501 -11.699  0.00  0.00     0.114 A 
HETATM    9  N           1     -32.832  -5.865 -11.679  0.00  0.00    -0.360 N 
HETATM   10  C           1     -33.848  -6.201 -10.830  0.00  0.00     0.180 A 
HETATM   11  H           1     -32.226  -6.532 -12.217  0.00  0.00     0.166 HD
HETATM   12  N           1     -34.412  -5.135 -10.311  0.00  0.00    -0.354 N 
ATOM     13  HN          1     -35.189  -5.107  -9.650  1.00  0.00     0.166 HD
ENDBRANCH   6   7
ENDBRANCH   5   6
BRANCH   5  14
HETATM   14  C           1     -36.193  -1.432 -10.428  0.00  0.00     0.197 C 
HETATM   15  O           1     -35.736  -0.727  -9.502  0.00  0.00    -0.646 OA
HETATM   16  O           1     -37.428  -1.508 -10.603  0.00  0.00    -0.646 OA
ENDBRANCH   5  14
ENDBRANCH   3   5
BRANCH   4  17
HETATM   17  C           1     -36.685  -0.332 -13.765  0.00  0.00     0.275 C 
BRANCH  17  18
HETATM   18  C           1     -36.437   0.657 -14.895  0.00  0.00     0.052 C 
BRANCH  18  19
HETATM   19  C           1     -35.248   0.192 -15.727  0.00  0.00     0.105 C 
BRANCH  19  20
HETATM   20  C           1     -35.657  -0.987 -16.575  0.00  0.00     0.215 C 
HETATM   21  O           1     -36.691  -0.952 -17.200  0.00  0.00    -0.274 OA
HETATM   22  N           1     -34.857  -2.096 -16.638  0.00  0.00    -0.370 N 
HETATM   23  H           1     -35.132  -2.887 -17.206  0.00  0.00     0.159 HD
HETATM   24  H           1     -33.992  -2.126 -16.115  0.00  0.00     0.159 HD
ENDBRANCH  19  20
ENDBRANCH  18  19
ENDBRANCH  17  18
BRANCH  17  25
HETATM   25  N           1     -37.998  -0.022 -13.109  0.00  0.00    -0.066 N 
HETATM   26  H           1     -38.633   0.438 -13.799  0.00  0.00     0.275 HD
HETATM   27  H           1     -38.435  -0.909 -12.770  0.00  0.00     0.275 HD
HETATM   28  H           1     -37.838   0.620 -12.299  0.00  0.00     0.275 HD
ENDBRANCH  17  25
ENDBRANCH   4  17
TORSDOF 9
ENDMDL
MODEL 5
REMARK VINA RESULT:      -6.9     11.949     13.334
REMARK  9 active torsions:
REMARK  status: ('A' for Active; 'I' for Inactive)
REMARK    1  A    between atoms: C_1  and  C_6 
REMARK    2  A    between atoms: C_1  and  C_12 
REMARK    3  A    between atoms: C_2  and  C_24 
REMARK    4  A    between atoms: C_2  and  C_14 
REMARK    5  A    between atoms: C_6  and  C_16 
REMARK    6  A    between atoms: N_8  and  C_16 
REMARK       I    between atoms: N_11  and  C_12 
REMARK    7  A    between atoms: N_15  and  C_24 
REMARK       I    between atoms: N_15  and  C_17 
REMARK    8  A    between atoms: C_16  and  C_17 
REMARK    9  A    between atoms: C_22  and  C_24 
ROOT
HETATM    1  H           1     -23.645  -4.483  -7.423  0.00  0.00     0.163 HD
HETATM    2  O           1     -21.294  -2.997  -6.900  0.00  0.00    -0.271 OA
HETATM    3  N           1     -22.932  -4.049  -7.995  0.00  0.00    -0.344 N 
HETATM    4  C           1     -21.645  -3.963  -7.536  0.00  0.00     0.249 C 
ENDROOT
BRANCH   3   5
HETATM    5  C           1     -23.274  -3.519  -9.300  0.00  0.00     0.191 C 
BRANCH   5   6
HETATM    6  C           1     -22.363  -4.138 -10.352  0.00  0.00     0.094 C 
BRANCH   6   7
HETATM    7  C           1     -22.810  -3.712 -11.716  0.00  0.00     0.028 A 
HETATM    8  C           1     -22.555  -2.481 -12.273  0.00  0.00     0.114 A 
HETATM    9  N           1     -23.138  -2.524 -13.508  0.00  0.00    -0.360 N 
HETATM   10  C           1     -23.713  -3.755 -13.649  0.00  0.00     0.180 A 
HETATM   11  H           1     -23.144  -1.751 -14.219  0.00  0.00     0.166 HD
HETATM   12  N           1     -23.529  -4.495 -12.580  0.00  0.00    -0.354 N 
ATOM     13  HN          1     -23.853  -5.451 -12.426  1.00  0.00     0.166 HD
ENDBRANCH   6   7
ENDBRANCH   5   6
BRANCH   5  14
HETATM   14  C           1     -24.710  -3.853  -9.618  0.00  0.00     0.197 C 
HETATM   15  O           1     -25.060  -5.046  -9.749  0.00  0.00    -0.646 OA
HETATM   16  O           1     -25.551  -2.938  -9.749  0.00  0.00    -0.646 OA
ENDBRANCH   5  14
ENDBRANCH   3   5
BRANCH   4  17
HETATM   17  C           1     -20.665  -5.073  -7.824  0.00  0.00     0.275 C 
BRANCH  17  18
HETATM   18  C           1     -21.020  -6.295  -6.989  0.00  0.00     0.052 C 
BRANCH  18  19
HETATM   19  C           1     -20.527  -6.096  -5.561  0.00  0.00     0.105 C 
BRANCH  19  20
HETATM   20  C           1     -21.703  -6.105  -4.616  0.00  0.00     0.215 C 
HETATM   21  O           1     -22.825  -6.220  -5.049  0.00  0.00    -0.274 OA
HETATM   22  N           1     -21.499  -5.984  -3.268  0.00  0.00    -0.370 N 
HETATM   23  H           1     -22.288  -5.989  -2.634  0.00  0.00     0.159 HD
HETATM   24  H           1     -20.560  -5.887  -2.905  0.00  0.00     0.159 HD
ENDBRANCH  19  20
ENDBRANCH  18  19
ENDBRANCH  17  18
BRANCH  17  25
HETATM   25  N           1     -19.278  -4.617  -7.478  0.00  0.00    -0.066 N 
HETATM   26  H           1     -19.299  -3.607  -7.212  0.00  0.00     0.275 HD
HETATM   27  H           1     -18.916  -5.181  -6.677  0.00  0.00     0.275 HD
HETATM   28  H           1     -18.653  -4.746  -8.307  0.00  0.00     0.275 HD
ENDBRANCH  17  25
ENDBRANCH   4  17
TORSDOF 9
ENDMDL
MODEL 6
REMARK VINA RESULT:      -6.7      2.218      3.485
REMARK  9 active torsions:
REMARK  status: ('A' for Active; 'I' for Inactive)
REMARK    1  A    between atoms: C_1  and  C_6 
REMARK    2  A    between atoms: C_1  and  C_12 
REMARK    3  A    between atoms: C_2  and  C_24 
REMARK    4  A    between atoms: C_2  and  C_14 
REMARK    5  A    between atoms: C_6  and  C_16 
REMARK    6  A    between atoms: N_8  and  C_16 
REMARK       I    between atoms: N_11  and  C_12 
REMARK    7  A    between atoms: N_15  and  C_24 
REMARK       I    between atoms: N_15  and  C_17 
REMARK    8  A    between atoms: C_16  and  C_17 
REMARK    9  A    between atoms: C_22  and  C_24 
ROOT
HETATM    1  H           1     -36.611  -1.835  -9.923  0.00  0.00     0.163 HD
HETATM    2  O           1     -33.848  -1.887 -10.533  0.00  0.00    -0.271 OA
HETATM    3  N           1     -36.065  -1.773 -10.773  0.00  0.00    -0.344 N 
HETATM    4  C           1     -34.870  -2.435 -10.870  0.00  0.00     0.249 C 
ENDROOT
BRANCH   3   5
HETATM    5  C           1     -36.549  -0.984 -11.889  0.00  0.00     0.191 C 
BRANCH   5   6
HETATM    6  C           1     -37.496   0.093 -11.374  0.00  0.00     0.094 C 
BRANCH   6   7
HETATM    7  C           1     -37.295   0.274  -9.902  0.00  0.00     0.028 A 
HETATM    8  C           1     -38.049  -0.338  -8.929  0.00  0.00     0.114 A 
HETATM    9  N           1     -37.527   0.104  -7.745  0.00  0.00    -0.360 N 
HETATM   10  C           1     -36.497   0.951  -8.042  0.00  0.00     0.180 A 
HETATM   11  H           1     -37.858  -0.158  -6.784  0.00  0.00     0.166 HD
HETATM   12  N           1     -36.333   1.072  -9.339  0.00  0.00    -0.354 N 
ATOM     13  HN          1     -35.637   1.639  -9.825  1.00  0.00     0.166 HD
ENDBRANCH   6   7
ENDBRANCH   5   6
BRANCH   5  14
HETATM   14  C           1     -35.382  -0.336 -12.590  0.00  0.00     0.197 C 
HETATM   15  O           1     -34.936   0.758 -12.181  0.00  0.00    -0.646 OA
HETATM   16  O           1     -34.859  -0.893 -13.579  0.00  0.00    -0.646 OA
ENDBRANCH   5  14
ENDBRANCH   3   5
BRANCH   4  17
HETATM   17  C           1     -34.830  -3.848 -11.396  0.00  0.00     0.275 C 
BRANCH  17  18
HETATM   18  C           1     -34.226  -4.767 -10.343  0.00  0.00     0.052 C 
BRANCH  18  19
HETATM   19  C           1     -33.764  -6.060 -11.002  0.00  0.00     0.105 C 
BRANCH  19  20
HETATM   20  C           1     -34.338  -7.239 -10.256  0.00  0.00     0.215 C 
HETATM   21  O           1     -35.240  -7.075  -9.469  0.00  0.00    -0.274 OA
HETATM   22  N           1     -33.839  -8.496 -10.472  0.00  0.00    -0.370 N 
HETATM   23  H           1     -34.224  -9.286  -9.971  0.00  0.00     0.159 HD
HETATM   24  H           1     -33.084  -8.634 -11.131  0.00  0.00     0.159 HD
ENDBRANCH  19  20
ENDBRANCH  18  19
ENDBRANCH  17  18
BRANCH  17  25
HETATM   25  N           1     -33.993  -3.894 -12.640  0.00  0.00    -0.066 N 
HETATM   26  H           1     -33.105  -4.410 -12.443  0.00  0.00     0.275 HD
HETATM   27  H           1     -34.520  -4.384 -13.397  0.00  0.00     0.275 HD
HETATM   28  H           1     -33.770  -2.919 -12.945  0.00  0.00     0.275 HD
ENDBRANCH  17  25
ENDBRANCH   4  17
TORSDOF 9
ENDMDL
MODEL 7
REMARK VINA RESULT:      -6.7     12.695     15.599
REMARK  9 active torsions:
REMARK  status: ('A' for Active; 'I' for Inactive)
REMARK    1  A    between atoms: C_1  and  C_6 
REMARK    2  A    between atoms: C_1  and  C_12 
REMARK    3  A    between atoms: C_2  and  C_24 
REMARK    4  A    between atoms: C_2  and  C_14 
REMARK    5  A    between atoms: C_6  and  C_16 
REMARK    6  A    between atoms: N_8  and  C_16 
REMARK       I    between atoms: N_11  and  C_12 
REMARK    7  A    between atoms: N_15  and  C_24 
REMARK       I    between atoms: N_15  and  C_17 
REMARK    8  A    between atoms: C_16  and  C_17 
REMARK    9  A    between atoms: C_22  and  C_24 
ROOT
HETATM    1  H           1     -20.883  -6.407  -8.628  0.00  0.00     0.163 HD
HETATM    2  O           1     -21.280  -3.661  -9.183  0.00  0.00    -0.271 OA
HETATM    3  N           1     -21.307  -5.632  -8.134  0.00  0.00    -0.344 N 
HETATM    4  C           1     -21.917  -4.626  -8.834  0.00  0.00     0.249 C 
ENDROOT
BRANCH   3   5
HETATM    5  C           1     -21.268  -5.588  -6.685  0.00  0.00     0.191 C 
BRANCH   5   6
HETATM    6  C           1     -21.264  -7.009  -6.135  0.00  0.00     0.094 C 
BRANCH   6   7
HETATM    7  C           1     -21.397  -6.969  -4.645  0.00  0.00     0.028 A 
HETATM    8  C           1     -20.708  -7.783  -3.777  0.00  0.00     0.114 A 
HETATM    9  N           1     -21.130  -7.409  -2.531  0.00  0.00    -0.360 N 
HETATM   10  C           1     -22.039  -6.403  -2.690  0.00  0.00     0.180 A 
HETATM   11  H           1     -20.813  -7.822  -1.619  0.00  0.00     0.166 HD
HETATM   12  N           1     -22.220  -6.115  -3.959  0.00  0.00    -0.354 N 
ATOM     13  HN          1     -22.841  -5.406  -4.350  1.00  0.00     0.166 HD
ENDBRANCH   6   7
ENDBRANCH   5   6
BRANCH   5  14
HETATM   14  C           1     -20.020  -4.870  -6.238  0.00  0.00     0.197 C 
HETATM   15  O           1     -19.018  -4.835  -6.984  0.00  0.00    -0.646 OA
HETATM   16  O           1     -19.987  -4.309  -5.121  0.00  0.00    -0.646 OA
ENDBRANCH   5  14
ENDBRANCH   3   5
BRANCH   4  17
HETATM   17  C           1     -23.385  -4.723  -9.170  0.00  0.00     0.275 C 
BRANCH  17  18
HETATM   18  C           1     -23.560  -4.753 -10.682  0.00  0.00     0.052 C 
BRANCH  18  19
HETATM   19  C           1     -24.051  -3.394 -11.164  0.00  0.00     0.105 C 
BRANCH  19  20
HETATM   20  C           1     -23.127  -2.876 -12.238  0.00  0.00     0.215 C 
HETATM   21  O           1     -23.581  -2.322 -13.211  0.00  0.00    -0.274 OA
HETATM   22  N           1     -21.773  -3.034 -12.111  0.00  0.00    -0.370 N 
HETATM   23  H           1     -21.153  -2.687 -12.832  0.00  0.00     0.159 HD
HETATM   24  H           1     -21.392  -3.499 -11.297  0.00  0.00     0.159 HD
ENDBRANCH  19  20
ENDBRANCH  18  19
ENDBRANCH  17  18
BRANCH  17  25
HETATM   25  N           1     -24.105  -3.533  -8.607  0.00  0.00    -0.066 N 
HETATM   26  H           1     -24.840  -3.219  -9.282  0.00  0.00     0.275 HD
HETATM   27  H           1     -24.553  -3.794  -7.701  0.00  0.00     0.275 HD
HETATM   28  H           1     -23.423  -2.757  -8.449  0.00  0.00     0.275 HD
ENDBRANCH  17  25
ENDBRANCH   4  17
TORSDOF 9
ENDMDL
MODEL 8
REMARK VINA RESULT:      -6.6      2.759      5.808
REMARK  9 active torsions:
REMARK  status: ('A' for Active; 'I' for Inactive)
REMARK    1  A    between atoms: C_1  and  C_6 
REMARK    2  A    between atoms: C_1  and  C_12 
REMARK    3  A    between atoms: C_2  and  C_24 
REMARK    4  A    between atoms: C_2  and  C_14 
REMARK    5  A    between atoms: C_6  and  C_16 
REMARK    6  A    between atoms: N_8  and  C_16 
REMARK       I    between atoms: N_11  and  C_12 
REMARK    7  A    between atoms: N_15  and  C_24 
REMARK       I    between atoms: N_15  and  C_17 
REMARK    8  A    between atoms: C_16  and  C_17 
REMARK    9  A    between atoms: C_22  and  C_24 
ROOT
HETATM    1  H           1     -33.762  -0.829 -13.920  0.00  0.00     0.163 HD
HETATM    2  O           1     -36.031   0.639 -14.757  0.00  0.00    -0.271 OA
HETATM    3  N           1     -34.762  -0.952 -13.837  0.00  0.00    -0.344 N 
HETATM    4  C           1     -35.593  -0.485 -14.821  0.00  0.00     0.249 C 
ENDROOT
BRANCH   3   5
HETATM    5  C           1     -35.316  -1.623 -12.677  0.00  0.00     0.191 C 
BRANCH   5   6
HETATM    6  C           1     -34.184  -2.066 -11.759  0.00  0.00     0.094 C 
BRANCH   6   7
HETATM    7  C           1     -34.182  -3.559 -11.651  0.00  0.00     0.028 A 
HETATM    8  C           1     -34.562  -4.416 -12.656  0.00  0.00     0.114 A 
HETATM    9  N           1     -34.406  -5.669 -12.131  0.00  0.00    -0.360 N 
HETATM   10  C           1     -33.948  -5.524 -10.853  0.00  0.00     0.180 A 
HETATM   11  H           1     -34.604  -6.576 -12.622  0.00  0.00     0.166 HD
HETATM   12  N           1     -33.802  -4.258 -10.535  0.00  0.00    -0.354 N 
ATOM     13  HN          1     -33.475  -3.876  -9.647  1.00  0.00     0.166 HD
ENDBRANCH   6   7
ENDBRANCH   5   6
BRANCH   5  14
HETATM   14  C           1     -36.225  -0.675 -11.935  0.00  0.00     0.197 C 
HETATM   15  O           1     -35.740   0.281 -11.292  0.00  0.00    -0.646 OA
HETATM   16  O           1     -37.463  -0.844 -11.964  0.00  0.00    -0.646 OA
ENDBRANCH   5  14
ENDBRANCH   3   5
BRANCH   4  17
HETATM   17  C           1     -35.962  -1.374 -15.982  0.00  0.00     0.275 C 
BRANCH  17  18
HETATM   18  C           1     -34.696  -1.870 -16.666  0.00  0.00     0.052 C 
BRANCH  18  19
HETATM   19  C           1     -34.455  -3.327 -16.294  0.00  0.00     0.105 C 
BRANCH  19  20
HETATM   20  C           1     -33.189  -3.814 -16.957  0.00  0.00     0.215 C 
HETATM   21  O           1     -32.536  -3.060 -17.638  0.00  0.00    -0.274 OA
HETATM   22  N           1     -32.782  -5.109 -16.787  0.00  0.00    -0.370 N 
HETATM   23  H           1     -31.934  -5.436 -17.232  0.00  0.00     0.159 HD
HETATM   24  H           1     -33.329  -5.741 -16.217  0.00  0.00     0.159 HD
ENDBRANCH  19  20
ENDBRANCH  18  19
ENDBRANCH  17  18
BRANCH  17  25
HETATM   25  N           1     -36.789  -0.596 -16.963  0.00  0.00    -0.066 N 
HETATM   26  H           1     -36.768  -1.074 -17.893  0.00  0.00     0.275 HD
HETATM   27  H           1     -37.774  -0.541 -16.622  0.00  0.00     0.275 HD
HETATM   28  H           1     -36.397   0.369 -17.059  0.00  0.00     0.275 HD
ENDBRANCH  17  25
ENDBRANCH   4  17
TORSDOF 9
ENDMDL
MODEL 9
REMARK VINA RESULT:      -6.5     13.083     14.888
REMARK  9 active torsions:
REMARK  status: ('A' for Active; 'I' for Inactive)
REMARK    1  A    between atoms: C_1  and  C_6 
REMARK    2  A    between atoms: C_1  and  C_12 
REMARK    3  A    between atoms: C_2  and  C_24 
REMARK    4  A    between atoms: C_2  and  C_14 
REMARK    5  A    between atoms: C_6  and  C_16 
REMARK    6  A    between atoms: N_8  and  C_16 
REMARK       I    between atoms: N_11  and  C_12 
REMARK    7  A    between atoms: N_15  and  C_24 
REMARK       I    between atoms: N_15  and  C_17 
REMARK    8  A    between atoms: C_16  and  C_17 
REMARK    9  A    between atoms: C_22  and  C_24 
ROOT
HETATM    1  H           1     -20.706  -4.594  -5.980  0.00  0.00     0.163 HD
HETATM    2  O           1     -19.385  -7.039  -6.513  0.00  0.00    -0.271 OA
HETATM    3  N           1     -20.812  -5.328  -6.668  0.00  0.00    -0.344 N 
HETATM    4  C           1     -20.505  -6.622  -6.341  0.00  0.00     0.249 C 
ENDROOT
BRANCH   3   5
HETATM    5  C           1     -21.289  -5.010  -8.000  0.00  0.00     0.191 C 
BRANCH   5   6
HETATM    6  C           1     -22.423  -3.998  -7.903  0.00  0.00     0.094 C 
BRANCH   6   7
HETATM    7  C           1     -23.245  -4.046  -9.153  0.00  0.00     0.028 A 
HETATM    8  C           1     -24.353  -3.267  -9.390  0.00  0.00     0.114 A 
HETATM    9  N           1     -24.785  -3.636 -10.634  0.00  0.00    -0.360 N 
HETATM   10  C           1     -23.938  -4.604 -11.093  0.00  0.00     0.180 A 
HETATM   11  H           1     -25.616  -3.245 -11.144  0.00  0.00     0.166 HD
HETATM   12  N           1     -22.996  -4.872 -10.218  0.00  0.00    -0.354 N 
ATOM     13  HN          1     -22.240  -5.551 -10.311  1.00  0.00     0.166 HD
ENDBRANCH   6   7
ENDBRANCH   5   6
BRANCH   5  14
HETATM   14  C           1     -20.160  -4.425  -8.811  0.00  0.00     0.197 C 
HETATM   15  O           1     -19.394  -3.581  -8.298  0.00  0.00    -0.646 OA
HETATM   16  O           1     -19.989  -4.785  -9.996  0.00  0.00    -0.646 OA
ENDBRANCH   5  14
ENDBRANCH   3   5
BRANCH   4  17
HETATM   17  C           1     -21.567  -7.528  -5.767  0.00  0.00     0.275 C 
BRANCH  17  18
HETATM   18  C           1     -22.052  -6.964  -4.439  0.00  0.00     0.052 C 
BRANCH  18  19
HETATM   19  C           1     -21.119  -7.416  -3.323  0.00  0.00     0.105 C 
BRANCH  19  20
HETATM   20  C           1     -21.681  -6.988  -1.990  0.00  0.00     0.215 C 
HETATM   21  O           1     -21.583  -7.716  -1.031  0.00  0.00    -0.274 OA
HETATM   22  N           1     -22.303  -5.775  -1.867  0.00  0.00    -0.370 N 
HETATM   23  H           1     -22.681  -5.488  -0.973  0.00  0.00     0.159 HD
HETATM   24  H           1     -22.386  -5.165  -2.670  0.00  0.00     0.159 HD
ENDBRANCH  19  20
ENDBRANCH  18  19
ENDBRANCH  17  18
BRANCH  17  25
HETATM   25  N           1     -20.992  -8.896  -5.549  0.00  0.00    -0.066 N 
HETATM   26  H           1     -20.103  -8.991  -6.090  0.00  0.00     0.275 HD
HETATM   27  H           1     -20.797  -9.034  -4.532  0.00  0.00     0.275 HD
HETATM   28  H           1     -21.676  -9.616  -5.874  0.00  0.00     0.275 HD
ENDBRANCH  17  25
ENDBRANCH   4  17
TORSDOF 9
ENDMDL
