MODEL 1
REMARK VINA RESULT:      -6.3      0.000      0.000
REMARK  10 active torsions:
REMARK  status: ('A' for Active; 'I' for Inactive)
REMARK    1  A    between atoms: P_2  and  O_3 
REMARK    2  A    between atoms: P_2  and  O_13 
REMARK    3  A    between atoms: O_3  and  C_20 
REMARK    4  A    between atoms: N_4  and  C_17 
REMARK    5  A    between atoms: C_9  and  C_21 
REMARK    6  A    between atoms: N_15  and  C_21 
REMARK       I    between atoms: N_15  and  C_16 
REMARK    7  A    between atoms: C_16  and  C_17 
REMARK    8  A    between atoms: C_17  and  C_18 
REMARK    9  A    between atoms: C_18  and  S_19 
REMARK   10  A    between atoms: C_20  and  C_21 
ROOT
HETATM    1  O           1     -33.533  -2.320 -11.152  0.00  0.00    -0.271 OA
HETATM    2  N           1     -35.002  -1.808 -12.754  0.00  0.00    -0.343 N 
HETATM    3  C           1     -34.197  -2.694 -12.089  0.00  0.00     0.249 C 
HETATM    4  H           1     -35.559  -2.123 -13.539  0.00  0.00     0.163 HD
ENDROOT
BRANCH   2   5
HETATM    5  C           1     -35.059  -0.422 -12.333  0.00  0.00     0.210 C 
BRANCH   5   6
HETATM    6  C           1     -36.306  -0.196 -11.514  0.00  0.00     0.198 C 
HETATM    7  O           1     -37.370  -0.776 -11.820  0.00  0.00    -0.646 OA
HETATM    8  O           1     -36.274   0.571 -10.528  0.00  0.00    -0.646 OA
ENDBRANCH   5   6
BRANCH   5   9
HETATM    9  C           1     -35.088   0.478 -13.561  0.00  0.00     0.217 C 
BRANCH   9  10
HETATM   10  O           1     -35.121  -0.310 -14.720  0.00  0.00    -0.287 OA
BRANCH  10  11
HETATM   11  P           1     -36.398  -0.098 -15.685  0.00  0.00     0.406 P 
HETATM   12  O           1     -37.595  -0.711 -15.066  0.00  0.00    -0.624 OA
HETATM   13  O           1     -36.138  -0.738 -16.994  0.00  0.00    -0.624 OA
BRANCH  11  14
HETATM   14  O           1     -36.654   1.482 -15.899  0.00  0.00    -0.300 OA
HETATM   15  H           1     -36.372   1.658 -16.780  0.00  0.00     0.223 HD
ENDBRANCH  11  14
ENDBRANCH  10  11
ENDBRANCH   9  10
ENDBRANCH   5   9
ENDBRANCH   2   5
BRANCH   3  16
HETATM   16  C           1     -34.139  -4.137 -12.527  0.00  0.00     0.283 C 
BRANCH  16  17
HETATM   17  N           1     -33.561  -4.216 -13.909  0.00  0.00    -0.066 N 
HETATM   18  H           1     -33.935  -3.431 -14.488  0.00  0.00     0.275 HD
HETATM   19  H           1     -32.520  -4.143 -13.855  0.00  0.00     0.275 HD
HETATM   20  H           1     -33.826  -5.128 -14.345  0.00  0.00     0.275 HD
ENDBRANCH  16  17
BRANCH  16  21
HETATM   21  C           1     -33.260  -4.925 -11.564  0.00  0.00     0.113 C 
BRANCH  21  22
HETATM   22  S           1     -34.276  -6.137 -10.674  0.00  0.00    -0.180 SA
HETATM   23  H           1     -33.780  -5.868  -9.453  0.00  0.00     0.101 HD
ENDBRANCH  21  22
ENDBRANCH  16  21
ENDBRANCH   3  16
TORSDOF 10
ENDMDL
MODEL 2
REMARK VINA RESULT:      -6.2      3.396      4.890
REMARK  10 active torsions:
REMARK  status: ('A' for Active; 'I' for Inactive)
REMARK    1  A    between atoms: P_2  and  O_3 
REMARK    2  A    between atoms: P_2  and  O_13 
REMARK    3  A    between atoms: O_3  and  C_20 
REMARK    4  A    between atoms: N_4  and  C_17 
REMARK    5  A    between atoms: C_9  and  C_21 
REMARK    6  A    between atoms: N_15  and  C_21 
REMARK       I    between atoms: N_15  and  C_16 
REMARK    7  A    between atoms: C_16  and  C_17 
REMARK    8  A    between atoms: C_17  and  C_18 
REMARK    9  A    between atoms: C_18  and  S_19 
REMARK   10  A    between atoms: C_20  and  C_21 
ROOT
HETATM    1  O           1     -37.670  -0.751 -13.511  0.00  0.00    -0.271 OA
HETATM    2  N           1     -36.002  -0.137 -12.159  0.00  0.00    -0.343 N 
HETATM    3  C           1     -36.635  -0.144 -13.374  0.00  0.00     0.249 C 
HETATM    4  H           1     -35.135   0.372 -12.044  0.00  0.00     0.163 HD
ENDROOT
BRANCH   2   5
HETATM    5  C           1     -36.575  -0.857 -11.039  0.00  0.00     0.210 C 
BRANCH   5   6
HETATM    6  C           1     -36.872   0.111  -9.918  0.00  0.00     0.198 C 
HETATM    7  O           1     -37.775   0.964 -10.052  0.00  0.00    -0.646 OA
HETATM    8  O           1     -36.214   0.057  -8.857  0.00  0.00    -0.646 OA
ENDBRANCH   5   6
BRANCH   5   9
HETATM    9  C           1     -35.585  -1.908 -10.553  0.00  0.00     0.217 C 
BRANCH   9  10
HETATM   10  O           1     -35.713  -3.067 -11.332  0.00  0.00    -0.287 OA
BRANCH  10  11
HETATM   11  P           1     -34.449  -3.437 -12.265  0.00  0.00     0.406 P 
HETATM   12  O           1     -33.195  -3.069 -11.570  0.00  0.00    -0.624 OA
HETATM   13  O           1     -34.543  -2.689 -13.540  0.00  0.00    -0.624 OA
BRANCH  11  14
HETATM   14  O           1     -34.450  -5.023 -12.568  0.00  0.00    -0.300 OA
HETATM   15  H           1     -34.770  -5.102 -13.451  0.00  0.00     0.223 HD
ENDBRANCH  11  14
ENDBRANCH  10  11
ENDBRANCH   9  10
ENDBRANCH   5   9
ENDBRANCH   2   5
BRANCH   3  16
HETATM   16  C           1     -36.038   0.605 -14.539  0.00  0.00     0.283 C 
BRANCH  16  17
HETATM   17  N           1     -34.581   0.272 -14.654  0.00  0.00    -0.066 N 
HETATM   18  H           1     -34.264   0.432 -15.637  0.00  0.00     0.275 HD
HETATM   19  H           1     -34.032   0.884 -14.009  0.00  0.00     0.275 HD
HETATM   20  H           1     -34.431  -0.730 -14.398  0.00  0.00     0.275 HD
ENDBRANCH  16  17
BRANCH  16  21
HETATM   21  C           1     -36.753   0.201 -15.822  0.00  0.00     0.113 C 
BRANCH  21  22
HETATM   22  S           1     -35.810  -1.106 -16.655  0.00  0.00    -0.180 SA
HETATM   23  H           1     -34.604  -0.721 -16.200  0.00  0.00     0.101 HD
ENDBRANCH  21  22
ENDBRANCH  16  21
ENDBRANCH   3  16
TORSDOF 10
ENDMDL
MODEL 3
REMARK VINA RESULT:      -6.2     12.012     13.426
REMARK  10 active torsions:
REMARK  status: ('A' for Active; 'I' for Inactive)
REMARK    1  A    between atoms: P_2  and  O_3 
REMARK    2  A    between atoms: P_2  and  O_13 
REMARK    3  A    between atoms: O_3  and  C_20 
REMARK    4  A    between atoms: N_4  and  C_17 
REMARK    5  A    between atoms: C_9  and  C_21 
REMARK    6  A    between atoms: N_15  and  C_21 
REMARK       I    between atoms: N_15  and  C_16 
REMARK    7  A    between atoms: C_16  and  C_17 
REMARK    8  A    between atoms: C_17  and  C_18 
REMARK    9  A    between atoms: C_18  and  S_19 
REMARK   10  A    between atoms: C_20  and  C_21 
ROOT
HETATM    1  O           1     -21.941  -3.415  -7.699  0.00  0.00    -0.271 OA
HETATM    2  N           1     -21.927  -4.635  -9.569  0.00  0.00    -0.343 N 
HETATM    3  C           1     -21.611  -4.437  -8.251  0.00  0.00     0.249 C 
HETATM    4  H           1     -21.650  -5.493 -10.031  0.00  0.00     0.163 HD
ENDROOT
BRANCH   2   5
HETATM    5  C           1     -22.656  -3.619 -10.301  0.00  0.00     0.210 C 
BRANCH   5   6
HETATM    6  C           1     -24.138  -3.830 -10.113  0.00  0.00     0.198 C 
HETATM    7  O           1     -24.889  -2.851  -9.911  0.00  0.00    -0.646 OA
HETATM    8  O           1     -24.616  -4.984 -10.159  0.00  0.00    -0.646 OA
ENDBRANCH   5   6
BRANCH   5   9
HETATM    9  C           1     -22.312  -3.717 -11.781  0.00  0.00     0.217 C 
BRANCH   9  10
HETATM   10  O           1     -22.689  -2.533 -12.430  0.00  0.00    -0.287 OA
BRANCH  10  11
HETATM   11  P           1     -23.553  -2.709 -13.782  0.00  0.00     0.406 P 
HETATM   12  O           1     -24.380  -3.933 -13.685  0.00  0.00    -0.624 OA
HETATM   13  O           1     -22.638  -2.823 -14.940  0.00  0.00    -0.624 OA
BRANCH  11  14
HETATM   14  O           1     -24.513  -1.425 -13.977  0.00  0.00    -0.300 OA
HETATM   15  H           1     -25.317  -1.653 -13.544  0.00  0.00     0.223 HD
ENDBRANCH  11  14
ENDBRANCH  10  11
ENDBRANCH   9  10
ENDBRANCH   5   9
ENDBRANCH   2   5
BRANCH   3  16
HETATM   16  C           1     -20.853  -5.496  -7.489  0.00  0.00     0.283 C 
BRANCH  16  17
HETATM   17  N           1     -19.434  -5.052  -7.296  0.00  0.00    -0.066 N 
HETATM   18  H           1     -18.847  -5.871  -7.019  0.00  0.00     0.275 HD
HETATM   19  H           1     -19.070  -4.650  -8.189  0.00  0.00     0.275 HD
HETATM   20  H           1     -19.395  -4.326  -6.545  0.00  0.00     0.275 HD
ENDBRANCH  16  17
BRANCH  16  21
HETATM   21  C           1     -21.507  -5.710  -6.130  0.00  0.00     0.113 C 
BRANCH  21  22
HETATM   22  S           1     -20.764  -7.156  -5.323  0.00  0.00    -0.180 SA
HETATM   23  H           1     -19.743  -7.291  -6.188  0.00  0.00     0.101 HD
ENDBRANCH  21  22
ENDBRANCH  16  21
ENDBRANCH   3  16
TORSDOF 10
ENDMDL
MODEL 4
REMARK VINA RESULT:      -5.8      3.322      4.943
REMARK  10 active torsions:
REMARK  status: ('A' for Active; 'I' for Inactive)
REMARK    1  A    between atoms: P_2  and  O_3 
REMARK    2  A    between atoms: P_2  and  O_13 
REMARK    3  A    between atoms: O_3  and  C_20 
REMARK    4  A    between atoms: N_4  and  C_17 
REMARK    5  A    between atoms: C_9  and  C_21 
REMARK    6  A    between atoms: N_15  and  C_21 
REMARK       I    between atoms: N_15  and  C_16 
REMARK    7  A    between atoms: C_16  and  C_17 
REMARK    8  A    between atoms: C_17  and  C_18 
REMARK    9  A    between atoms: C_18  and  S_19 
REMARK   10  A    between atoms: C_20  and  C_21 
ROOT
HETATM    1  O           1     -36.758  -0.996 -12.329  0.00  0.00    -0.271 OA
HETATM    2  N           1     -34.796  -1.729 -13.101  0.00  0.00    -0.343 N 
HETATM    3  C           1     -35.824  -0.825 -13.074  0.00  0.00     0.249 C 
HETATM    4  H           1     -34.012  -1.585 -13.726  0.00  0.00     0.163 HD
ENDROOT
BRANCH   2   5
HETATM    5  C           1     -34.829  -2.891 -12.236  0.00  0.00     0.210 C 
BRANCH   5   6
HETATM    6  C           1     -33.792  -2.739 -11.149  0.00  0.00     0.198 C 
HETATM    7  O           1     -33.514  -1.604 -10.705  0.00  0.00    -0.646 OA
HETATM    8  O           1     -33.212  -3.748 -10.694  0.00  0.00    -0.646 OA
ENDBRANCH   5   6
BRANCH   5   9
HETATM    9  C           1     -34.528  -4.140 -13.053  0.00  0.00     0.217 C 
BRANCH   9  10
HETATM   10  O           1     -33.583  -3.836 -14.043  0.00  0.00    -0.287 OA
BRANCH  10  11
HETATM   11  P           1     -34.049  -4.087 -15.569  0.00  0.00     0.406 P 
HETATM   12  O           1     -32.857  -4.273 -16.426  0.00  0.00    -0.624 OA
HETATM   13  O           1     -34.822  -2.919 -16.047  0.00  0.00    -0.624 OA
BRANCH  11  14
HETATM   14  O           1     -34.972  -5.410 -15.638  0.00  0.00    -0.300 OA
HETATM   15  H           1     -35.581  -5.247 -16.337  0.00  0.00     0.223 HD
ENDBRANCH  11  14
ENDBRANCH  10  11
ENDBRANCH   9  10
ENDBRANCH   5   9
ENDBRANCH   2   5
BRANCH   3  16
HETATM   16  C           1     -35.788   0.385 -13.975  0.00  0.00     0.283 C 
BRANCH  16  17
HETATM   17  N           1     -34.384   0.904 -14.058  0.00  0.00    -0.066 N 
HETATM   18  H           1     -33.724   0.103 -14.181  0.00  0.00     0.275 HD
HETATM   19  H           1     -34.300   1.551 -14.874  0.00  0.00     0.275 HD
HETATM   20  H           1     -34.149   1.418 -13.179  0.00  0.00     0.275 HD
ENDBRANCH  16  17
BRANCH  16  21
HETATM   21  C           1     -36.269  -0.005 -15.367  0.00  0.00     0.113 C 
BRANCH  21  22
HETATM   22  S           1     -38.071   0.187 -15.461  0.00  0.00    -0.180 SA
HETATM   23  H           1     -38.261   0.377 -14.143  0.00  0.00     0.101 HD
ENDBRANCH  21  22
ENDBRANCH  16  21
ENDBRANCH   3  16
TORSDOF 10
ENDMDL
MODEL 5
REMARK VINA RESULT:      -5.3     13.236     15.308
REMARK  10 active torsions:
REMARK  status: ('A' for Active; 'I' for Inactive)
REMARK    1  A    between atoms: P_2  and  O_3 
REMARK    2  A    between atoms: P_2  and  O_13 
REMARK    3  A    between atoms: O_3  and  C_20 
REMARK    4  A    between atoms: N_4  and  C_17 
REMARK    5  A    between atoms: C_9  and  C_21 
REMARK    6  A    between atoms: N_15  and  C_21 
REMARK       I    between atoms: N_15  and  C_16 
REMARK    7  A    between atoms: C_16  and  C_17 
REMARK    8  A    between atoms: C_17  and  C_18 
REMARK    9  A    between atoms: C_18  and  S_19 
REMARK   10  A    between atoms: C_20  and  C_21 
ROOT
HETATM    1  O           1     -21.205  -7.222  -6.729  0.00  0.00    -0.271 OA
HETATM    2  N           1     -21.294  -5.000  -6.528  0.00  0.00    -0.343 N 
HETATM    3  C           1     -21.149  -6.258  -6.005  0.00  0.00     0.249 C 
HETATM    4  H           1     -21.248  -4.192  -5.921  0.00  0.00     0.163 HD
ENDROOT
BRANCH   2   5
HETATM    5  C           1     -21.513  -4.827  -7.950  0.00  0.00     0.210 C 
BRANCH   5   6
HETATM    6  C           1     -20.196  -4.547  -8.632  0.00  0.00     0.198 C 
HETATM    7  O           1     -20.098  -4.659  -9.873  0.00  0.00    -0.646 OA
HETATM    8  O           1     -19.204  -4.202  -7.955  0.00  0.00    -0.646 OA
ENDBRANCH   5   6
BRANCH   5   9
HETATM    9  C           1     -22.462  -3.658  -8.178  0.00  0.00     0.217 C 
BRANCH   9  10
HETATM   10  O           1     -23.660  -4.127  -8.734  0.00  0.00    -0.287 OA
BRANCH  10  11
HETATM   11  P           1     -23.814  -3.958 -10.333  0.00  0.00     0.406 P 
HETATM   12  O           1     -25.074  -3.245 -10.636  0.00  0.00    -0.624 OA
HETATM   13  O           1     -23.838  -5.295 -10.969  0.00  0.00    -0.624 OA
BRANCH  11  14
HETATM   14  O           1     -22.565  -3.110 -10.906  0.00  0.00    -0.300 OA
HETATM   15  H           1     -22.717  -3.048 -11.833  0.00  0.00     0.223 HD
ENDBRANCH  11  14
ENDBRANCH  10  11
ENDBRANCH   9  10
ENDBRANCH   5   9
ENDBRANCH   2   5
BRANCH   3  16
HETATM   16  C           1     -20.921  -6.437  -4.524  0.00  0.00     0.283 C 
BRANCH  16  17
HETATM   17  N           1     -22.199  -6.169  -3.786  0.00  0.00    -0.066 N 
HETATM   18  H           1     -22.351  -5.138  -3.716  0.00  0.00     0.275 HD
HETATM   19  H           1     -22.996  -6.603  -4.303  0.00  0.00     0.275 HD
HETATM   20  H           1     -22.139  -6.579  -2.827  0.00  0.00     0.275 HD
ENDBRANCH  16  17
BRANCH  16  21
HETATM   21  C           1     -20.466  -7.865  -4.250  0.00  0.00     0.113 C 
BRANCH  21  22
HETATM   22  S           1     -20.746  -8.263  -2.502  0.00  0.00    -0.180 SA
HETATM   23  H           1     -19.477  -8.620  -2.233  0.00  0.00     0.101 HD
ENDBRANCH  21  22
ENDBRANCH  16  21
ENDBRANCH   3  16
TORSDOF 10
ENDMDL
MODEL 6
REMARK VINA RESULT:      -5.3     25.699     26.542
REMARK  10 active torsions:
REMARK  status: ('A' for Active; 'I' for Inactive)
REMARK    1  A    between atoms: P_2  and  O_3 
REMARK    2  A    between atoms: P_2  and  O_13 
REMARK    3  A    between atoms: O_3  and  C_20 
REMARK    4  A    between atoms: N_4  and  C_17 
REMARK    5  A    between atoms: C_9  and  C_21 
REMARK    6  A    between atoms: N_15  and  C_21 
REMARK       I    between atoms: N_15  and  C_16 
REMARK    7  A    between atoms: C_16  and  C_17 
REMARK    8  A    between atoms: C_17  and  C_18 
REMARK    9  A    between atoms: C_18  and  S_19 
REMARK   10  A    between atoms: C_20  and  C_21 
ROOT
HETATM    1  O           1     -10.958   3.072 -21.816  0.00  0.00    -0.271 OA
HETATM    2  N           1     -11.453   5.210 -21.406  0.00  0.00    -0.343 N 
HETATM    3  C           1     -11.717   3.996 -21.983  0.00  0.00     0.249 C 
HETATM    4  H           1     -12.090   5.985 -21.546  0.00  0.00     0.163 HD
ENDROOT
BRANCH   2   5
HETATM    5  C           1     -10.264   5.386 -20.597  0.00  0.00     0.210 C 
BRANCH   5   6
HETATM    6  C           1     -10.637   5.322 -19.135  0.00  0.00     0.198 C 
HETATM    7  O           1      -9.804   5.651 -18.263  0.00  0.00    -0.646 OA
HETATM    8  O           1     -11.778   4.941 -18.798  0.00  0.00    -0.646 OA
ENDBRANCH   5   6
BRANCH   5   9
HETATM    9  C           1      -9.639   6.740 -20.903  0.00  0.00     0.217 C 
BRANCH   9  10
HETATM   10  O           1     -10.641   7.719 -20.950  0.00  0.00    -0.287 OA
BRANCH  10  11
HETATM   11  P           1     -10.378   9.046 -20.068  0.00  0.00     0.406 P 
HETATM   12  O           1     -11.529   9.967 -20.203  0.00  0.00    -0.624 OA
HETATM   13  O           1      -9.150   9.720 -20.548  0.00  0.00    -0.624 OA
BRANCH  11  14
HETATM   14  O           1     -10.197   8.634 -18.518  0.00  0.00    -0.300 OA
HETATM   15  H           1     -10.854   7.978 -18.361  0.00  0.00     0.223 HD
ENDBRANCH  11  14
ENDBRANCH  10  11
ENDBRANCH   9  10
ENDBRANCH   5   9
ENDBRANCH   2   5
BRANCH   3  16
HETATM   16  C           1     -12.955   3.814 -22.825  0.00  0.00     0.283 C 
BRANCH  16  17
HETATM   17  N           1     -13.830   2.765 -22.207  0.00  0.00    -0.066 N 
HETATM   18  H           1     -14.698   2.655 -22.778  0.00  0.00     0.275 HD
HETATM   19  H           1     -13.316   1.855 -22.179  0.00  0.00     0.275 HD
HETATM   20  H           1     -14.086   3.052 -21.236  0.00  0.00     0.275 HD
ENDBRANCH  16  17
BRANCH  16  21
HETATM   21  C           1     -13.718   5.131 -22.899  0.00  0.00     0.113 C 
BRANCH  21  22
HETATM   22  S           1     -15.141   5.070 -21.775  0.00  0.00    -0.180 SA
HETATM   23  H           1     -15.727   6.193 -22.228  0.00  0.00     0.101 HD
ENDBRANCH  21  22
ENDBRANCH  16  21
ENDBRANCH   3  16
TORSDOF 10
ENDMDL
MODEL 7
REMARK VINA RESULT:      -5.0      2.979      4.504
REMARK  10 active torsions:
REMARK  status: ('A' for Active; 'I' for Inactive)
REMARK    1  A    between atoms: P_2  and  O_3 
REMARK    2  A    between atoms: P_2  and  O_13 
REMARK    3  A    between atoms: O_3  and  C_20 
REMARK    4  A    between atoms: N_4  and  C_17 
REMARK    5  A    between atoms: C_9  and  C_21 
REMARK    6  A    between atoms: N_15  and  C_21 
REMARK       I    between atoms: N_15  and  C_16 
REMARK    7  A    between atoms: C_16  and  C_17 
REMARK    8  A    between atoms: C_17  and  C_18 
REMARK    9  A    between atoms: C_18  and  S_19 
REMARK   10  A    between atoms: C_20  and  C_21 
ROOT
HETATM    1  O           1     -37.826  -1.386 -11.130  0.00  0.00    -0.271 OA
HETATM    2  N           1     -35.969  -0.157 -10.960  0.00  0.00    -0.343 N 
HETATM    3  C           1     -37.231  -0.504 -10.557  0.00  0.00     0.249 C 
HETATM    4  H           1     -35.471   0.582 -10.479  0.00  0.00     0.163 HD
ENDROOT
BRANCH   2   5
HETATM    5  C           1     -35.347  -0.846 -12.073  0.00  0.00     0.210 C 
BRANCH   5   6
HETATM    6  C           1     -34.281  -1.779 -11.554  0.00  0.00     0.198 C 
HETATM    7  O           1     -33.970  -2.799 -12.208  0.00  0.00    -0.646 OA
HETATM    8  O           1     -33.708  -1.533 -10.471  0.00  0.00    -0.646 OA
ENDBRANCH   5   6
BRANCH   5   9
HETATM    9  C           1     -34.717   0.175 -13.011  0.00  0.00     0.217 C 
BRANCH   9  10
HETATM   10  O           1     -35.723   0.829 -13.736  0.00  0.00    -0.287 OA
BRANCH  10  11
HETATM   11  P           1     -36.140   0.150 -15.140  0.00  0.00     0.406 P 
HETATM   12  O           1     -36.460   1.207 -16.126  0.00  0.00    -0.624 OA
HETATM   13  O           1     -37.329  -0.709 -14.938  0.00  0.00    -0.624 OA
BRANCH  11  14
HETATM   14  O           1     -34.914  -0.745 -15.690  0.00  0.00    -0.300 OA
HETATM   15  H           1     -34.849  -0.534 -16.606  0.00  0.00     0.223 HD
ENDBRANCH  11  14
ENDBRANCH  10  11
ENDBRANCH   9  10
ENDBRANCH   5   9
ENDBRANCH   2   5
BRANCH   3  16
HETATM   16  C           1     -37.878   0.213  -9.398  0.00  0.00     0.283 C 
BRANCH  16  17
HETATM   17  N           1     -38.072  -0.746  -8.262  0.00  0.00    -0.066 N 
HETATM   18  H           1     -37.577  -0.388  -7.415  0.00  0.00     0.275 HD
HETATM   19  H           1     -39.092  -0.838  -8.055  0.00  0.00     0.275 HD
HETATM   20  H           1     -37.684  -1.680  -8.524  0.00  0.00     0.275 HD
ENDBRANCH  16  17
BRANCH  16  21
HETATM   21  C           1     -36.980   1.359  -8.946  0.00  0.00     0.113 C 
BRANCH  21  22
HETATM   22  S           1     -37.023   1.483  -7.137  0.00  0.00    -0.180 SA
HETATM   23  H           1     -36.723   0.193  -6.900  0.00  0.00     0.101 HD
ENDBRANCH  21  22
ENDBRANCH  16  21
ENDBRANCH   3  16
TORSDOF 10
ENDMDL
MODEL 8
REMARK VINA RESULT:      -4.9     13.090     15.727
REMARK  10 active torsions:
REMARK  status: ('A' for Active; 'I' for Inactive)
REMARK    1  A    between atoms: P_2  and  O_3 
REMARK    2  A    between atoms: P_2  and  O_13 
REMARK    3  A    between atoms: O_3  and  C_20 
REMARK    4  A    between atoms: N_4  and  C_17 
REMARK    5  A    between atoms: C_9  and  C_21 
REMARK    6  A    between atoms: N_15  and  C_21 
REMARK       I    between atoms: N_15  and  C_16 
REMARK    7  A    between atoms: C_16  and  C_17 
REMARK    8  A    between atoms: C_17  and  C_18 
REMARK    9  A    between atoms: C_18  and  S_19 
REMARK   10  A    between atoms: C_20  and  C_21 
ROOT
HETATM    1  O           1     -23.230  -3.219  -8.426  0.00  0.00    -0.271 OA
HETATM    2  N           1     -22.179  -5.163  -8.751  0.00  0.00    -0.343 N 
HETATM    3  C           1     -23.197  -4.281  -9.001  0.00  0.00     0.249 C 
HETATM    4  H           1     -22.152  -6.052  -9.234  0.00  0.00     0.163 HD
ENDROOT
BRANCH   2   5
HETATM    5  C           1     -21.142  -4.822  -7.798  0.00  0.00     0.210 C 
BRANCH   5   6
HETATM    6  C           1     -19.900  -4.390  -8.538  0.00  0.00     0.198 C 
HETATM    7  O           1     -19.928  -4.254  -9.781  0.00  0.00    -0.646 OA
HETATM    8  O           1     -18.844  -4.168  -7.909  0.00  0.00    -0.646 OA
ENDBRANCH   5   6
BRANCH   5   9
HETATM    9  C           1     -20.824  -6.040  -6.940  0.00  0.00     0.217 C 
BRANCH   9  10
HETATM   10  O           1     -20.851  -5.679  -5.585  0.00  0.00    -0.287 OA
BRANCH  10  11
HETATM   11  P           1     -21.866  -6.517  -4.649  0.00  0.00     0.406 P 
HETATM   12  O           1     -21.695  -7.964  -4.906  0.00  0.00    -0.624 OA
HETATM   13  O           1     -23.259  -6.123  -4.957  0.00  0.00    -0.624 OA
BRANCH  11  14
HETATM   14  O           1     -21.547  -6.205  -3.097  0.00  0.00    -0.300 OA
HETATM   15  H           1     -22.383  -6.008  -2.711  0.00  0.00     0.223 HD
ENDBRANCH  11  14
ENDBRANCH  10  11
ENDBRANCH   9  10
ENDBRANCH   5   9
ENDBRANCH   2   5
BRANCH   3  16
HETATM   16  C           1     -24.276  -4.636  -9.994  0.00  0.00     0.283 C 
BRANCH  16  17
HETATM   17  N           1     -25.378  -3.622  -9.918  0.00  0.00    -0.066 N 
HETATM   18  H           1     -25.147  -2.810 -10.534  0.00  0.00     0.275 HD
HETATM   19  H           1     -26.273  -4.056 -10.236  0.00  0.00     0.275 HD
HETATM   20  H           1     -25.481  -3.292  -8.932  0.00  0.00     0.275 HD
ENDBRANCH  16  17
BRANCH  16  21
HETATM   21  C           1     -23.689  -4.644 -11.400  0.00  0.00     0.113 C 
BRANCH  21  22
HETATM   22  S           1     -23.683  -2.954 -12.062  0.00  0.00    -0.180 SA
HETATM   23  H           1     -23.746  -3.310 -13.358  0.00  0.00     0.101 HD
ENDBRANCH  21  22
ENDBRANCH  16  21
ENDBRANCH   3  16
TORSDOF 10
ENDMDL
MODEL 9
REMARK VINA RESULT:      -4.9      3.460      4.538
REMARK  10 active torsions:
REMARK  status: ('A' for Active; 'I' for Inactive)
REMARK    1  A    between atoms: P_2  and  O_3 
REMARK    2  A    between atoms: P_2  and  O_13 
REMARK    3  A    between atoms: O_3  and  C_20 
REMARK    4  A    between atoms: N_4  and  C_17 
REMARK    5  A    between atoms: C_9  and  C_21 
REMARK    6  A    between atoms: N_15  and  C_21 
REMARK       I    between atoms: N_15  and  C_16 
REMARK    7  A    between atoms: C_16  and  C_17 
REMARK    8  A    between atoms: C_17  and  C_18 
REMARK    9  A    between atoms: C_18  and  S_19 
REMARK   10  A    between atoms: C_20  and  C_21 
ROOT
HETATM    1  O           1     -36.946  -1.793 -10.306  0.00  0.00    -0.271 OA
HETATM    2  N           1     -37.177   0.113 -11.445  0.00  0.00    -0.343 N 
HETATM    3  C           1     -37.358  -0.658 -10.329  0.00  0.00     0.249 C 
HETATM    4  H           1     -37.523   1.065 -11.464  0.00  0.00     0.163 HD
ENDROOT
BRANCH   2   5
HETATM    5  C           1     -36.491  -0.431 -12.600  0.00  0.00     0.210 C 
BRANCH   5   6
HETATM    6  C           1     -35.041  -0.012 -12.567  0.00  0.00     0.198 C 
HETATM    7  O           1     -34.210  -0.684 -11.919  0.00  0.00    -0.646 OA
HETATM    8  O           1     -34.672   1.007 -13.189  0.00  0.00    -0.646 OA
ENDBRANCH   5   6
BRANCH   5   9
HETATM    9  C           1     -37.143   0.095 -13.871  0.00  0.00     0.217 C 
BRANCH   9  10
HETATM   10  O           1     -37.010  -0.855 -14.894  0.00  0.00    -0.287 OA
BRANCH  10  11
HETATM   11  P           1     -36.102  -0.416 -16.155  0.00  0.00     0.406 P 
HETATM   12  O           1     -34.732  -0.950 -15.988  0.00  0.00    -0.624 OA
HETATM   13  O           1     -36.050   1.061 -16.234  0.00  0.00    -0.624 OA
BRANCH  11  14
HETATM   14  O           1     -36.747  -1.006 -17.513  0.00  0.00    -0.300 OA
HETATM   15  H           1     -36.422  -1.888 -17.574  0.00  0.00     0.223 HD
ENDBRANCH  11  14
ENDBRANCH  10  11
ENDBRANCH   9  10
ENDBRANCH   5   9
ENDBRANCH   2   5
BRANCH   3  16
HETATM   16  C           1     -38.073  -0.090  -9.127  0.00  0.00     0.283 C 
BRANCH  16  17
HETATM   17  N           1     -37.644  -0.830  -7.895  0.00  0.00    -0.066 N 
HETATM   18  H           1     -36.601  -0.892  -7.872  0.00  0.00     0.275 HD
HETATM   19  H           1     -37.981  -0.319  -7.048  0.00  0.00     0.275 HD
HETATM   20  H           1     -38.050  -1.793  -7.908  0.00  0.00     0.275 HD
ENDBRANCH  16  17
BRANCH  16  21
HETATM   21  C           1     -37.724   1.386  -8.980  0.00  0.00     0.113 C 
BRANCH  21  22
HETATM   22  S           1     -37.110   1.698  -7.301  0.00  0.00    -0.180 SA
HETATM   23  H           1     -36.469   0.523  -7.165  0.00  0.00     0.101 HD
ENDBRANCH  21  22
ENDBRANCH  16  21
ENDBRANCH   3  16
TORSDOF 10
ENDMDL
