MODEL 1
REMARK VINA RESULT:      -7.8      0.000      0.000
REMARK  10 active torsions:
REMARK  status: ('A' for Active; 'I' for Inactive)
REMARK    1  A    between atoms: C_5  and  C_25 
REMARK    2  A    between atoms: C_5  and  C_14 
REMARK    3  A    between atoms: C_6  and  C_14 
REMARK    4  A    between atoms: N_7  and  C_14 
REMARK       I    between atoms: N_7  and  C_8 
REMARK    5  A    between atoms: C_8  and  C_9 
REMARK    6  A    between atoms: C_9  and  C_27 
REMARK    7  A    between atoms: C_9  and  N_21 
REMARK       I    between atoms: N_12  and  C_15 
REMARK    8  A    between atoms: N_12  and  C_29 
REMARK       I    between atoms: N_13  and  C_15 
REMARK    9  A    between atoms: C_25  and  C_29 
REMARK   10  A    between atoms: C_26  and  C_27 
ROOT
HETATM    1  C           1     -22.570  -3.808  -9.690  0.00  0.00     0.185 C 
ENDROOT
BRANCH   1   2
HETATM    2  C           1     -22.008  -3.881 -11.104  0.00  0.00     0.038 C 
BRANCH   2   3
HETATM    3  C           1     -22.379  -2.616 -11.865  0.00  0.00     0.023 C 
BRANCH   3   4
HETATM    4  C           1     -23.167  -2.986 -13.115  0.00  0.00     0.138 C 
BRANCH   4   5
HETATM    5  N           1     -23.964  -1.832 -13.553  0.00  0.00    -0.227 N 
HETATM    6  H           1     -24.701  -1.432 -12.922  0.00  0.00     0.177 HD
HETATM    7  C           1     -23.762  -1.319 -14.693  0.00  0.00     0.665 C 
HETATM    8  N           1     -22.872  -1.800 -15.455  0.00  0.00    -0.235 N 
HETATM    9  N           1     -24.466  -0.297 -15.080  0.00  0.00    -0.235 N 
HETATM   10  H           1     -22.303  -2.625 -15.142  0.00  0.00     0.174 HD
HETATM   11  H           1     -22.704  -1.375 -16.400  0.00  0.00     0.174 HD
HETATM   12  H           1     -25.200   0.100 -14.451  0.00  0.00     0.174 HD
HETATM   13  H           1     -24.299   0.126 -16.021  0.00  0.00     0.174 HD
ENDBRANCH   4   5
ENDBRANCH   3   4
ENDBRANCH   2   3
ENDBRANCH   1   2
BRANCH   1  14
HETATM   14  C           1     -24.077  -3.865  -9.745  0.00  0.00     0.196 C 
HETATM   15  O           1     -24.752  -2.860  -9.429  0.00  0.00    -0.646 OA
HETATM   16  O           1     -24.651  -4.915 -10.107  0.00  0.00    -0.646 OA
ENDBRANCH   1  14
BRANCH   1  17
HETATM   17  N           1     -22.073  -4.928  -8.914  0.00  0.00    -0.345 N 
HETATM   18  C           1     -21.593  -4.724  -7.648  0.00  0.00     0.249 C 
HETATM   19  O           1     -21.584  -3.612  -7.177  0.00  0.00    -0.271 OA
HETATM   20  H           1     -22.081  -5.860  -9.309  0.00  0.00     0.163 HD
BRANCH  18  21
HETATM   21  C           1     -21.075  -5.889  -6.841  0.00  0.00     0.275 C 
BRANCH  21  22
HETATM   22  C           1     -20.941  -5.476  -5.381  0.00  0.00     0.046 C 
BRANCH  22  23
HETATM   23  C           1     -21.832  -6.359  -4.519  0.00  0.00    -0.020 C 
HETATM   24  C           1     -21.496  -6.139  -3.051  0.00  0.00     0.009 C 
HETATM   25  C           1     -21.601  -7.821  -4.878  0.00  0.00     0.009 C 
ENDBRANCH  22  23
ENDBRANCH  21  22
BRANCH  21  26
HETATM   26  N           1     -19.734  -6.305  -7.368  0.00  0.00    -0.066 N 
HETATM   27  H           1     -19.344  -7.066  -6.767  0.00  0.00     0.275 HD
HETATM   28  H           1     -19.838  -6.655  -8.348  0.00  0.00     0.275 HD
HETATM   29  H           1     -19.085  -5.487  -7.358  0.00  0.00     0.275 HD
ENDBRANCH  21  26
ENDBRANCH  18  21
ENDBRANCH   1  17
TORSDOF 10
ENDMDL
MODEL 2
REMARK VINA RESULT:      -6.9      1.701      2.266
REMARK  10 active torsions:
REMARK  status: ('A' for Active; 'I' for Inactive)
REMARK    1  A    between atoms: C_5  and  C_25 
REMARK    2  A    between atoms: C_5  and  C_14 
REMARK    3  A    between atoms: C_6  and  C_14 
REMARK    4  A    between atoms: N_7  and  C_14 
REMARK       I    between atoms: N_7  and  C_8 
REMARK    5  A    between atoms: C_8  and  C_9 
REMARK    6  A    between atoms: C_9  and  C_27 
REMARK    7  A    between atoms: C_9  and  N_21 
REMARK       I    between atoms: N_12  and  C_15 
REMARK    8  A    between atoms: N_12  and  C_29 
REMARK       I    between atoms: N_13  and  C_15 
REMARK    9  A    between atoms: C_25  and  C_29 
REMARK   10  A    between atoms: C_26  and  C_27 
ROOT
HETATM    1  C           1     -23.613  -3.280 -10.878  0.00  0.00     0.185 C 
ENDROOT
BRANCH   1   2
HETATM    2  C           1     -23.958  -3.387 -12.358  0.00  0.00     0.038 C 
BRANCH   2   3
HETATM    3  C           1     -22.880  -2.697 -13.183  0.00  0.00     0.023 C 
BRANCH   3   4
HETATM    4  C           1     -23.174  -2.888 -14.666  0.00  0.00     0.138 C 
BRANCH   4   5
HETATM    5  N           1     -22.930  -1.627 -15.381  0.00  0.00    -0.227 N 
HETATM    6  H           1     -22.081  -1.524 -15.990  0.00  0.00     0.177 HD
HETATM    7  C           1     -23.743  -0.665 -15.262  0.00  0.00     0.665 C 
HETATM    8  N           1     -24.767  -0.788 -14.527  0.00  0.00    -0.235 N 
HETATM    9  N           1     -23.528   0.451 -15.894  0.00  0.00    -0.235 N 
HETATM   10  H           1     -24.941  -1.689 -14.016  0.00  0.00     0.174 HD
HETATM   11  H           1     -25.442   0.010 -14.428  0.00  0.00     0.174 HD
HETATM   12  H           1     -22.683   0.552 -16.500  0.00  0.00     0.174 HD
HETATM   13  H           1     -24.200   1.245 -15.796  0.00  0.00     0.174 HD
ENDBRANCH   4   5
ENDBRANCH   3   4
ENDBRANCH   2   3
ENDBRANCH   1   2
BRANCH   1  14
HETATM   14  C           1     -24.781  -3.763 -10.053  0.00  0.00     0.196 C 
HETATM   15  O           1     -25.645  -2.949  -9.658  0.00  0.00    -0.646 OA
HETATM   16  O           1     -24.886  -4.975  -9.766  0.00  0.00    -0.646 OA
ENDBRANCH   1  14
BRANCH   1  17
HETATM   17  N           1     -22.450  -4.100 -10.594  0.00  0.00    -0.345 N 
HETATM   18  C           1     -21.822  -3.999  -9.382  0.00  0.00     0.249 C 
HETATM   19  O           1     -22.236  -3.228  -8.549  0.00  0.00    -0.271 OA
HETATM   20  H           1     -22.104  -4.746 -11.292  0.00  0.00     0.163 HD
BRANCH  18  21
HETATM   21  C           1     -20.613  -4.851  -9.086  0.00  0.00     0.275 C 
BRANCH  21  22
HETATM   22  C           1     -19.846  -4.255  -7.913  0.00  0.00     0.046 C 
BRANCH  22  23
HETATM   23  C           1     -19.794  -5.265  -6.774  0.00  0.00    -0.020 C 
HETATM   24  C           1     -20.864  -6.326  -6.989  0.00  0.00     0.009 C 
HETATM   25  C           1     -20.044  -4.553  -5.452  0.00  0.00     0.009 C 
ENDBRANCH  22  23
ENDBRANCH  21  22
BRANCH  21  26
HETATM   26  N           1     -19.724  -4.894 -10.293  0.00  0.00    -0.066 N 
HETATM   27  H           1     -20.045  -4.181 -10.987  0.00  0.00     0.275 HD
HETATM   28  H           1     -18.740  -4.686 -10.009  0.00  0.00     0.275 HD
HETATM   29  H           1     -19.768  -5.844 -10.725  0.00  0.00     0.275 HD
ENDBRANCH  21  26
ENDBRANCH  18  21
ENDBRANCH   1  17
TORSDOF 10
ENDMDL
MODEL 3
REMARK VINA RESULT:      -6.6      1.476      2.020
REMARK  10 active torsions:
REMARK  status: ('A' for Active; 'I' for Inactive)
REMARK    1  A    between atoms: C_5  and  C_25 
REMARK    2  A    between atoms: C_5  and  C_14 
REMARK    3  A    between atoms: C_6  and  C_14 
REMARK    4  A    between atoms: N_7  and  C_14 
REMARK       I    between atoms: N_7  and  C_8 
REMARK    5  A    between atoms: C_8  and  C_9 
REMARK    6  A    between atoms: C_9  and  C_27 
REMARK    7  A    between atoms: C_9  and  N_21 
REMARK       I    between atoms: N_12  and  C_15 
REMARK    8  A    between atoms: N_12  and  C_29 
REMARK       I    between atoms: N_13  and  C_15 
REMARK    9  A    between atoms: C_25  and  C_29 
REMARK   10  A    between atoms: C_26  and  C_27 
ROOT
HETATM    1  C           1     -22.841  -3.932  -8.845  0.00  0.00     0.185 C 
ENDROOT
BRANCH   1   2
HETATM    2  C           1     -21.837  -4.628  -9.755  0.00  0.00     0.038 C 
BRANCH   2   3
HETATM    3  C           1     -21.129  -3.591 -10.617  0.00  0.00     0.023 C 
BRANCH   3   4
HETATM    4  C           1     -21.461  -3.838 -12.084  0.00  0.00     0.138 C 
BRANCH   4   5
HETATM    5  N           1     -22.233  -2.703 -12.610  0.00  0.00    -0.227 N 
HETATM    6  H           1     -21.838  -1.732 -12.562  0.00  0.00     0.177 HD
HETATM    7  C           1     -23.376  -2.896 -13.119  0.00  0.00     0.665 C 
HETATM    8  N           1     -23.854  -4.068 -13.176  0.00  0.00    -0.235 N 
HETATM    9  N           1     -24.059  -1.893 -13.584  0.00  0.00    -0.235 N 
HETATM   10  H           1     -23.302  -4.878 -12.801  0.00  0.00     0.174 HD
HETATM   11  H           1     -24.801  -4.228 -13.599  0.00  0.00     0.174 HD
HETATM   12  H           1     -23.664  -0.926 -13.537  0.00  0.00     0.174 HD
HETATM   13  H           1     -25.001  -2.053 -14.005  0.00  0.00     0.174 HD
ENDBRANCH   4   5
ENDBRANCH   3   4
ENDBRANCH   2   3
ENDBRANCH   1   2
BRANCH   1  14
HETATM   14  C           1     -24.166  -3.812  -9.558  0.00  0.00     0.196 C 
HETATM   15  O           1     -24.847  -2.770  -9.438  0.00  0.00    -0.646 OA
HETATM   16  O           1     -24.581  -4.752 -10.269  0.00  0.00    -0.646 OA
ENDBRANCH   1  14
BRANCH   1  17
HETATM   17  N           1     -23.014  -4.710  -7.633  0.00  0.00    -0.345 N 
HETATM   18  C           1     -21.963  -4.877  -6.772  0.00  0.00     0.249 C 
HETATM   19  O           1     -20.893  -4.376  -7.020  0.00  0.00    -0.271 OA
HETATM   20  H           1     -23.911  -5.129  -7.425  0.00  0.00     0.163 HD
BRANCH  18  21
HETATM   21  C           1     -22.143  -5.686  -5.511  0.00  0.00     0.275 C 
BRANCH  21  22
HETATM   22  C           1     -21.326  -6.968  -5.609  0.00  0.00     0.046 C 
BRANCH  22  23
HETATM   23  C           1     -20.861  -7.381  -4.219  0.00  0.00    -0.020 C 
HETATM   24  C           1     -21.513  -8.704  -3.840  0.00  0.00     0.009 C 
HETATM   25  C           1     -21.259  -6.312  -3.211  0.00  0.00     0.009 C 
ENDBRANCH  22  23
ENDBRANCH  21  22
BRANCH  21  26
HETATM   26  N           1     -23.593  -6.031  -5.341  0.00  0.00    -0.066 N 
HETATM   27  H           1     -23.678  -6.946  -4.844  0.00  0.00     0.275 HD
HETATM   28  H           1     -24.064  -5.285  -4.779  0.00  0.00     0.275 HD
HETATM   29  H           1     -24.048  -6.100  -6.278  0.00  0.00     0.275 HD
ENDBRANCH  21  26
ENDBRANCH  18  21
ENDBRANCH   1  17
TORSDOF 10
ENDMDL
MODEL 4
REMARK VINA RESULT:      -6.6      2.539      3.432
REMARK  10 active torsions:
REMARK  status: ('A' for Active; 'I' for Inactive)
REMARK    1  A    between atoms: C_5  and  C_25 
REMARK    2  A    between atoms: C_5  and  C_14 
REMARK    3  A    between atoms: C_6  and  C_14 
REMARK    4  A    between atoms: N_7  and  C_14 
REMARK       I    between atoms: N_7  and  C_8 
REMARK    5  A    between atoms: C_8  and  C_9 
REMARK    6  A    between atoms: C_9  and  C_27 
REMARK    7  A    between atoms: C_9  and  N_21 
REMARK       I    between atoms: N_12  and  C_15 
REMARK    8  A    between atoms: N_12  and  C_29 
REMARK       I    between atoms: N_13  and  C_15 
REMARK    9  A    between atoms: C_25  and  C_29 
REMARK   10  A    between atoms: C_26  and  C_27 
ROOT
HETATM    1  C           1     -21.770  -4.822  -8.083  0.00  0.00     0.185 C 
ENDROOT
BRANCH   1   2
HETATM    2  C           1     -22.834  -3.760  -8.333  0.00  0.00     0.038 C 
BRANCH   2   3
HETATM    3  C           1     -23.954  -4.352  -9.178  0.00  0.00     0.023 C 
BRANCH   3   4
HETATM    4  C           1     -24.215  -3.451 -10.379  0.00  0.00     0.138 C 
BRANCH   4   5
HETATM    5  N           1     -22.956  -3.215 -11.098  0.00  0.00    -0.227 N 
HETATM    6  H           1     -22.228  -2.579 -10.688  0.00  0.00     0.177 HD
HETATM    7  C           1     -22.748  -3.777 -12.213  0.00  0.00     0.665 C 
HETATM    8  N           1     -23.626  -4.544 -12.709  0.00  0.00    -0.235 N 
HETATM    9  N           1     -21.634  -3.568 -12.850  0.00  0.00    -0.235 N 
HETATM   10  H           1     -24.526  -4.713 -12.195  0.00  0.00     0.174 HD
HETATM   11  H           1     -23.454  -5.010 -13.633  0.00  0.00     0.174 HD
HETATM   12  H           1     -20.910  -2.935 -12.441  0.00  0.00     0.174 HD
HETATM   13  H           1     -21.463  -4.032 -13.770  0.00  0.00     0.174 HD
ENDBRANCH   4   5
ENDBRANCH   3   4
ENDBRANCH   2   3
ENDBRANCH   1   2
BRANCH   1  14
HETATM   14  C           1     -20.481  -4.408  -8.748  0.00  0.00     0.196 C 
HETATM   15  O           1     -20.322  -4.596  -9.974  0.00  0.00    -0.646 OA
HETATM   16  O           1     -19.572  -3.876  -8.074  0.00  0.00    -0.646 OA
ENDBRANCH   1  14
BRANCH   1  17
HETATM   17  N           1     -21.554  -4.961  -6.655  0.00  0.00    -0.345 N 
HETATM   18  C           1     -21.213  -6.179  -6.131  0.00  0.00     0.249 C 
HETATM   19  O           1     -21.091  -7.137  -6.856  0.00  0.00    -0.271 OA
HETATM   20  H           1     -21.656  -4.159  -6.048  0.00  0.00     0.163 HD
BRANCH  18  21
HETATM   21  C           1     -20.988  -6.324  -4.646  0.00  0.00     0.275 C 
BRANCH  21  22
HETATM   22  C           1     -20.459  -7.721  -4.346  0.00  0.00     0.046 C 
BRANCH  22  23
HETATM   23  C           1     -21.193  -8.295  -3.142  0.00  0.00    -0.020 C 
HETATM   24  C           1     -20.247  -8.350  -1.950  0.00  0.00     0.009 C 
HETATM   25  C           1     -21.682  -9.700  -3.467  0.00  0.00     0.009 C 
ENDBRANCH  22  23
ENDBRANCH  21  22
BRANCH  21  26
HETATM   26  N           1     -22.284  -6.115  -3.922  0.00  0.00    -0.066 N 
HETATM   27  H           1     -22.093  -5.928  -2.912  0.00  0.00     0.275 HD
HETATM   28  H           1     -22.788  -5.299  -4.338  0.00  0.00     0.275 HD
HETATM   29  H           1     -22.876  -6.971  -4.010  0.00  0.00     0.275 HD
ENDBRANCH  21  26
ENDBRANCH  18  21
ENDBRANCH   1  17
TORSDOF 10
ENDMDL
MODEL 5
REMARK VINA RESULT:      -6.5      9.723     12.173
REMARK  10 active torsions:
REMARK  status: ('A' for Active; 'I' for Inactive)
REMARK    1  A    between atoms: C_5  and  C_25 
REMARK    2  A    between atoms: C_5  and  C_14 
REMARK    3  A    between atoms: C_6  and  C_14 
REMARK    4  A    between atoms: N_7  and  C_14 
REMARK       I    between atoms: N_7  and  C_8 
REMARK    5  A    between atoms: C_8  and  C_9 
REMARK    6  A    between atoms: C_9  and  C_27 
REMARK    7  A    between atoms: C_9  and  N_21 
REMARK       I    between atoms: N_12  and  C_15 
REMARK    8  A    between atoms: N_12  and  C_29 
REMARK       I    between atoms: N_13  and  C_15 
REMARK    9  A    between atoms: C_25  and  C_29 
REMARK   10  A    between atoms: C_26  and  C_27 
ROOT
HETATM    1  C           1     -28.422  -6.614 -17.075  0.00  0.00     0.185 C 
ENDROOT
BRANCH   1   2
HETATM    2  C           1     -29.418  -7.718 -17.408  0.00  0.00     0.038 C 
BRANCH   2   3
HETATM    3  C           1     -30.639  -7.113 -18.087  0.00  0.00     0.023 C 
BRANCH   3   4
HETATM    4  C           1     -30.776  -5.651 -17.679  0.00  0.00     0.138 C 
BRANCH   4   5
HETATM    5  N           1     -31.957  -5.489 -16.820  0.00  0.00    -0.227 N 
HETATM    6  H           1     -32.319  -6.304 -16.265  0.00  0.00     0.177 HD
HETATM    7  C           1     -32.538  -4.367 -16.748  0.00  0.00     0.665 C 
HETATM    8  N           1     -32.102  -3.384 -17.416  0.00  0.00    -0.235 N 
HETATM    9  N           1     -33.583  -4.224 -15.987  0.00  0.00    -0.235 N 
HETATM   10  H           1     -31.259  -3.500 -18.031  0.00  0.00     0.174 HD
HETATM   11  H           1     -32.584  -2.453 -17.357  0.00  0.00     0.174 HD
HETATM   12  H           1     -33.943  -5.035 -15.436  0.00  0.00     0.174 HD
HETATM   13  H           1     -34.062  -3.297 -15.928  0.00  0.00     0.174 HD
ENDBRANCH   4   5
ENDBRANCH   3   4
ENDBRANCH   2   3
ENDBRANCH   1   2
BRANCH   1  14
HETATM   14  C           1     -28.260  -6.518 -15.578  0.00  0.00     0.196 C 
HETATM   15  O           1     -27.756  -7.470 -14.942  0.00  0.00    -0.646 OA
HETATM   16  O           1     -28.628  -5.488 -14.973  0.00  0.00    -0.646 OA
ENDBRANCH   1  14
BRANCH   1  17
HETATM   17  N           1     -27.141  -6.921 -17.681  0.00  0.00    -0.345 N 
HETATM   18  C           1     -26.859  -6.483 -18.947  0.00  0.00     0.249 C 
HETATM   19  O           1     -27.678  -5.839 -19.560  0.00  0.00    -0.271 OA
HETATM   20  H           1     -26.455  -7.460 -17.167  0.00  0.00     0.163 HD
BRANCH  18  21
HETATM   21  C           1     -25.526  -6.803 -19.577  0.00  0.00     0.275 C 
BRANCH  21  22
HETATM   22  C           1     -25.706  -7.899 -20.619  0.00  0.00     0.046 C 
BRANCH  22  23
HETATM   23  C           1     -24.781  -7.635 -21.799  0.00  0.00    -0.020 C 
HETATM   24  C           1     -23.423  -8.269 -21.529  0.00  0.00     0.009 C 
HETATM   25  C           1     -24.611  -6.134 -21.987  0.00  0.00     0.009 C 
ENDBRANCH  22  23
ENDBRANCH  21  22
BRANCH  21  26
HETATM   26  N           1     -24.573  -7.272 -18.518  0.00  0.00    -0.066 N 
HETATM   27  H           1     -24.467  -6.529 -17.791  0.00  0.00     0.275 HD
HETATM   28  H           1     -24.945  -8.143 -18.076  0.00  0.00     0.275 HD
HETATM   29  H           1     -23.643  -7.471 -18.949  0.00  0.00     0.275 HD
ENDBRANCH  21  26
ENDBRANCH  18  21
ENDBRANCH   1  17
TORSDOF 10
ENDMDL
MODEL 6
REMARK VINA RESULT:      -6.4      3.966      9.606
REMARK  10 active torsions:
REMARK  status: ('A' for Active; 'I' for Inactive)
REMARK    1  A    between atoms: C_5  and  C_25 
REMARK    2  A    between atoms: C_5  and  C_14 
REMARK    3  A    between atoms: C_6  and  C_14 
REMARK    4  A    between atoms: N_7  and  C_14 
REMARK       I    between atoms: N_7  and  C_8 
REMARK    5  A    between atoms: C_8  and  C_9 
REMARK    6  A    between atoms: C_9  and  C_27 
REMARK    7  A    between atoms: C_9  and  N_21 
REMARK       I    between atoms: N_12  and  C_15 
REMARK    8  A    between atoms: N_12  and  C_29 
REMARK       I    between atoms: N_13  and  C_15 
REMARK    9  A    between atoms: C_25  and  C_29 
REMARK   10  A    between atoms: C_26  and  C_27 
ROOT
HETATM    1  C           1     -21.117  -6.694  -4.702  0.00  0.00     0.185 C 
ENDROOT
BRANCH   1   2
HETATM    2  C           1     -22.151  -6.716  -3.583  0.00  0.00     0.038 C 
BRANCH   2   3
HETATM    3  C           1     -21.575  -6.040  -2.346  0.00  0.00     0.023 C 
BRANCH   3   4
HETATM    4  C           1     -22.228  -6.621  -1.098  0.00  0.00     0.138 C 
BRANCH   4   5
HETATM    5  N           1     -22.085  -8.084  -1.105  0.00  0.00    -0.227 N 
HETATM    6  H           1     -21.450  -8.546  -1.802  0.00  0.00     0.177 HD
HETATM    7  C           1     -22.727  -8.787  -0.271  0.00  0.00     0.665 C 
HETATM    8  N           1     -23.493  -8.229   0.569  0.00  0.00    -0.235 N 
HETATM    9  N           1     -22.601 -10.080  -0.278  0.00  0.00    -0.235 N 
HETATM   10  H           1     -23.595  -7.184   0.574  0.00  0.00     0.174 HD
HETATM   11  H           1     -24.026  -8.812   1.261  0.00  0.00     0.174 HD
HETATM   12  H           1     -21.970 -10.540  -0.971  0.00  0.00     0.174 HD
HETATM   13  H           1     -23.132 -10.660   0.411  0.00  0.00     0.174 HD
ENDBRANCH   4   5
ENDBRANCH   3   4
ENDBRANCH   2   3
ENDBRANCH   1   2
BRANCH   1  14
HETATM   14  C           1     -20.448  -8.043  -4.794  0.00  0.00     0.196 C 
HETATM   15  O           1     -20.712  -8.931  -3.953  0.00  0.00    -0.646 OA
HETATM   16  O           1     -19.631  -8.275  -5.711  0.00  0.00    -0.646 OA
ENDBRANCH   1  14
BRANCH   1  17
HETATM   17  N           1     -21.775  -6.395  -5.960  0.00  0.00    -0.345 N 
HETATM   18  C           1     -21.560  -5.191  -6.575  0.00  0.00     0.249 C 
HETATM   19  O           1     -20.822  -4.378  -6.071  0.00  0.00    -0.271 OA
HETATM   20  H           1     -22.392  -7.077  -6.382  0.00  0.00     0.163 HD
BRANCH  18  21
HETATM   21  C           1     -22.244  -4.880  -7.884  0.00  0.00     0.275 C 
BRANCH  21  22
HETATM   22  C           1     -21.339  -3.997  -8.733  0.00  0.00     0.046 C 
BRANCH  22  23
HETATM   23  C           1     -21.525  -4.345 -10.203  0.00  0.00    -0.020 C 
HETATM   24  C           1     -20.170  -4.341 -10.900  0.00  0.00     0.009 C 
HETATM   25  C           1     -22.435  -3.315 -10.859  0.00  0.00     0.009 C 
ENDBRANCH  22  23
ENDBRANCH  21  22
BRANCH  21  26
HETATM   26  N           1     -23.533  -4.163  -7.615  0.00  0.00    -0.066 N 
HETATM   27  H           1     -24.203  -4.344  -8.397  0.00  0.00     0.275 HD
HETATM   28  H           1     -23.944  -4.508  -6.717  0.00  0.00     0.275 HD
HETATM   29  H           1     -23.354  -3.136  -7.543  0.00  0.00     0.275 HD
ENDBRANCH  21  26
ENDBRANCH  18  21
ENDBRANCH   1  17
TORSDOF 10
ENDMDL
MODEL 7
REMARK VINA RESULT:      -6.1      5.487      7.664
REMARK  10 active torsions:
REMARK  status: ('A' for Active; 'I' for Inactive)
REMARK    1  A    between atoms: C_5  and  C_25 
REMARK    2  A    between atoms: C_5  and  C_14 
REMARK    3  A    between atoms: C_6  and  C_14 
REMARK    4  A    between atoms: N_7  and  C_14 
REMARK       I    between atoms: N_7  and  C_8 
REMARK    5  A    between atoms: C_8  and  C_9 
REMARK    6  A    between atoms: C_9  and  C_27 
REMARK    7  A    between atoms: C_9  and  N_21 
REMARK       I    between atoms: N_12  and  C_15 
REMARK    8  A    between atoms: N_12  and  C_29 
REMARK       I    between atoms: N_13  and  C_15 
REMARK    9  A    between atoms: C_25  and  C_29 
REMARK   10  A    between atoms: C_26  and  C_27 
ROOT
HETATM    1  C           1     -20.927  -9.287  -4.801  0.00  0.00     0.185 C 
ENDROOT
BRANCH   1   2
HETATM    2  C           1     -21.301  -7.982  -5.493  0.00  0.00     0.038 C 
BRANCH   2   3
HETATM    3  C           1     -20.960  -6.809  -4.583  0.00  0.00     0.023 C 
BRANCH   3   4
HETATM    4  C           1     -20.942  -5.521  -5.397  0.00  0.00     0.138 C 
BRANCH   4   5
HETATM    5  N           1     -22.234  -5.353  -6.078  0.00  0.00    -0.227 N 
HETATM    6  H           1     -23.037  -5.988  -5.845  0.00  0.00     0.177 HD
HETATM    7  C           1     -22.379  -4.443  -6.945  0.00  0.00     0.665 C 
HETATM    8  N           1     -21.410  -3.677  -7.227  0.00  0.00    -0.235 N 
HETATM    9  N           1     -23.521  -4.294  -7.547  0.00  0.00    -0.235 N 
HETATM   10  H           1     -20.488  -3.797  -6.740  0.00  0.00     0.174 HD
HETATM   11  H           1     -21.530  -2.922  -7.946  0.00  0.00     0.174 HD
HETATM   12  H           1     -24.320  -4.926  -7.315  0.00  0.00     0.174 HD
HETATM   13  H           1     -23.640  -3.542  -8.263  0.00  0.00     0.174 HD
ENDBRANCH   4   5
ENDBRANCH   3   4
ENDBRANCH   2   3
ENDBRANCH   1   2
BRANCH   1  14
HETATM   14  C           1     -19.500  -9.644  -5.139  0.00  0.00     0.196 C 
HETATM   15  O           1     -18.570  -9.280  -4.385  0.00  0.00    -0.646 OA
HETATM   16  O           1     -19.247 -10.304  -6.169  0.00  0.00    -0.646 OA
ENDBRANCH   1  14
BRANCH   1  17
HETATM   17  N           1     -21.058  -9.126  -3.365  0.00  0.00    -0.345 N 
HETATM   18  C           1     -21.854  -9.981  -2.651  0.00  0.00     0.249 C 
HETATM   19  O           1     -22.447 -10.869  -3.216  0.00  0.00    -0.271 OA
HETATM   20  H           1     -20.560  -8.383  -2.892  0.00  0.00     0.163 HD
BRANCH  18  21
HETATM   21  C           1     -21.990  -9.814  -1.158  0.00  0.00     0.275 C 
BRANCH  21  22
HETATM   22  C           1     -21.109  -8.663  -0.692  0.00  0.00     0.046 C 
BRANCH  22  23
HETATM   23  C           1     -21.981  -7.557  -0.114  0.00  0.00    -0.020 C 
HETATM   24  C           1     -23.249  -8.165   0.471  0.00  0.00     0.009 C 
HETATM   25  C           1     -22.353  -6.574  -1.216  0.00  0.00     0.009 C 
ENDBRANCH  22  23
ENDBRANCH  21  22
BRANCH  21  26
HETATM   26  N           1     -21.562 -11.078  -0.473  0.00  0.00    -0.066 N 
HETATM   27  H           1     -21.535 -10.923   0.560  0.00  0.00     0.275 HD
HETATM   28  H           1     -22.244 -11.841  -0.693  0.00  0.00     0.275 HD
HETATM   29  H           1     -20.613 -11.354  -0.808  0.00  0.00     0.275 HD
ENDBRANCH  21  26
ENDBRANCH  18  21
ENDBRANCH   1  17
TORSDOF 10
ENDMDL
MODEL 8
REMARK VINA RESULT:      -5.9      8.981     11.884
REMARK  10 active torsions:
REMARK  status: ('A' for Active; 'I' for Inactive)
REMARK    1  A    between atoms: C_5  and  C_25 
REMARK    2  A    between atoms: C_5  and  C_14 
REMARK    3  A    between atoms: C_6  and  C_14 
REMARK    4  A    between atoms: N_7  and  C_14 
REMARK       I    between atoms: N_7  and  C_8 
REMARK    5  A    between atoms: C_8  and  C_9 
REMARK    6  A    between atoms: C_9  and  C_27 
REMARK    7  A    between atoms: C_9  and  N_21 
REMARK       I    between atoms: N_12  and  C_15 
REMARK    8  A    between atoms: N_12  and  C_29 
REMARK       I    between atoms: N_13  and  C_15 
REMARK    9  A    between atoms: C_25  and  C_29 
REMARK   10  A    between atoms: C_26  and  C_27 
ROOT
HETATM    1  C           1     -26.872  -6.281 -16.849  0.00  0.00     0.185 C 
ENDROOT
BRANCH   1   2
HETATM    2  C           1     -28.045  -7.168 -16.453  0.00  0.00     0.038 C 
BRANCH   2   3
HETATM    3  C           1     -29.155  -6.310 -15.861  0.00  0.00     0.023 C 
BRANCH   3   4
HETATM    4  C           1     -30.355  -6.310 -16.800  0.00  0.00     0.138 C 
BRANCH   4   5
HETATM    5  N           1     -30.647  -4.933 -17.223  0.00  0.00    -0.227 N 
HETATM    6  H           1     -29.880  -4.327 -17.607  0.00  0.00     0.177 HD
HETATM    7  C           1     -31.823  -4.476 -17.126  0.00  0.00     0.665 C 
HETATM    8  N           1     -32.749  -5.206 -16.663  0.00  0.00    -0.235 N 
HETATM    9  N           1     -32.081  -3.259 -17.500  0.00  0.00    -0.235 N 
HETATM   10  H           1     -32.541  -6.190 -16.361  0.00  0.00     0.174 HD
HETATM   11  H           1     -33.725  -4.828 -16.582  0.00  0.00     0.174 HD
HETATM   12  H           1     -31.318  -2.657 -17.882  0.00  0.00     0.174 HD
HETATM   13  H           1     -33.053  -2.882 -17.419  0.00  0.00     0.174 HD
ENDBRANCH   4   5
ENDBRANCH   3   4
ENDBRANCH   2   3
ENDBRANCH   1   2
BRANCH   1  14
HETATM   14  C           1     -25.741  -6.476 -15.869  0.00  0.00     0.196 C 
HETATM   15  O           1     -25.076  -5.491 -15.478  0.00  0.00    -0.646 OA
HETATM   16  O           1     -25.470  -7.621 -15.446  0.00  0.00    -0.646 OA
ENDBRANCH   1  14
BRANCH   1  17
HETATM   17  N           1     -26.424  -6.640 -18.181  0.00  0.00    -0.345 N 
HETATM   18  C           1     -27.102  -6.180 -19.278  0.00  0.00     0.249 C 
HETATM   19  O           1     -28.073  -5.476 -19.137  0.00  0.00    -0.271 OA
HETATM   20  H           1     -25.610  -7.229 -18.299  0.00  0.00     0.163 HD
BRANCH  18  21
HETATM   21  C           1     -26.636  -6.554 -20.663  0.00  0.00     0.275 C 
BRANCH  21  22
HETATM   22  C           1     -25.773  -7.807 -20.589  0.00  0.00     0.046 C 
BRANCH  22  23
HETATM   23  C           1     -24.341  -7.462 -20.976  0.00  0.00    -0.020 C 
HETATM   24  C           1     -23.970  -8.199 -22.255  0.00  0.00     0.009 C 
HETATM   25  C           1     -23.397  -7.881 -19.857  0.00  0.00     0.009 C 
ENDBRANCH  22  23
ENDBRANCH  21  22
BRANCH  21  26
HETATM   26  N           1     -25.831  -5.427 -21.240  0.00  0.00    -0.066 N 
HETATM   27  H           1     -25.242  -5.786 -22.026  0.00  0.00     0.275 HD
HETATM   28  H           1     -26.477  -4.687 -21.599  0.00  0.00     0.275 HD
HETATM   29  H           1     -25.215  -5.023 -20.500  0.00  0.00     0.275 HD
ENDBRANCH  21  26
ENDBRANCH  18  21
ENDBRANCH   1  17
TORSDOF 10
ENDMDL
MODEL 9
REMARK VINA RESULT:      -5.9      4.857      9.846
REMARK  10 active torsions:
REMARK  status: ('A' for Active; 'I' for Inactive)
REMARK    1  A    between atoms: C_5  and  C_25 
REMARK    2  A    between atoms: C_5  and  C_14 
REMARK    3  A    between atoms: C_6  and  C_14 
REMARK    4  A    between atoms: N_7  and  C_14 
REMARK       I    between atoms: N_7  and  C_8 
REMARK    5  A    between atoms: C_8  and  C_9 
REMARK    6  A    between atoms: C_9  and  C_27 
REMARK    7  A    between atoms: C_9  and  N_21 
REMARK       I    between atoms: N_12  and  C_15 
REMARK    8  A    between atoms: N_12  and  C_29 
REMARK       I    between atoms: N_13  and  C_15 
REMARK    9  A    between atoms: C_25  and  C_29 
REMARK   10  A    between atoms: C_26  and  C_27 
ROOT
HETATM    1  C           1     -21.624  -7.493  -3.826  0.00  0.00     0.185 C 
ENDROOT
BRANCH   1   2
HETATM    2  C           1     -20.873  -8.818  -3.832  0.00  0.00     0.038 C 
BRANCH   2   3
HETATM    3  C           1     -21.871  -9.967  -3.879  0.00  0.00     0.023 C 
BRANCH   3   4
HETATM    4  C           1     -21.690 -10.848  -2.648  0.00  0.00     0.138 C 
BRANCH   4   5
HETATM    5  N           1     -22.945 -10.886  -1.883  0.00  0.00    -0.227 N 
HETATM    6  H           1     -23.816 -11.274  -2.323  0.00  0.00     0.177 HD
HETATM    7  C           1     -22.975 -10.452  -0.695  0.00  0.00     0.665 C 
HETATM    8  N           1     -21.924  -9.984  -0.165  0.00  0.00    -0.235 N 
HETATM    9  N           1     -24.085 -10.485  -0.019  0.00  0.00    -0.235 N 
HETATM   10  H           1     -21.028  -9.957  -0.711  0.00  0.00     0.174 HD
HETATM   11  H           1     -21.950  -9.623   0.821  0.00  0.00     0.174 HD
HETATM   12  H           1     -24.951 -10.871  -0.456  0.00  0.00     0.174 HD
HETATM   13  H           1     -24.109 -10.126   0.962  0.00  0.00     0.174 HD
ENDBRANCH   4   5
ENDBRANCH   3   4
ENDBRANCH   2   3
ENDBRANCH   1   2
BRANCH   1  14
HETATM   14  C           1     -21.644  -6.932  -2.425  0.00  0.00     0.196 C 
HETATM   15  O           1     -22.356  -5.939  -2.160  0.00  0.00    -0.646 OA
HETATM   16  O           1     -20.951  -7.461  -1.529  0.00  0.00    -0.646 OA
ENDBRANCH   1  14
BRANCH   1  17
HETATM   17  N           1     -20.957  -6.557  -4.711  0.00  0.00    -0.345 N 
HETATM   18  C           1     -21.694  -5.764  -5.548  0.00  0.00     0.249 C 
HETATM   19  O           1     -22.899  -5.843  -5.551  0.00  0.00    -0.271 OA
HETATM   20  H           1     -19.947  -6.490  -4.708  0.00  0.00     0.163 HD
BRANCH  18  21
HETATM   21  C           1     -21.001  -4.790  -6.469  0.00  0.00     0.275 C 
BRANCH  21  22
HETATM   22  C           1     -21.087  -5.296  -7.903  0.00  0.00     0.046 C 
BRANCH  22  23
HETATM   23  C           1     -21.297  -4.118  -8.846  0.00  0.00    -0.020 C 
HETATM   24  C           1     -22.775  -4.003  -9.191  0.00  0.00     0.009 C 
HETATM   25  C           1     -20.494  -4.339 -10.121  0.00  0.00     0.009 C 
ENDBRANCH  22  23
ENDBRANCH  21  22
BRANCH  21  26
HETATM   26  N           1     -19.560  -4.664  -6.070  0.00  0.00    -0.066 N 
HETATM   27  H           1     -19.049  -4.096  -6.783  0.00  0.00     0.275 HD
HETATM   28  H           1     -19.497  -4.192  -5.139  0.00  0.00     0.275 HD
HETATM   29  H           1     -19.131  -5.613  -6.008  0.00  0.00     0.275 HD
ENDBRANCH  21  26
ENDBRANCH  18  21
ENDBRANCH   1  17
TORSDOF 10
ENDMDL
