MODEL 1
REMARK VINA RESULT:      -6.9      0.000      0.000
REMARK  15 active torsions:
REMARK  status: ('A' for Active; 'I' for Inactive)
REMARK    1  A    between atoms: C_2  and  C_4 
REMARK    2  A    between atoms: C_4  and  C_5 
REMARK    3  A    between atoms: C_5  and  C_6 
REMARK    4  A    between atoms: C_5  and  N_9 
REMARK    5  A    between atoms: N_9  and  C_10 
REMARK    6  A    between atoms: C_10  and  C_11 
REMARK    7  A    between atoms: C_11  and  C_12 
REMARK    8  A    between atoms: C_12  and  C_13 
REMARK    9  A    between atoms: C_12  and  N_16 
REMARK       I    between atoms: N_16  and  C_17 
REMARK   10  A    between atoms: C_17  and  C_18 
REMARK   11  A    between atoms: C_18  and  C_19 
REMARK   12  A    between atoms: C_18  and  N_26 
REMARK   13  A    between atoms: C_19  and  C_20 
REMARK   14  A    between atoms: C_20  and  C_21 
REMARK   15  A    between atoms: C_21  and  N_22 
REMARK       I    between atoms: N_22  and  C_23 
REMARK       I    between atoms: C_23  and  N_24 
ROOT
HETATM    1  N           1     -21.032  -5.425  -5.053  0.00  0.00    -0.345 N 
HETATM    2  C           1     -21.484  -6.524  -4.374  0.00  0.00     0.249 C 
HETATM    3  O           1     -22.008  -7.432  -4.974  0.00  0.00    -0.271 OA
HETATM    4  H           1     -20.592  -4.665  -4.551  0.00  0.00     0.163 HD
ENDROOT
BRANCH   2   5
HETATM    5  C           1     -21.325  -6.603  -2.875  0.00  0.00     0.274 C 
BRANCH   5   6
HETATM    6  C           1     -21.411  -8.057  -2.431  0.00  0.00     0.044 C 
BRANCH   6   7
HETATM    7  C           1     -20.022  -8.561  -2.065  0.00  0.00     0.023 C 
BRANCH   7   8
HETATM    8  C           1     -19.687  -9.785  -2.908  0.00  0.00     0.138 C 
BRANCH   8   9
HETATM    9  N           1     -18.773  -9.398  -3.992  0.00  0.00    -0.227 N 
HETATM   10  C           1     -19.146  -9.494  -5.199  0.00  0.00     0.665 C 
HETATM   11  N           1     -18.358  -9.161  -6.133  0.00  0.00    -0.235 N 
HETATM   12  N           1     -20.337  -9.934  -5.478  0.00  0.00    -0.235 N 
HETATM   13  H           1     -18.668  -9.239  -7.133  0.00  0.00     0.174 HD
HETATM   14  H           1     -17.396  -8.804  -5.907  0.00  0.00     0.174 HD
HETATM   15  H           1     -20.644 -10.013  -6.473  0.00  0.00     0.174 HD
HETATM   16  H           1     -20.986 -10.209  -4.707  0.00  0.00     0.174 HD
HETATM   17  H           1     -17.812  -9.042  -3.767  0.00  0.00     0.177 HD
ENDBRANCH   8   9
ENDBRANCH   7   8
ENDBRANCH   6   7
ENDBRANCH   5   6
BRANCH   5  18
HETATM   18  N           1     -22.417  -5.814  -2.216  0.00  0.00    -0.067 N 
HETATM   19  H           1     -22.890  -5.212  -2.927  0.00  0.00     0.275 HD
HETATM   20  H           1     -23.113  -6.469  -1.795  0.00  0.00     0.275 HD
HETATM   21  H           1     -22.008  -5.211  -1.467  0.00  0.00     0.275 HD
ENDBRANCH   5  18
ENDBRANCH   2   5
BRANCH   1  22
HETATM   22  C           1     -21.183  -5.350  -6.493  0.00  0.00     0.187 C 
BRANCH  22  23
HETATM   23  C           1     -21.726  -3.979  -6.875  0.00  0.00     0.066 C 
BRANCH  23  24
HETATM   24  C           1     -22.982  -4.147  -7.721  0.00  0.00     0.273 C 
BRANCH  24  25
HETATM   25  N           1     -22.794  -3.502  -8.992  0.00  0.00     0.099 N 
HETATM   26  H           1     -22.055  -2.803  -8.914  0.00  0.00     0.317 HD
BRANCH  25  27
HETATM   27  C           1     -22.401  -4.511  -9.939  0.00  0.00     0.330 C 
BRANCH  27  28
HETATM   28  C           1     -23.517  -4.715 -10.955  0.00  0.00     0.160 C 
BRANCH  28  29
HETATM   29  C           1     -24.385  -3.481 -11.005  0.00  0.00     0.175 C 
HETATM   30  O           1     -25.333  -3.350 -10.202  0.00  0.00    -0.648 OA
HETATM   31  O           1     -24.154  -2.588 -11.850  0.00  0.00    -0.648 OA
ENDBRANCH  28  29
ENDBRANCH  27  28
BRANCH  27  32
HETATM   32  C           1     -21.146  -4.068 -10.652  0.00  0.00     0.207 C 
HETATM   33  O           1     -21.104  -2.949 -11.208  0.00  0.00    -0.646 OA
HETATM   34  O           1     -20.149  -4.821 -10.687  0.00  0.00    -0.646 OA
ENDBRANCH  27  32
ENDBRANCH  25  27
ENDBRANCH  24  25
ENDBRANCH  23  24
ENDBRANCH  22  23
BRANCH  22  35
HETATM   35  C           1     -19.842  -5.562  -7.151  0.00  0.00     0.196 C 
HETATM   36  O           1     -19.383  -6.717  -7.276  0.00  0.00    -0.646 OA
HETATM   37  O           1     -19.191  -4.582  -7.573  0.00  0.00    -0.646 OA
ENDBRANCH  22  35
ENDBRANCH   1  22
TORSDOF 15
ENDMDL
MODEL 2
REMARK VINA RESULT:      -6.8      2.533      4.814
REMARK  15 active torsions:
REMARK  status: ('A' for Active; 'I' for Inactive)
REMARK    1  A    between atoms: C_2  and  C_4 
REMARK    2  A    between atoms: C_4  and  C_5 
REMARK    3  A    between atoms: C_5  and  C_6 
REMARK    4  A    between atoms: C_5  and  N_9 
REMARK    5  A    between atoms: N_9  and  C_10 
REMARK    6  A    between atoms: C_10  and  C_11 
REMARK    7  A    between atoms: C_11  and  C_12 
REMARK    8  A    between atoms: C_12  and  C_13 
REMARK    9  A    between atoms: C_12  and  N_16 
REMARK       I    between atoms: N_16  and  C_17 
REMARK   10  A    between atoms: C_17  and  C_18 
REMARK   11  A    between atoms: C_18  and  C_19 
REMARK   12  A    between atoms: C_18  and  N_26 
REMARK   13  A    between atoms: C_19  and  C_20 
REMARK   14  A    between atoms: C_20  and  C_21 
REMARK   15  A    between atoms: C_21  and  N_22 
REMARK       I    between atoms: N_22  and  C_23 
REMARK       I    between atoms: C_23  and  N_24 
ROOT
HETATM    1  N           1     -21.987  -4.544  -8.469  0.00  0.00    -0.345 N 
HETATM    2  C           1     -20.676  -4.436  -8.087  0.00  0.00     0.249 C 
HETATM    3  O           1     -19.949  -3.646  -8.641  0.00  0.00    -0.271 OA
HETATM    4  H           1     -22.595  -5.205  -8.004  0.00  0.00     0.163 HD
ENDROOT
BRANCH   2   5
HETATM    5  C           1     -20.140  -5.302  -6.974  0.00  0.00     0.274 C 
BRANCH   5   6
HETATM    6  C           1     -21.067  -6.493  -6.766  0.00  0.00     0.044 C 
BRANCH   6   7
HETATM    7  C           1     -20.660  -7.241  -5.504  0.00  0.00     0.023 C 
BRANCH   7   8
HETATM    8  C           1     -21.898  -7.547  -4.673  0.00  0.00     0.138 C 
BRANCH   8   9
HETATM    9  N           1     -22.163  -6.427  -3.757  0.00  0.00    -0.227 N 
HETATM   10  C           1     -21.987  -6.573  -2.512  0.00  0.00     0.665 C 
HETATM   11  N           1     -22.215  -5.609  -1.723  0.00  0.00    -0.235 N 
HETATM   12  N           1     -21.572  -7.713  -2.043  0.00  0.00    -0.235 N 
HETATM   13  H           1     -22.068  -5.730  -0.691  0.00  0.00     0.174 HD
HETATM   14  H           1     -22.549  -4.688  -2.102  0.00  0.00     0.174 HD
HETATM   15  H           1     -21.427  -7.833  -1.016  0.00  0.00     0.174 HD
HETATM   16  H           1     -21.384  -8.508  -2.694  0.00  0.00     0.174 HD
HETATM   17  H           1     -22.497  -5.507  -4.135  0.00  0.00     0.177 HD
ENDBRANCH   8   9
ENDBRANCH   7   8
ENDBRANCH   6   7
ENDBRANCH   5   6
BRANCH   5  18
HETATM   18  N           1     -20.067  -4.500  -5.709  0.00  0.00    -0.067 N 
HETATM   19  H           1     -19.518  -3.628  -5.880  0.00  0.00     0.275 HD
HETATM   20  H           1     -21.033  -4.249  -5.400  0.00  0.00     0.275 HD
HETATM   21  H           1     -19.600  -5.065  -4.965  0.00  0.00     0.275 HD
ENDBRANCH   5  18
ENDBRANCH   2   5
BRANCH   1  22
HETATM   22  C           1     -22.502  -3.711  -9.537  0.00  0.00     0.187 C 
BRANCH  22  23
HETATM   23  C           1     -21.889  -4.148 -10.861  0.00  0.00     0.066 C 
BRANCH  23  24
HETATM   24  C           1     -21.716  -2.935 -11.766  0.00  0.00     0.273 C 
BRANCH  24  25
HETATM   25  N           1     -22.068  -3.289 -13.115  0.00  0.00     0.099 N 
HETATM   26  H           1     -22.286  -4.285 -13.160  0.00  0.00     0.317 HD
BRANCH  25  27
HETATM   27  C           1     -23.233  -2.527 -13.477  0.00  0.00     0.330 C 
BRANCH  27  28
HETATM   28  C           1     -23.139  -2.123 -14.942  0.00  0.00     0.160 C 
BRANCH  28  29
HETATM   29  C           1     -23.840  -0.801 -15.146  0.00  0.00     0.175 C 
HETATM   30  O           1     -23.233   0.152 -15.679  0.00  0.00    -0.648 OA
HETATM   31  O           1     -25.027  -0.660 -14.780  0.00  0.00    -0.648 OA
ENDBRANCH  28  29
ENDBRANCH  27  28
BRANCH  27  32
HETATM   32  C           1     -24.468  -3.367 -13.264  0.00  0.00     0.207 C 
HETATM   33  O           1     -24.553  -4.499 -13.788  0.00  0.00    -0.646 OA
HETATM   34  O           1     -25.408  -2.931 -12.564  0.00  0.00    -0.646 OA
ENDBRANCH  27  32
ENDBRANCH  25  27
ENDBRANCH  24  25
ENDBRANCH  23  24
ENDBRANCH  22  23
BRANCH  22  35
HETATM   35  C           1     -24.002  -3.853  -9.606  0.00  0.00     0.196 C 
HETATM   36  O           1     -24.512  -4.937  -9.964  0.00  0.00    -0.646 OA
HETATM   37  O           1     -24.737  -2.888  -9.305  0.00  0.00    -0.646 OA
ENDBRANCH  22  35
ENDBRANCH   1  22
TORSDOF 15
ENDMDL
MODEL 3
REMARK VINA RESULT:      -6.6      2.328      4.277
REMARK  15 active torsions:
REMARK  status: ('A' for Active; 'I' for Inactive)
REMARK    1  A    between atoms: C_2  and  C_4 
REMARK    2  A    between atoms: C_4  and  C_5 
REMARK    3  A    between atoms: C_5  and  C_6 
REMARK    4  A    between atoms: C_5  and  N_9 
REMARK    5  A    between atoms: N_9  and  C_10 
REMARK    6  A    between atoms: C_10  and  C_11 
REMARK    7  A    between atoms: C_11  and  C_12 
REMARK    8  A    between atoms: C_12  and  C_13 
REMARK    9  A    between atoms: C_12  and  N_16 
REMARK       I    between atoms: N_16  and  C_17 
REMARK   10  A    between atoms: C_17  and  C_18 
REMARK   11  A    between atoms: C_18  and  C_19 
REMARK   12  A    between atoms: C_18  and  N_26 
REMARK   13  A    between atoms: C_19  and  C_20 
REMARK   14  A    between atoms: C_20  and  C_21 
REMARK   15  A    between atoms: C_21  and  N_22 
REMARK       I    between atoms: N_22  and  C_23 
REMARK       I    between atoms: C_23  and  N_24 
ROOT
HETATM    1  N           1     -22.197  -4.759  -8.456  0.00  0.00    -0.345 N 
HETATM    2  C           1     -21.157  -4.462  -7.615  0.00  0.00     0.249 C 
HETATM    3  O           1     -20.571  -3.411  -7.727  0.00  0.00    -0.271 OA
HETATM    4  H           1     -22.687  -5.638  -8.362  0.00  0.00     0.163 HD
ENDROOT
BRANCH   2   5
HETATM    5  C           1     -20.746  -5.446  -6.548  0.00  0.00     0.274 C 
BRANCH   5   6
HETATM    6  C           1     -21.989  -6.055  -5.912  0.00  0.00     0.044 C 
BRANCH   6   7
HETATM    7  C           1     -21.735  -6.299  -4.430  0.00  0.00     0.023 C 
BRANCH   7   8
HETATM    8  C           1     -21.663  -7.798  -4.168  0.00  0.00     0.138 C 
BRANCH   8   9
HETATM    9  N           1     -20.292  -8.163  -3.783  0.00  0.00    -0.227 N 
HETATM   10  C           1     -19.591  -8.885  -4.551  0.00  0.00     0.665 C 
HETATM   11  N           1     -18.410  -9.200  -4.220  0.00  0.00    -0.235 N 
HETATM   12  N           1     -20.083  -9.304  -5.679  0.00  0.00    -0.235 N 
HETATM   13  H           1     -17.828  -9.798  -4.856  0.00  0.00     0.174 HD
HETATM   14  H           1     -18.011  -8.861  -3.309  0.00  0.00     0.174 HD
HETATM   15  H           1     -19.504  -9.900  -6.312  0.00  0.00     0.174 HD
HETATM   16  H           1     -21.058  -9.044  -5.952  0.00  0.00     0.174 HD
HETATM   17  H           1     -19.894  -7.824  -2.873  0.00  0.00     0.177 HD
ENDBRANCH   8   9
ENDBRANCH   7   8
ENDBRANCH   6   7
ENDBRANCH   5   6
BRANCH   5  18
HETATM   18  N           1     -19.945  -4.736  -5.497  0.00  0.00    -0.067 N 
HETATM   19  H           1     -19.229  -5.388  -5.103  0.00  0.00     0.275 HD
HETATM   20  H           1     -19.466  -3.911  -5.923  0.00  0.00     0.275 HD
HETATM   21  H           1     -20.580  -4.415  -4.732  0.00  0.00     0.275 HD
ENDBRANCH   5  18
ENDBRANCH   2   5
BRANCH   1  22
HETATM   22  C           1     -22.593  -3.813  -9.481  0.00  0.00     0.187 C 
BRANCH  22  23
HETATM   23  C           1     -21.908  -4.171 -10.793  0.00  0.00     0.066 C 
BRANCH  23  24
HETATM   24  C           1     -21.787  -2.925 -11.660  0.00  0.00     0.273 C 
BRANCH  24  25
HETATM   25  N           1     -22.081  -3.260 -13.027  0.00  0.00     0.099 N 
HETATM   26  H           1     -22.289  -4.256 -13.096  0.00  0.00     0.317 HD
BRANCH  25  27
HETATM   27  C           1     -23.236  -2.501 -13.425  0.00  0.00     0.330 C 
BRANCH  27  28
HETATM   28  C           1     -23.109  -2.116 -14.892  0.00  0.00     0.160 C 
BRANCH  28  29
HETATM   29  C           1     -23.838  -0.817 -15.137  0.00  0.00     0.175 C 
HETATM   30  O           1     -25.027  -0.689 -14.772  0.00  0.00    -0.648 OA
HETATM   31  O           1     -23.252   0.131 -15.704  0.00  0.00    -0.648 OA
ENDBRANCH  28  29
ENDBRANCH  27  28
BRANCH  27  32
HETATM   32  C           1     -24.477  -3.337 -13.228  0.00  0.00     0.207 C 
HETATM   33  O           1     -25.471  -2.853 -12.642  0.00  0.00    -0.646 OA
HETATM   34  O           1     -24.513  -4.512 -13.651  0.00  0.00    -0.646 OA
ENDBRANCH  27  32
ENDBRANCH  25  27
ENDBRANCH  24  25
ENDBRANCH  23  24
ENDBRANCH  22  23
BRANCH  22  35
HETATM   35  C           1     -24.090  -3.867  -9.662  0.00  0.00     0.196 C 
HETATM   36  O           1     -24.784  -2.852  -9.439  0.00  0.00    -0.646 OA
HETATM   37  O           1     -24.637  -4.926 -10.037  0.00  0.00    -0.646 OA
ENDBRANCH  22  35
ENDBRANCH   1  22
TORSDOF 15
ENDMDL
MODEL 4
REMARK VINA RESULT:      -6.6      2.953      8.780
REMARK  15 active torsions:
REMARK  status: ('A' for Active; 'I' for Inactive)
REMARK    1  A    between atoms: C_2  and  C_4 
REMARK    2  A    between atoms: C_4  and  C_5 
REMARK    3  A    between atoms: C_5  and  C_6 
REMARK    4  A    between atoms: C_5  and  N_9 
REMARK    5  A    between atoms: N_9  and  C_10 
REMARK    6  A    between atoms: C_10  and  C_11 
REMARK    7  A    between atoms: C_11  and  C_12 
REMARK    8  A    between atoms: C_12  and  C_13 
REMARK    9  A    between atoms: C_12  and  N_16 
REMARK       I    between atoms: N_16  and  C_17 
REMARK   10  A    between atoms: C_17  and  C_18 
REMARK   11  A    between atoms: C_18  and  C_19 
REMARK   12  A    between atoms: C_18  and  N_26 
REMARK   13  A    between atoms: C_19  and  C_20 
REMARK   14  A    between atoms: C_20  and  C_21 
REMARK   15  A    between atoms: C_21  and  N_22 
REMARK       I    between atoms: N_22  and  C_23 
REMARK       I    between atoms: C_23  and  N_24 
ROOT
HETATM    1  N           1     -21.628  -6.012  -6.341  0.00  0.00    -0.345 N 
HETATM    2  C           1     -20.926  -5.142  -7.133  0.00  0.00     0.249 C 
HETATM    3  O           1     -19.789  -4.851  -6.850  0.00  0.00    -0.271 OA
HETATM    4  H           1     -22.580  -6.255  -6.578  0.00  0.00     0.163 HD
ENDROOT
BRANCH   2   5
HETATM    5  C           1     -21.574  -4.549  -8.360  0.00  0.00     0.274 C 
BRANCH   5   6
HETATM    6  C           1     -20.498  -4.170  -9.370  0.00  0.00     0.044 C 
BRANCH   6   7
HETATM    7  C           1     -20.983  -4.493 -10.776  0.00  0.00     0.023 C 
BRANCH   7   8
HETATM    8  C           1     -21.636  -3.260 -11.385  0.00  0.00     0.138 C 
BRANCH   8   9
HETATM    9  N           1     -21.696  -3.407 -12.847  0.00  0.00    -0.227 N 
HETATM   10  C           1     -22.669  -2.918 -13.493  0.00  0.00     0.665 C 
HETATM   11  N           1     -22.721  -3.045 -14.751  0.00  0.00    -0.235 N 
HETATM   12  N           1     -23.614  -2.284 -12.863  0.00  0.00    -0.235 N 
HETATM   13  H           1     -23.526  -2.638 -15.287  0.00  0.00     0.174 HD
HETATM   14  H           1     -21.957  -3.556 -15.260  0.00  0.00     0.174 HD
HETATM   15  H           1     -24.416  -1.880 -13.397  0.00  0.00     0.174 HD
HETATM   16  H           1     -23.571  -2.179 -11.825  0.00  0.00     0.174 HD
HETATM   17  H           1     -20.933  -3.918 -13.355  0.00  0.00     0.177 HD
ENDBRANCH   8   9
ENDBRANCH   7   8
ENDBRANCH   6   7
ENDBRANCH   5   6
BRANCH   5  18
HETATM   18  N           1     -22.348  -3.324  -7.973  0.00  0.00    -0.067 N 
HETATM   19  H           1     -23.047  -3.571  -7.236  0.00  0.00     0.275 HD
HETATM   20  H           1     -21.692  -2.601  -7.600  0.00  0.00     0.275 HD
HETATM   21  H           1     -22.845  -2.946  -8.810  0.00  0.00     0.275 HD
ENDBRANCH   5  18
ENDBRANCH   2   5
BRANCH   1  22
HETATM   22  C           1     -21.005  -6.582  -5.163  0.00  0.00     0.187 C 
BRANCH  22  23
HETATM   23  C           1     -22.031  -6.673  -4.041  0.00  0.00     0.066 C 
BRANCH  23  24
HETATM   24  C           1     -21.327  -6.540  -2.697  0.00  0.00     0.273 C 
BRANCH  24  25
HETATM   25  N           1     -21.855  -7.513  -1.780  0.00  0.00     0.099 N 
HETATM   26  H           1     -22.397  -8.208  -2.294  0.00  0.00     0.317 HD
BRANCH  25  27
HETATM   27  C           1     -20.742  -8.156  -1.135  0.00  0.00     0.330 C 
BRANCH  27  28
HETATM   28  C           1     -21.221  -8.845   0.136  0.00  0.00     0.160 C 
BRANCH  28  29
HETATM   29  C           1     -22.730  -8.855   0.166  0.00  0.00     0.175 C 
HETATM   30  O           1     -23.359  -9.810  -0.338  0.00  0.00    -0.648 OA
HETATM   31  O           1     -23.351  -7.907   0.695  0.00  0.00    -0.648 OA
ENDBRANCH  28  29
ENDBRANCH  27  28
BRANCH  27  32
HETATM   32  C           1     -20.145  -9.181  -2.069  0.00  0.00     0.207 C 
HETATM   33  O           1     -18.948  -9.085  -2.419  0.00  0.00    -0.646 OA
HETATM   34  O           1     -20.847 -10.125  -2.492  0.00  0.00    -0.646 OA
ENDBRANCH  27  32
ENDBRANCH  25  27
ENDBRANCH  24  25
ENDBRANCH  23  24
ENDBRANCH  22  23
BRANCH  22  35
HETATM   35  C           1     -20.489  -7.962  -5.486  0.00  0.00     0.196 C 
HETATM   36  O           1     -19.264  -8.149  -5.653  0.00  0.00    -0.646 OA
HETATM   37  O           1     -21.285  -8.921  -5.587  0.00  0.00    -0.646 OA
ENDBRANCH  22  35
ENDBRANCH   1  22
TORSDOF 15
ENDMDL
MODEL 5
REMARK VINA RESULT:      -6.6      0.593      2.044
REMARK  15 active torsions:
REMARK  status: ('A' for Active; 'I' for Inactive)
REMARK    1  A    between atoms: C_2  and  C_4 
REMARK    2  A    between atoms: C_4  and  C_5 
REMARK    3  A    between atoms: C_5  and  C_6 
REMARK    4  A    between atoms: C_5  and  N_9 
REMARK    5  A    between atoms: N_9  and  C_10 
REMARK    6  A    between atoms: C_10  and  C_11 
REMARK    7  A    between atoms: C_11  and  C_12 
REMARK    8  A    between atoms: C_12  and  C_13 
REMARK    9  A    between atoms: C_12  and  N_16 
REMARK       I    between atoms: N_16  and  C_17 
REMARK   10  A    between atoms: C_17  and  C_18 
REMARK   11  A    between atoms: C_18  and  C_19 
REMARK   12  A    between atoms: C_18  and  N_26 
REMARK   13  A    between atoms: C_19  and  C_20 
REMARK   14  A    between atoms: C_20  and  C_21 
REMARK   15  A    between atoms: C_21  and  N_22 
REMARK       I    between atoms: N_22  and  C_23 
REMARK       I    between atoms: C_23  and  N_24 
ROOT
HETATM    1  N           1     -21.142  -5.571  -5.029  0.00  0.00    -0.345 N 
HETATM    2  C           1     -21.540  -6.642  -4.274  0.00  0.00     0.249 C 
HETATM    3  O           1     -22.068  -7.591  -4.803  0.00  0.00    -0.271 OA
HETATM    4  H           1     -20.700  -4.777  -4.585  0.00  0.00     0.163 HD
ENDROOT
BRANCH   2   5
HETATM    5  C           1     -21.318  -6.638  -2.781  0.00  0.00     0.274 C 
BRANCH   5   6
HETATM    6  C           1     -21.351  -8.068  -2.259  0.00  0.00     0.044 C 
BRANCH   6   7
HETATM    7  C           1     -19.933  -8.618  -2.190  0.00  0.00     0.023 C 
BRANCH   7   8
HETATM    8  C           1     -19.816  -9.838  -3.093  0.00  0.00     0.138 C 
BRANCH   8   9
HETATM    9  N           1     -18.730  -9.628  -4.062  0.00  0.00    -0.227 N 
HETATM   10  C           1     -18.989  -9.577  -5.300  0.00  0.00     0.665 C 
HETATM   11  N           1     -18.054  -9.396  -6.135  0.00  0.00    -0.235 N 
HETATM   12  N           1     -20.214  -9.708  -5.714  0.00  0.00    -0.235 N 
HETATM   13  H           1     -18.268  -9.352  -7.161  0.00  0.00     0.174 HD
HETATM   14  H           1     -17.064  -9.289  -5.800  0.00  0.00     0.174 HD
HETATM   15  H           1     -20.427  -9.665  -6.736  0.00  0.00     0.174 HD
HETATM   16  H           1     -20.985  -9.857  -5.025  0.00  0.00     0.174 HD
HETATM   17  H           1     -17.741  -9.521  -3.727  0.00  0.00     0.177 HD
ENDBRANCH   8   9
ENDBRANCH   7   8
ENDBRANCH   6   7
ENDBRANCH   5   6
BRANCH   5  18
HETATM   18  N           1     -22.401  -5.840  -2.118  0.00  0.00    -0.067 N 
HETATM   19  H           1     -22.403  -4.868  -2.502  0.00  0.00     0.275 HD
HETATM   20  H           1     -23.326  -6.288  -2.303  0.00  0.00     0.275 HD
HETATM   21  H           1     -22.229  -5.806  -1.089  0.00  0.00     0.275 HD
ENDBRANCH   5  18
ENDBRANCH   2   5
BRANCH   1  22
HETATM   22  C           1     -21.354  -5.576  -6.463  0.00  0.00     0.187 C 
BRANCH  22  23
HETATM   23  C           1     -21.986  -4.256  -6.886  0.00  0.00     0.066 C 
BRANCH  23  24
HETATM   24  C           1     -22.861  -4.482  -8.112  0.00  0.00     0.273 C 
BRANCH  24  25
HETATM   25  N           1     -23.285  -3.213  -8.640  0.00  0.00     0.099 N 
HETATM   26  H           1     -22.665  -2.478  -8.298  0.00  0.00     0.317 HD
BRANCH  25  27
HETATM   27  C           1     -23.197  -3.285 -10.074  0.00  0.00     0.330 C 
BRANCH  27  28
HETATM   28  C           1     -22.431  -4.539 -10.473  0.00  0.00     0.160 C 
BRANCH  28  29
HETATM   29  C           1     -21.339  -4.173 -11.448  0.00  0.00     0.175 C 
HETATM   30  O           1     -21.623  -3.585 -12.514  0.00  0.00    -0.648 OA
HETATM   31  O           1     -20.149  -4.457 -11.190  0.00  0.00    -0.648 OA
ENDBRANCH  28  29
ENDBRANCH  27  28
BRANCH  27  32
HETATM   32  C           1     -24.587  -3.336 -10.659  0.00  0.00     0.207 C 
HETATM   33  O           1     -25.582  -3.148  -9.926  0.00  0.00    -0.646 OA
HETATM   34  O           1     -24.743  -3.566 -11.878  0.00  0.00    -0.646 OA
ENDBRANCH  27  32
ENDBRANCH  25  27
ENDBRANCH  24  25
ENDBRANCH  23  24
ENDBRANCH  22  23
BRANCH  22  35
HETATM   35  C           1     -20.031  -5.748  -7.166  0.00  0.00     0.196 C 
HETATM   36  O           1     -19.421  -6.837  -7.093  0.00  0.00    -0.646 OA
HETATM   37  O           1     -19.543  -4.803  -7.822  0.00  0.00    -0.646 OA
ENDBRANCH  22  35
ENDBRANCH   1  22
TORSDOF 15
ENDMDL
MODEL 6
REMARK VINA RESULT:      -6.6      2.986      8.868
REMARK  15 active torsions:
REMARK  status: ('A' for Active; 'I' for Inactive)
REMARK    1  A    between atoms: C_2  and  C_4 
REMARK    2  A    between atoms: C_4  and  C_5 
REMARK    3  A    between atoms: C_5  and  C_6 
REMARK    4  A    between atoms: C_5  and  N_9 
REMARK    5  A    between atoms: N_9  and  C_10 
REMARK    6  A    between atoms: C_10  and  C_11 
REMARK    7  A    between atoms: C_11  and  C_12 
REMARK    8  A    between atoms: C_12  and  C_13 
REMARK    9  A    between atoms: C_12  and  N_16 
REMARK       I    between atoms: N_16  and  C_17 
REMARK   10  A    between atoms: C_17  and  C_18 
REMARK   11  A    between atoms: C_18  and  C_19 
REMARK   12  A    between atoms: C_18  and  N_26 
REMARK   13  A    between atoms: C_19  and  C_20 
REMARK   14  A    between atoms: C_20  and  C_21 
REMARK   15  A    between atoms: C_21  and  N_22 
REMARK       I    between atoms: N_22  and  C_23 
REMARK       I    between atoms: C_23  and  N_24 
ROOT
HETATM    1  N           1     -22.211  -5.244  -8.706  0.00  0.00    -0.345 N 
HETATM    2  C           1     -23.223  -4.346  -8.920  0.00  0.00     0.249 C 
HETATM    3  O           1     -23.268  -3.324  -8.277  0.00  0.00    -0.271 OA
HETATM    4  H           1     -22.173  -6.100  -9.245  0.00  0.00     0.163 HD
ENDROOT
BRANCH   2   5
HETATM    5  C           1     -24.279  -4.632  -9.958  0.00  0.00     0.274 C 
BRANCH   5   6
HETATM    6  C           1     -23.699  -4.409 -11.349  0.00  0.00     0.044 C 
BRANCH   6   7
HETATM    7  C           1     -24.343  -3.181 -11.978  0.00  0.00     0.023 C 
BRANCH   7   8
HETATM    8  C           1     -23.690  -2.898 -13.325  0.00  0.00     0.138 C 
BRANCH   8   9
HETATM    9  N           1     -24.147  -1.594 -13.827  0.00  0.00    -0.227 N 
HETATM   10  C           1     -23.678  -1.133 -14.909  0.00  0.00     0.665 C 
HETATM   11  N           1     -24.071  -0.010 -15.341  0.00  0.00    -0.235 N 
HETATM   12  N           1     -22.793  -1.814 -15.576  0.00  0.00    -0.235 N 
HETATM   13  H           1     -23.684   0.371 -16.239  0.00  0.00     0.174 HD
HETATM   14  H           1     -24.787   0.539 -14.803  0.00  0.00     0.174 HD
HETATM   15  H           1     -22.407  -1.433 -16.469  0.00  0.00     0.174 HD
HETATM   16  H           1     -22.469  -2.741 -15.218  0.00  0.00     0.174 HD
HETATM   17  H           1     -24.862  -1.045 -13.289  0.00  0.00     0.177 HD
ENDBRANCH   8   9
ENDBRANCH   7   8
ENDBRANCH   6   7
ENDBRANCH   5   6
BRANCH   5  18
HETATM   18  N           1     -25.445  -3.712  -9.751  0.00  0.00    -0.067 N 
HETATM   19  H           1     -25.849  -3.446 -10.677  0.00  0.00     0.275 HD
HETATM   20  H           1     -26.174  -4.196  -9.180  0.00  0.00     0.275 HD
HETATM   21  H           1     -25.125  -2.852  -9.251  0.00  0.00     0.275 HD
ENDBRANCH   5  18
ENDBRANCH   2   5
BRANCH   1  22
HETATM   22  C           1     -21.195  -4.969  -7.710  0.00  0.00     0.187 C 
BRANCH  22  23
HETATM   23  C           1     -21.038  -6.180  -6.799  0.00  0.00     0.066 C 
BRANCH  23  24
HETATM   24  C           1     -20.776  -5.713  -5.373  0.00  0.00     0.273 C 
BRANCH  24  25
HETATM   25  N           1     -20.375  -6.834  -4.567  0.00  0.00     0.099 N 
HETATM   26  H           1     -19.734  -6.518  -3.838  0.00  0.00     0.317 HD
BRANCH  25  27
HETATM   27  C           1     -21.558  -7.382  -3.960  0.00  0.00     0.330 C 
BRANCH  27  28
HETATM   28  C           1     -21.461  -8.901  -3.941  0.00  0.00     0.160 C 
BRANCH  28  29
HETATM   29  C           1     -20.137  -9.329  -4.526  0.00  0.00     0.175 C 
HETATM   30  O           1     -20.050  -9.603  -5.742  0.00  0.00    -0.648 OA
HETATM   31  O           1     -19.127  -9.409  -3.793  0.00  0.00    -0.648 OA
ENDBRANCH  28  29
ENDBRANCH  27  28
BRANCH  27  32
HETATM   32  C           1     -21.680  -6.867  -2.546  0.00  0.00     0.207 C 
HETATM   33  O           1     -22.437  -5.904  -2.294  0.00  0.00    -0.646 OA
HETATM   34  O           1     -21.025  -7.404  -1.627  0.00  0.00    -0.646 OA
ENDBRANCH  27  32
ENDBRANCH  25  27
ENDBRANCH  24  25
ENDBRANCH  23  24
ENDBRANCH  22  23
BRANCH  22  35
HETATM   35  C           1     -19.883  -4.681  -8.395  0.00  0.00     0.196 C 
HETATM   36  O           1     -19.791  -4.785  -9.638  0.00  0.00    -0.646 OA
HETATM   37  O           1     -18.888  -4.337  -7.722  0.00  0.00    -0.646 OA
ENDBRANCH  22  35
ENDBRANCH   1  22
TORSDOF 15
ENDMDL
MODEL 7
REMARK VINA RESULT:      -6.5      3.091      8.421
REMARK  15 active torsions:
REMARK  status: ('A' for Active; 'I' for Inactive)
REMARK    1  A    between atoms: C_2  and  C_4 
REMARK    2  A    between atoms: C_4  and  C_5 
REMARK    3  A    between atoms: C_5  and  C_6 
REMARK    4  A    between atoms: C_5  and  N_9 
REMARK    5  A    between atoms: N_9  and  C_10 
REMARK    6  A    between atoms: C_10  and  C_11 
REMARK    7  A    between atoms: C_11  and  C_12 
REMARK    8  A    between atoms: C_12  and  C_13 
REMARK    9  A    between atoms: C_12  and  N_16 
REMARK       I    between atoms: N_16  and  C_17 
REMARK   10  A    between atoms: C_17  and  C_18 
REMARK   11  A    between atoms: C_18  and  C_19 
REMARK   12  A    between atoms: C_18  and  N_26 
REMARK   13  A    between atoms: C_19  and  C_20 
REMARK   14  A    between atoms: C_20  and  C_21 
REMARK   15  A    between atoms: C_21  and  N_22 
REMARK       I    between atoms: N_22  and  C_23 
REMARK       I    between atoms: C_23  and  N_24 
ROOT
HETATM    1  N           1     -20.380  -7.920  -5.063  0.00  0.00    -0.345 N 
HETATM    2  C           1     -20.334  -6.967  -6.046  0.00  0.00     0.249 C 
HETATM    3  O           1     -19.416  -6.953  -6.830  0.00  0.00    -0.271 OA
HETATM    4  H           1     -21.149  -7.932  -4.406  0.00  0.00     0.163 HD
ENDROOT
BRANCH   2   5
HETATM    5  C           1     -21.431  -5.936  -6.149  0.00  0.00     0.274 C 
BRANCH   5   6
HETATM    6  C           1     -20.818  -4.542  -6.169  0.00  0.00     0.044 C 
BRANCH   6   7
HETATM    7  C           1     -21.581  -3.664  -7.151  0.00  0.00     0.023 C 
BRANCH   7   8
HETATM    8  C           1     -22.302  -4.542  -8.164  0.00  0.00     0.138 C 
BRANCH   8   9
HETATM    9  N           1     -23.693  -4.088  -8.305  0.00  0.00    -0.227 N 
HETATM   10  C           1     -24.147  -3.783  -9.447  0.00  0.00     0.665 C 
HETATM   11  N           1     -25.345  -3.391  -9.568  0.00  0.00    -0.235 N 
HETATM   12  N           1     -23.382  -3.872 -10.495  0.00  0.00    -0.235 N 
HETATM   13  H           1     -25.721  -3.140 -10.515  0.00  0.00     0.174 HD
HETATM   14  H           1     -25.963  -3.320  -8.722  0.00  0.00     0.174 HD
HETATM   15  H           1     -23.757  -3.620 -11.437  0.00  0.00     0.174 HD
HETATM   16  H           1     -22.394  -4.195 -10.394  0.00  0.00     0.174 HD
HETATM   17  H           1     -24.310  -4.017  -7.459  0.00  0.00     0.177 HD
ENDBRANCH   8   9
ENDBRANCH   7   8
ENDBRANCH   6   7
ENDBRANCH   5   6
BRANCH   5  18
HETATM   18  N           1     -22.346  -6.061  -4.968  0.00  0.00    -0.067 N 
HETATM   19  H           1     -23.033  -5.274  -4.973  0.00  0.00     0.275 HD
HETATM   20  H           1     -22.859  -6.970  -5.019  0.00  0.00     0.275 HD
HETATM   21  H           1     -21.785  -6.027  -4.087  0.00  0.00     0.275 HD
ENDBRANCH   5  18
ENDBRANCH   2   5
BRANCH   1  22
HETATM   22  C           1     -19.327  -8.911  -4.964  0.00  0.00     0.187 C 
BRANCH  22  23
HETATM   23  C           1     -18.950  -9.106  -3.501  0.00  0.00     0.066 C 
BRANCH  23  24
HETATM   24  C           1     -20.109  -9.762  -2.761  0.00  0.00     0.273 C 
BRANCH  24  25
HETATM   25  N           1     -20.369  -9.042  -1.544  0.00  0.00     0.099 N 
HETATM   26  H           1     -19.795  -8.200  -1.516  0.00  0.00     0.317 HD
BRANCH  25  27
HETATM   27  C           1     -21.759  -8.674  -1.543  0.00  0.00     0.330 C 
BRANCH  27  28
HETATM   28  C           1     -22.416  -9.174  -0.263  0.00  0.00     0.160 C 
BRANCH  28  29
HETATM   29  C           1     -21.354  -9.445   0.775  0.00  0.00     0.175 C 
HETATM   30  O           1     -20.958  -8.523   1.520  0.00  0.00    -0.648 OA
HETATM   31  O           1     -20.870 -10.593   0.890  0.00  0.00    -0.648 OA
ENDBRANCH  28  29
ENDBRANCH  27  28
BRANCH  27  32
HETATM   32  C           1     -21.881  -7.171  -1.617  0.00  0.00     0.207 C 
HETATM   33  O           1     -21.166  -6.525  -2.413  0.00  0.00    -0.646 OA
HETATM   34  O           1     -22.696  -6.573  -0.882  0.00  0.00    -0.646 OA
ENDBRANCH  27  32
ENDBRANCH  25  27
ENDBRANCH  24  25
ENDBRANCH  23  24
ENDBRANCH  22  23
BRANCH  22  35
HETATM   35  C           1     -19.812 -10.219  -5.538  0.00  0.00     0.196 C 
HETATM   36  O           1     -19.038 -11.198  -5.605  0.00  0.00    -0.646 OA
HETATM   37  O           1     -20.989 -10.325  -5.945  0.00  0.00    -0.646 OA
ENDBRANCH  22  35
ENDBRANCH   1  22
TORSDOF 15
ENDMDL
MODEL 8
REMARK VINA RESULT:      -6.4     13.918     16.500
REMARK  15 active torsions:
REMARK  status: ('A' for Active; 'I' for Inactive)
REMARK    1  A    between atoms: C_2  and  C_4 
REMARK    2  A    between atoms: C_4  and  C_5 
REMARK    3  A    between atoms: C_5  and  C_6 
REMARK    4  A    between atoms: C_5  and  N_9 
REMARK    5  A    between atoms: N_9  and  C_10 
REMARK    6  A    between atoms: C_10  and  C_11 
REMARK    7  A    between atoms: C_11  and  C_12 
REMARK    8  A    between atoms: C_12  and  C_13 
REMARK    9  A    between atoms: C_12  and  N_16 
REMARK       I    between atoms: N_16  and  C_17 
REMARK   10  A    between atoms: C_17  and  C_18 
REMARK   11  A    between atoms: C_18  and  C_19 
REMARK   12  A    between atoms: C_18  and  N_26 
REMARK   13  A    between atoms: C_19  and  C_20 
REMARK   14  A    between atoms: C_20  and  C_21 
REMARK   15  A    between atoms: C_21  and  N_22 
REMARK       I    between atoms: N_22  and  C_23 
REMARK       I    between atoms: C_23  and  N_24 
ROOT
HETATM    1  N           1     -34.756  -1.704 -16.432  0.00  0.00    -0.345 N 
HETATM    2  C           1     -34.308  -2.969 -16.161  0.00  0.00     0.249 C 
HETATM    3  O           1     -34.602  -3.504 -15.119  0.00  0.00    -0.271 OA
HETATM    4  H           1     -34.510  -1.257 -17.306  0.00  0.00     0.163 HD
ENDROOT
BRANCH   2   5
HETATM    5  C           1     -33.448  -3.696 -17.165  0.00  0.00     0.274 C 
BRANCH   5   6
HETATM    6  C           1     -32.958  -5.006 -16.561  0.00  0.00     0.044 C 
BRANCH   6   7
HETATM    7  C           1     -31.438  -5.056 -16.616  0.00  0.00     0.023 C 
BRANCH   7   8
HETATM    8  C           1     -30.995  -6.343 -17.298  0.00  0.00     0.138 C 
BRANCH   8   9
HETATM    9  N           1     -29.679  -6.141 -17.921  0.00  0.00    -0.227 N 
HETATM   10  C           1     -29.077  -7.117 -18.459  0.00  0.00     0.665 C 
HETATM   11  N           1     -27.943  -6.943 -18.996  0.00  0.00    -0.235 N 
HETATM   12  N           1     -29.623  -8.297 -18.460  0.00  0.00    -0.235 N 
HETATM   13  H           1     -27.445  -7.751 -19.442  0.00  0.00     0.174 HD
HETATM   14  H           1     -27.503  -5.989 -18.995  0.00  0.00     0.174 HD
HETATM   15  H           1     -29.126  -9.101 -18.904  0.00  0.00     0.174 HD
HETATM   16  H           1     -30.558  -8.440 -18.017  0.00  0.00     0.174 HD
HETATM   17  H           1     -29.239  -5.189 -17.921  0.00  0.00     0.177 HD
ENDBRANCH   8   9
ENDBRANCH   7   8
ENDBRANCH   6   7
ENDBRANCH   5   6
BRANCH   5  18
HETATM   18  N           1     -32.269  -2.842 -17.524  0.00  0.00    -0.067 N 
HETATM   19  H           1     -31.409  -3.224 -17.069  0.00  0.00     0.275 HD
HETATM   20  H           1     -32.143  -2.840 -18.561  0.00  0.00     0.275 HD
HETATM   21  H           1     -32.433  -1.865 -17.192  0.00  0.00     0.275 HD
ENDBRANCH   5  18
ENDBRANCH   2   5
BRANCH   1  22
HETATM   22  C           1     -35.584  -1.006 -15.468  0.00  0.00     0.187 C 
BRANCH  22  23
HETATM   23  C           1     -34.718  -0.054 -14.653  0.00  0.00     0.066 C 
BRANCH  23  24
HETATM   24  C           1     -35.361   0.177 -13.291  0.00  0.00     0.273 C 
BRANCH  24  25
HETATM   25  N           1     -34.764  -0.702 -12.323  0.00  0.00     0.099 N 
HETATM   26  H           1     -34.398  -0.154 -11.544  0.00  0.00     0.317 HD
BRANCH  25  27
HETATM   27  C           1     -35.791  -1.587 -11.844  0.00  0.00     0.330 C 
BRANCH  27  28
HETATM   28  C           1     -35.153  -2.741 -11.082  0.00  0.00     0.160 C 
BRANCH  28  29
HETATM   29  C           1     -33.674  -2.484 -10.926  0.00  0.00     0.175 C 
HETATM   30  O           1     -33.272  -1.607 -10.130  0.00  0.00    -0.648 OA
HETATM   31  O           1     -32.850  -3.147 -11.593  0.00  0.00    -0.648 OA
ENDBRANCH  28  29
ENDBRANCH  27  28
BRANCH  27  32
HETATM   32  C           1     -36.719  -0.829 -10.926  0.00  0.00     0.207 C 
HETATM   33  O           1     -36.253  -0.169  -9.971  0.00  0.00    -0.646 OA
HETATM   34  O           1     -37.953  -0.861 -11.120  0.00  0.00    -0.646 OA
ENDBRANCH  27  32
ENDBRANCH  25  27
ENDBRANCH  24  25
ENDBRANCH  23  24
ENDBRANCH  22  23
BRANCH  22  35
HETATM   35  C           1     -36.648  -0.221 -16.194  0.00  0.00     0.196 C 
HETATM   36  O           1     -37.581  -0.820 -16.772  0.00  0.00    -0.646 OA
HETATM   37  O           1     -36.598   1.028 -16.218  0.00  0.00    -0.646 OA
ENDBRANCH  22  35
ENDBRANCH   1  22
TORSDOF 15
ENDMDL
MODEL 9
REMARK VINA RESULT:      -6.2     11.674     14.520
REMARK  15 active torsions:
REMARK  status: ('A' for Active; 'I' for Inactive)
REMARK    1  A    between atoms: C_2  and  C_4 
REMARK    2  A    between atoms: C_4  and  C_5 
REMARK    3  A    between atoms: C_5  and  C_6 
REMARK    4  A    between atoms: C_5  and  N_9 
REMARK    5  A    between atoms: N_9  and  C_10 
REMARK    6  A    between atoms: C_10  and  C_11 
REMARK    7  A    between atoms: C_11  and  C_12 
REMARK    8  A    between atoms: C_12  and  C_13 
REMARK    9  A    between atoms: C_12  and  N_16 
REMARK       I    between atoms: N_16  and  C_17 
REMARK   10  A    between atoms: C_17  and  C_18 
REMARK   11  A    between atoms: C_18  and  C_19 
REMARK   12  A    between atoms: C_18  and  N_26 
REMARK   13  A    between atoms: C_19  and  C_20 
REMARK   14  A    between atoms: C_20  and  C_21 
REMARK   15  A    between atoms: C_21  and  N_22 
REMARK       I    between atoms: N_22  and  C_23 
REMARK       I    between atoms: C_23  and  N_24 
ROOT
HETATM    1  N           1     -31.163  -5.515 -16.636  0.00  0.00    -0.345 N 
HETATM    2  C           1     -31.065  -6.706 -17.306  0.00  0.00     0.249 C 
HETATM    3  O           1     -32.022  -7.146 -17.898  0.00  0.00    -0.271 OA
HETATM    4  H           1     -30.362  -5.147 -16.140  0.00  0.00     0.163 HD
ENDROOT
BRANCH   2   5
HETATM    5  C           1     -29.763  -7.468 -17.304  0.00  0.00     0.274 C 
BRANCH   5   6
HETATM    6  C           1     -28.599  -6.484 -17.300  0.00  0.00     0.044 C 
BRANCH   6   7
HETATM    7  C           1     -28.024  -6.369 -18.705  0.00  0.00     0.023 C 
BRANCH   7   8
HETATM    8  C           1     -26.503  -6.357 -18.633  0.00  0.00     0.138 C 
BRANCH   8   9
HETATM    9  N           1     -26.078  -6.493 -17.232  0.00  0.00    -0.227 N 
HETATM   10  C           1     -24.956  -7.013 -16.959  0.00  0.00     0.665 C 
HETATM   11  N           1     -24.590  -7.130 -15.753  0.00  0.00    -0.235 N 
HETATM   12  N           1     -24.181  -7.425 -17.918  0.00  0.00    -0.235 N 
HETATM   13  H           1     -23.660  -7.560 -15.526  0.00  0.00     0.174 HD
HETATM   14  H           1     -25.216  -6.796 -14.979  0.00  0.00     0.174 HD
HETATM   15  H           1     -23.255  -7.854 -17.692  0.00  0.00     0.174 HD
HETATM   16  H           1     -24.483  -7.328 -18.913  0.00  0.00     0.174 HD
HETATM   17  H           1     -26.704  -6.159 -16.458  0.00  0.00     0.177 HD
ENDBRANCH   8   9
ENDBRANCH   7   8
ENDBRANCH   6   7
ENDBRANCH   5   6
BRANCH   5  18
HETATM   18  N           1     -29.685  -8.326 -18.532  0.00  0.00    -0.067 N 
HETATM   19  H           1     -30.362  -7.975 -19.246  0.00  0.00     0.275 HD
HETATM   20  H           1     -28.717  -8.288 -18.922  0.00  0.00     0.275 HD
HETATM   21  H           1     -29.923  -9.312 -18.283  0.00  0.00     0.275 HD
ENDBRANCH   5  18
ENDBRANCH   2   5
BRANCH   1  22
HETATM   22  C           1     -32.414  -4.783 -16.638  0.00  0.00     0.187 C 
BRANCH  22  23
HETATM   23  C           1     -32.761  -4.368 -15.214  0.00  0.00     0.066 C 
BRANCH  23  24
HETATM   24  C           1     -34.262  -4.505 -14.996  0.00  0.00     0.273 C 
BRANCH  24  25
HETATM   25  N           1     -34.526  -4.740 -13.603  0.00  0.00     0.099 N 
HETATM   26  H           1     -34.104  -5.625 -13.320  0.00  0.00     0.317 HD
BRANCH  25  27
HETATM   27  C           1     -33.928  -3.665 -12.857  0.00  0.00     0.330 C 
BRANCH  27  28
HETATM   28  C           1     -35.022  -2.782 -12.274  0.00  0.00     0.160 C 
BRANCH  28  29
HETATM   29  C           1     -34.952  -1.411 -12.902  0.00  0.00     0.175 C 
HETATM   30  O           1     -34.657  -0.417 -12.204  0.00  0.00    -0.648 OA
HETATM   31  O           1     -35.187  -1.270 -14.122  0.00  0.00    -0.648 OA
ENDBRANCH  28  29
ENDBRANCH  27  28
BRANCH  27  32
HETATM   32  C           1     -33.091  -4.235 -11.738  0.00  0.00     0.207 C 
HETATM   33  O           1     -31.965  -4.720 -11.984  0.00  0.00    -0.646 OA
HETATM   34  O           1     -33.524  -4.223 -10.566  0.00  0.00    -0.646 OA
ENDBRANCH  27  32
ENDBRANCH  25  27
ENDBRANCH  24  25
ENDBRANCH  23  24
ENDBRANCH  22  23
BRANCH  22  35
HETATM   35  C           1     -32.275  -3.553 -17.501  0.00  0.00     0.196 C 
HETATM   36  O           1     -33.251  -2.788 -17.660  0.00  0.00    -0.646 OA
HETATM   37  O           1     -31.185  -3.299 -18.057  0.00  0.00    -0.646 OA
ENDBRANCH  22  35
ENDBRANCH   1  22
TORSDOF 15
ENDMDL
