MODEL 1
REMARK VINA RESULT:      -6.1      0.000      0.000
REMARK  8 active torsions:
REMARK  status: ('A' for Active; 'I' for Inactive)
REMARK    1  A    between atoms: C_4  and  C_9 
REMARK    2  A    between atoms: C_5  and  N_17 
REMARK    3  A    between atoms: C_5  and  C_6 
REMARK    4  A    between atoms: C_6  and  C_22 
REMARK       I    between atoms: C_9  and  N_25 
REMARK    5  A    between atoms: C_21  and  C_22 
REMARK    6  A    between atoms: C_21  and  C_29 
REMARK    7  A    between atoms: N_25  and  C_29 
REMARK    8  A    between atoms: C_28  and  C_29 
ROOT
HETATM    1  C           1     -20.771  -7.419  -5.850  0.00  0.00     0.249 C 
HETATM    2  H           1     -22.134  -6.061  -6.612  0.00  0.00     0.163 HD
HETATM    3  O           1     -19.628  -7.811  -5.900  0.00  0.00    -0.271 OA
HETATM    4  N           1     -21.177  -6.390  -6.655  0.00  0.00    -0.345 N 
ENDROOT
BRANCH   1   5
HETATM    5  C           1     -21.748  -8.064  -4.897  0.00  0.00     0.274 C 
HETATM    6  C           1     -22.520  -6.982  -4.152  0.00  0.00     0.042 C 
HETATM    7  C           1     -21.546  -6.112  -3.368  0.00  0.00     0.004 C 
HETATM    8  C           1     -21.883  -6.184  -1.883  0.00  0.00     0.027 C 
HETATM    9  C           1     -21.772  -7.626  -1.406  0.00  0.00     0.229 C 
HETATM   10  N           1     -20.372  -8.119  -1.625  0.00  0.00    -0.079 N 
HETATM   11  H           1     -20.297  -9.109  -1.297  0.00  0.00     0.274 HD
HETATM   12  H           1     -20.142  -8.071  -2.644  0.00  0.00     0.274 HD
HETATM   13  H           1     -19.705  -7.523  -1.088  0.00  0.00     0.274 HD
HETATM   14  H           1     -20.331  -8.314  -3.376  0.00  0.00     0.275 HD
HETATM   15  N           1     -20.999  -8.912  -3.913  0.00  0.00    -0.067 N 
HETATM   16  H           1     -21.675  -9.358  -3.253  0.00  0.00     0.275 HD
HETATM   17  H           1     -20.471  -9.654  -4.425  0.00  0.00     0.275 HD
ENDBRANCH   1   5
BRANCH   4  18
HETATM   18  C           1     -20.238  -5.770  -7.570  0.00  0.00     0.185 C 
BRANCH  18  19
HETATM   19  C           1     -21.003  -5.093  -8.700  0.00  0.00     0.036 C 
BRANCH  19  20
HETATM   20  C           1     -22.218  -4.371  -8.131  0.00  0.00     0.004 C 
BRANCH  20  21
HETATM   21  C           1     -22.929  -3.617  -9.246  0.00  0.00     0.027 C 
BRANCH  21  22
HETATM   22  C           1     -24.111  -4.439  -9.743  0.00  0.00     0.229 C 
BRANCH  22  23
HETATM   23  N           1     -25.362  -3.615  -9.669  0.00  0.00    -0.079 N 
HETATM   24  H           1     -25.258  -2.891  -8.923  0.00  0.00     0.274 HD
HETATM   25  H           1     -26.173  -4.234  -9.446  0.00  0.00     0.274 HD
HETATM   26  H           1     -25.524  -3.146 -10.588  0.00  0.00     0.274 HD
ENDBRANCH  22  23
ENDBRANCH  21  22
ENDBRANCH  20  21
ENDBRANCH  19  20
ENDBRANCH  18  19
BRANCH  18  27
HETATM   27  C           1     -19.420  -4.741  -6.829  0.00  0.00     0.196 C 
HETATM   28  O           1     -18.425  -4.220  -7.379  0.00  0.00    -0.646 OA
HETATM   29  O           1     -19.737  -4.411  -5.666  0.00  0.00    -0.646 OA
ENDBRANCH  18  27
ENDBRANCH   4  18
TORSDOF 8
ENDMDL
MODEL 2
REMARK VINA RESULT:      -6.0     13.732     17.068
REMARK  8 active torsions:
REMARK  status: ('A' for Active; 'I' for Inactive)
REMARK    1  A    between atoms: C_4  and  C_9 
REMARK    2  A    between atoms: C_5  and  N_17 
REMARK    3  A    between atoms: C_5  and  C_6 
REMARK    4  A    between atoms: C_6  and  C_22 
REMARK       I    between atoms: C_9  and  N_25 
REMARK    5  A    between atoms: C_21  and  C_22 
REMARK    6  A    between atoms: C_21  and  C_29 
REMARK    7  A    between atoms: N_25  and  C_29 
REMARK    8  A    between atoms: C_28  and  C_29 
ROOT
HETATM    1  C           1     -35.453  -0.387 -12.490  0.00  0.00     0.249 C 
HETATM    2  H           1     -34.648  -2.003 -13.501  0.00  0.00     0.163 HD
HETATM    3  O           1     -35.845   0.018 -11.421  0.00  0.00    -0.271 OA
HETATM    4  N           1     -34.977  -1.665 -12.605  0.00  0.00    -0.345 N 
ENDROOT
BRANCH   1   5
HETATM    5  C           1     -35.487   0.518 -13.697  0.00  0.00     0.274 C 
HETATM    6  C           1     -36.919   0.636 -14.203  0.00  0.00     0.042 C 
HETATM    7  C           1     -37.437  -0.743 -14.589  0.00  0.00     0.004 C 
HETATM    8  C           1     -37.816  -0.751 -16.065  0.00  0.00     0.027 C 
HETATM    9  C           1     -36.591  -0.415 -16.905  0.00  0.00     0.229 C 
HETATM   10  N           1     -35.521  -1.438 -16.660  0.00  0.00    -0.079 N 
HETATM   11  H           1     -34.680  -1.207 -17.237  0.00  0.00     0.274 HD
HETATM   12  H           1     -35.260  -1.432 -15.648  0.00  0.00     0.274 HD
HETATM   13  H           1     -35.876  -2.384 -16.923  0.00  0.00     0.274 HD
HETATM   14  H           1     -34.977  -1.005 -15.041  0.00  0.00     0.275 HD
HETATM   15  N           1     -34.621  -0.058 -14.777  0.00  0.00    -0.067 N 
HETATM   16  H           1     -34.645   0.568 -15.614  0.00  0.00     0.275 HD
HETATM   17  H           1     -33.639  -0.138 -14.430  0.00  0.00     0.275 HD
ENDBRANCH   1   5
BRANCH   4  18
HETATM   18  C           1     -34.944  -2.534 -11.445  0.00  0.00     0.185 C 
BRANCH  18  19
HETATM   19  C           1     -35.049  -3.985 -11.896  0.00  0.00     0.036 C 
BRANCH  19  20
HETATM   20  C           1     -34.958  -4.902 -10.684  0.00  0.00     0.004 C 
BRANCH  20  21
HETATM   21  C           1     -34.155  -6.145 -11.045  0.00  0.00     0.027 C 
BRANCH  21  22
HETATM   22  C           1     -34.642  -7.324 -10.213  0.00  0.00     0.229 C 
BRANCH  22  23
HETATM   23  N           1     -33.665  -8.456 -10.329  0.00  0.00    -0.079 N 
HETATM   24  H           1     -32.743  -8.089 -10.656  0.00  0.00     0.274 HD
HETATM   25  H           1     -34.025  -9.157 -11.016  0.00  0.00     0.274 HD
HETATM   26  H           1     -33.547  -8.911  -9.396  0.00  0.00     0.274 HD
ENDBRANCH  22  23
ENDBRANCH  21  22
ENDBRANCH  20  21
ENDBRANCH  19  20
ENDBRANCH  18  19
BRANCH  18  27
HETATM   27  C           1     -33.647  -2.331 -10.702  0.00  0.00     0.196 C 
HETATM   28  O           1     -33.625  -1.642  -9.659  0.00  0.00    -0.646 OA
HETATM   29  O           1     -32.593  -2.850 -11.131  0.00  0.00    -0.646 OA
ENDBRANCH  18  27
ENDBRANCH   4  18
TORSDOF 8
ENDMDL
MODEL 3
REMARK VINA RESULT:      -5.9      2.789      3.893
REMARK  8 active torsions:
REMARK  status: ('A' for Active; 'I' for Inactive)
REMARK    1  A    between atoms: C_4  and  C_9 
REMARK    2  A    between atoms: C_5  and  N_17 
REMARK    3  A    between atoms: C_5  and  C_6 
REMARK    4  A    between atoms: C_6  and  C_22 
REMARK       I    between atoms: C_9  and  N_25 
REMARK    5  A    between atoms: C_21  and  C_22 
REMARK    6  A    between atoms: C_21  and  C_29 
REMARK    7  A    between atoms: N_25  and  C_29 
REMARK    8  A    between atoms: C_28  and  C_29 
ROOT
HETATM    1  C           1     -20.635  -4.124  -7.401  0.00  0.00     0.249 C 
HETATM    2  H           1     -20.115  -5.232  -9.071  0.00  0.00     0.163 HD
HETATM    3  O           1     -21.300  -3.202  -6.992  0.00  0.00    -0.271 OA
HETATM    4  N           1     -20.671  -4.458  -8.728  0.00  0.00    -0.345 N 
ENDROOT
BRANCH   1   5
HETATM    5  C           1     -19.766  -4.908  -6.449  0.00  0.00     0.274 C 
HETATM    6  C           1     -19.975  -6.399  -6.680  0.00  0.00     0.042 C 
HETATM    7  C           1     -21.437  -6.750  -6.438  0.00  0.00     0.004 C 
HETATM    8  C           1     -21.535  -7.775  -5.315  0.00  0.00     0.027 C 
HETATM    9  C           1     -20.936  -7.192  -4.041  0.00  0.00     0.229 C 
HETATM   10  N           1     -21.691  -5.954  -3.655  0.00  0.00    -0.079 N 
HETATM   11  H           1     -21.279  -5.554  -2.781  0.00  0.00     0.274 HD
HETATM   12  H           1     -21.622  -5.251  -4.425  0.00  0.00     0.274 HD
HETATM   13  H           1     -22.693  -6.194  -3.490  0.00  0.00     0.274 HD
HETATM   14  H           1     -21.140  -4.805  -4.872  0.00  0.00     0.275 HD
HETATM   15  N           1     -20.136  -4.564  -5.037  0.00  0.00    -0.067 N 
HETATM   16  H           1     -19.535  -5.107  -4.377  0.00  0.00     0.275 HD
HETATM   17  H           1     -19.992  -3.542  -4.879  0.00  0.00     0.275 HD
ENDBRANCH   1   5
BRANCH   4  18
HETATM   18  C           1     -21.506  -3.705  -9.643  0.00  0.00     0.185 C 
BRANCH  18  19
HETATM   19  C           1     -21.000  -3.897 -11.067  0.00  0.00     0.036 C 
BRANCH  19  20
HETATM   20  C           1     -22.184  -4.009 -12.017  0.00  0.00     0.004 C 
BRANCH  20  21
HETATM   21  C           1     -22.534  -2.629 -12.558  0.00  0.00     0.027 C 
BRANCH  21  22
HETATM   22  C           1     -23.981  -2.622 -13.034  0.00  0.00     0.229 C 
BRANCH  22  23
HETATM   23  N           1     -24.849  -3.288 -12.008  0.00  0.00    -0.079 N 
HETATM   24  H           1     -24.412  -3.189 -11.065  0.00  0.00     0.274 HD
HETATM   25  H           1     -24.950  -4.301 -12.244  0.00  0.00     0.274 HD
HETATM   26  H           1     -25.791  -2.836 -12.004  0.00  0.00     0.274 HD
ENDBRANCH  22  23
ENDBRANCH  21  22
ENDBRANCH  20  21
ENDBRANCH  19  20
ENDBRANCH  18  19
BRANCH  18  27
HETATM   27  C           1     -22.930  -4.197  -9.545  0.00  0.00     0.196 C 
HETATM   28  O           1     -23.826  -3.435  -9.123  0.00  0.00    -0.646 OA
HETATM   29  O           1     -23.211  -5.367  -9.884  0.00  0.00    -0.646 OA
ENDBRANCH  18  27
ENDBRANCH   4  18
TORSDOF 8
ENDMDL
MODEL 4
REMARK VINA RESULT:      -5.9      2.835      4.000
REMARK  8 active torsions:
REMARK  status: ('A' for Active; 'I' for Inactive)
REMARK    1  A    between atoms: C_4  and  C_9 
REMARK    2  A    between atoms: C_5  and  N_17 
REMARK    3  A    between atoms: C_5  and  C_6 
REMARK    4  A    between atoms: C_6  and  C_22 
REMARK       I    between atoms: C_9  and  N_25 
REMARK    5  A    between atoms: C_21  and  C_22 
REMARK    6  A    between atoms: C_21  and  C_29 
REMARK    7  A    between atoms: N_25  and  C_29 
REMARK    8  A    between atoms: C_28  and  C_29 
ROOT
HETATM    1  C           1     -20.533  -9.063  -2.930  0.00  0.00     0.249 C 
HETATM    2  H           1     -21.502  -9.139  -4.758  0.00  0.00     0.163 HD
HETATM    3  O           1     -19.954  -8.351  -2.145  0.00  0.00    -0.271 OA
HETATM    4  N           1     -21.016  -8.542  -4.100  0.00  0.00    -0.345 N 
ENDROOT
BRANCH   1   5
HETATM    5  C           1     -20.725 -10.528  -2.620  0.00  0.00     0.274 C 
HETATM    6  C           1     -22.205 -10.810  -2.396  0.00  0.00     0.042 C 
HETATM    7  C           1     -22.710  -9.974  -1.227  0.00  0.00     0.004 C 
HETATM    8  C           1     -23.240 -10.894  -0.134  0.00  0.00     0.027 C 
HETATM    9  C           1     -22.121 -11.811   0.343  0.00  0.00     0.229 C 
HETATM   10  N           1     -20.995 -10.984   0.890  0.00  0.00    -0.079 N 
HETATM   11  H           1     -20.228 -11.614   1.218  0.00  0.00     0.274 HD
HETATM   12  H           1     -20.631 -10.353   0.140  0.00  0.00     0.274 HD
HETATM   13  H           1     -21.341 -10.410   1.691  0.00  0.00     0.274 HD
HETATM   14  H           1     -20.302 -10.306  -0.581  0.00  0.00     0.275 HD
HETATM   15  N           1     -19.956 -10.881  -1.383  0.00  0.00    -0.067 N 
HETATM   16  H           1     -20.088 -11.895  -1.167  0.00  0.00     0.275 HD
HETATM   17  H           1     -18.941 -10.688  -1.537  0.00  0.00     0.275 HD
ENDBRANCH   1   5
BRANCH   4  18
HETATM   18  C           1     -20.832  -7.135  -4.398  0.00  0.00     0.185 C 
BRANCH  18  19
HETATM   19  C           1     -20.500  -6.969  -5.875  0.00  0.00     0.036 C 
BRANCH  19  20
HETATM   20  C           1     -19.947  -5.570  -6.118  0.00  0.00     0.004 C 
BRANCH  20  21
HETATM   21  C           1     -20.502  -5.025  -7.427  0.00  0.00     0.027 C 
BRANCH  21  22
HETATM   22  C           1     -21.378  -3.813  -7.141  0.00  0.00     0.229 C 
BRANCH  22  23
HETATM   23  N           1     -22.817  -4.168  -7.376  0.00  0.00    -0.079 N 
HETATM   24  H           1     -23.423  -3.594  -6.748  0.00  0.00     0.274 HD
HETATM   25  H           1     -22.961  -5.182  -7.171  0.00  0.00     0.274 HD
HETATM   26  H           1     -23.065  -3.974  -8.372  0.00  0.00     0.274 HD
ENDBRANCH  22  23
ENDBRANCH  21  22
ENDBRANCH  20  21
ENDBRANCH  19  20
ENDBRANCH  18  19
BRANCH  18  27
HETATM   27  C           1     -22.101  -6.384  -4.080  0.00  0.00     0.196 C 
HETATM   28  O           1     -22.307  -5.968  -2.919  0.00  0.00    -0.646 OA
HETATM   29  O           1     -22.947  -6.178  -4.977  0.00  0.00    -0.646 OA
ENDBRANCH  18  27
ENDBRANCH   4  18
TORSDOF 8
ENDMDL
MODEL 5
REMARK VINA RESULT:      -5.9      2.756      3.546
REMARK  8 active torsions:
REMARK  status: ('A' for Active; 'I' for Inactive)
REMARK    1  A    between atoms: C_4  and  C_9 
REMARK    2  A    between atoms: C_5  and  N_17 
REMARK    3  A    between atoms: C_5  and  C_6 
REMARK    4  A    between atoms: C_6  and  C_22 
REMARK       I    between atoms: C_9  and  N_25 
REMARK    5  A    between atoms: C_21  and  C_22 
REMARK    6  A    between atoms: C_21  and  C_29 
REMARK    7  A    between atoms: N_25  and  C_29 
REMARK    8  A    between atoms: C_28  and  C_29 
ROOT
HETATM    1  C           1     -20.055  -9.038  -4.879  0.00  0.00     0.249 C 
HETATM    2  H           1     -21.403  -8.528  -6.365  0.00  0.00     0.163 HD
HETATM    3  O           1     -19.311  -8.611  -4.027  0.00  0.00    -0.271 OA
HETATM    4  N           1     -20.779  -8.170  -5.651  0.00  0.00    -0.345 N 
ENDROOT
BRANCH   1   5
HETATM    5  C           1     -20.185 -10.526  -5.090  0.00  0.00     0.274 C 
HETATM    6  C           1     -21.649 -10.929  -4.975  0.00  0.00     0.042 C 
HETATM    7  C           1     -22.169 -10.566  -3.591  0.00  0.00     0.004 C 
HETATM    8  C           1     -22.647 -11.826  -2.880  0.00  0.00     0.027 C 
HETATM    9  C           1     -21.487 -12.804  -2.746  0.00  0.00     0.229 C 
HETATM   10  N           1     -20.386 -12.168  -1.949  0.00  0.00    -0.079 N 
HETATM   11  H           1     -19.590 -12.840  -1.857  0.00  0.00     0.274 HD
HETATM   12  H           1     -20.058 -11.304  -2.437  0.00  0.00     0.274 HD
HETATM   13  H           1     -20.743 -11.918  -1.000  0.00  0.00     0.274 HD
HETATM   14  H           1     -19.742 -10.999  -3.099  0.00  0.00     0.275 HD
HETATM   15  N           1     -19.384 -11.250  -4.049  0.00  0.00    -0.067 N 
HETATM   16  H           1     -19.474 -12.280  -4.194  0.00  0.00     0.275 HD
HETATM   17  H           1     -18.380 -10.973  -4.128  0.00  0.00     0.275 HD
ENDBRANCH   1   5
BRANCH   4  18
HETATM   18  C           1     -20.654  -6.740  -5.449  0.00  0.00     0.185 C 
BRANCH  18  19
HETATM   19  C           1     -20.666  -6.034  -6.798  0.00  0.00     0.036 C 
BRANCH  19  20
HETATM   20  C           1     -20.191  -4.597  -6.625  0.00  0.00     0.004 C 
BRANCH  20  21
HETATM   21  C           1     -21.234  -3.645  -7.193  0.00  0.00     0.027 C 
BRANCH  21  22
HETATM   22  C           1     -22.231  -4.427  -8.037  0.00  0.00     0.229 C 
BRANCH  22  23
HETATM   23  N           1     -23.614  -4.228  -7.493  0.00  0.00    -0.079 N 
HETATM   24  H           1     -23.679  -3.288  -7.043  0.00  0.00     0.274 HD
HETATM   25  H           1     -23.819  -4.970  -6.786  0.00  0.00     0.274 HD
HETATM   26  H           1     -24.307  -4.290  -8.272  0.00  0.00     0.274 HD
ENDBRANCH  22  23
ENDBRANCH  21  22
ENDBRANCH  20  21
ENDBRANCH  19  20
ENDBRANCH  18  19
BRANCH  18  27
HETATM   27  C           1     -21.811  -6.248  -4.613  0.00  0.00     0.196 C 
HETATM   28  O           1     -21.623  -5.906  -3.426  0.00  0.00    -0.646 OA
HETATM   29  O           1     -22.957  -6.185  -5.109  0.00  0.00    -0.646 OA
ENDBRANCH  18  27
ENDBRANCH   4  18
TORSDOF 8
ENDMDL
MODEL 6
REMARK VINA RESULT:      -5.8      3.205      4.446
REMARK  8 active torsions:
REMARK  status: ('A' for Active; 'I' for Inactive)
REMARK    1  A    between atoms: C_4  and  C_9 
REMARK    2  A    between atoms: C_5  and  N_17 
REMARK    3  A    between atoms: C_5  and  C_6 
REMARK    4  A    between atoms: C_6  and  C_22 
REMARK       I    between atoms: C_9  and  N_25 
REMARK    5  A    between atoms: C_21  and  C_22 
REMARK    6  A    between atoms: C_21  and  C_29 
REMARK    7  A    between atoms: N_25  and  C_29 
REMARK    8  A    between atoms: C_28  and  C_29 
ROOT
HETATM    1  C           1     -20.265  -9.022  -4.665  0.00  0.00     0.249 C 
HETATM    2  H           1     -21.285  -8.588  -6.413  0.00  0.00     0.163 HD
HETATM    3  O           1     -19.687  -8.552  -3.713  0.00  0.00    -0.271 OA
HETATM    4  N           1     -20.800  -8.195  -5.616  0.00  0.00    -0.345 N 
ENDROOT
BRANCH   1   5
HETATM    5  C           1     -20.396 -10.518  -4.805  0.00  0.00     0.274 C 
HETATM    6  C           1     -19.109 -11.187  -4.338  0.00  0.00     0.042 C 
HETATM    7  C           1     -17.945 -10.698  -5.190  0.00  0.00     0.004 C 
HETATM    8  C           1     -17.301 -11.883  -5.900  0.00  0.00     0.027 C 
HETATM    9  C           1     -18.333 -12.562  -6.792  0.00  0.00     0.229 C 
HETATM   10  N           1     -18.835 -11.582  -7.811  0.00  0.00    -0.079 N 
HETATM   11  H           1     -19.543 -12.048  -8.423  0.00  0.00     0.274 HD
HETATM   12  H           1     -19.278 -10.770  -7.324  0.00  0.00     0.274 HD
HETATM   13  H           1     -18.037 -11.246  -8.395  0.00  0.00     0.274 HD
HETATM   14  H           1     -19.847 -10.529  -6.826  0.00  0.00     0.275 HD
HETATM   15  N           1     -20.647 -10.865  -6.242  0.00  0.00    -0.067 N 
HETATM   16  H           1     -20.737 -11.902  -6.340  0.00  0.00     0.275 HD
HETATM   17  H           1     -21.530 -10.407  -6.561  0.00  0.00     0.275 HD
ENDBRANCH   1   5
BRANCH   4  18
HETATM   18  C           1     -20.674  -6.757  -5.481  0.00  0.00     0.185 C 
BRANCH  18  19
HETATM   19  C           1     -20.661  -6.118  -6.863  0.00  0.00     0.036 C 
BRANCH  19  20
HETATM   20  C           1     -20.112  -4.701  -6.763  0.00  0.00     0.004 C 
BRANCH  20  21
HETATM   21  C           1     -21.218  -3.703  -7.080  0.00  0.00     0.027 C 
BRANCH  21  22
HETATM   22  C           1     -22.187  -4.320  -8.080  0.00  0.00     0.229 C 
BRANCH  22  23
HETATM   23  N           1     -23.596  -4.086  -7.622  0.00  0.00    -0.079 N 
HETATM   24  H           1     -23.718  -3.080  -7.369  0.00  0.00     0.274 HD
HETATM   25  H           1     -23.794  -4.683  -6.787  0.00  0.00     0.274 HD
HETATM   26  H           1     -24.258  -4.333  -8.391  0.00  0.00     0.274 HD
ENDBRANCH  22  23
ENDBRANCH  21  22
ENDBRANCH  20  21
ENDBRANCH  19  20
ENDBRANCH  18  19
BRANCH  18  27
HETATM   27  C           1     -21.844  -6.222  -4.691  0.00  0.00     0.196 C 
HETATM   28  O           1     -22.963  -6.102  -5.235  0.00  0.00    -0.646 OA
HETATM   29  O           1     -21.693  -5.900  -3.493  0.00  0.00    -0.646 OA
ENDBRANCH  18  27
ENDBRANCH   4  18
TORSDOF 8
ENDMDL
MODEL 7
REMARK VINA RESULT:      -5.8      2.064      6.608
REMARK  8 active torsions:
REMARK  status: ('A' for Active; 'I' for Inactive)
REMARK    1  A    between atoms: C_4  and  C_9 
REMARK    2  A    between atoms: C_5  and  N_17 
REMARK    3  A    between atoms: C_5  and  C_6 
REMARK    4  A    between atoms: C_6  and  C_22 
REMARK       I    between atoms: C_9  and  N_25 
REMARK    5  A    between atoms: C_21  and  C_22 
REMARK    6  A    between atoms: C_21  and  C_29 
REMARK    7  A    between atoms: N_25  and  C_29 
REMARK    8  A    between atoms: C_28  and  C_29 
ROOT
HETATM    1  C           1     -20.315  -5.315  -6.491  0.00  0.00     0.249 C 
HETATM    2  H           1     -21.056  -4.271  -4.865  0.00  0.00     0.163 HD
HETATM    3  O           1     -20.025  -6.407  -6.919  0.00  0.00    -0.271 OA
HETATM    4  N           1     -20.812  -5.187  -5.223  0.00  0.00    -0.345 N 
ENDROOT
BRANCH   1   5
HETATM    5  C           1     -20.129  -4.093  -7.357  0.00  0.00     0.274 C 
HETATM    6  C           1     -21.449  -3.340  -7.462  0.00  0.00     0.042 C 
HETATM    7  C           1     -22.503  -4.246  -8.084  0.00  0.00     0.004 C 
HETATM    8  C           1     -23.018  -3.618  -9.374  0.00  0.00     0.027 C 
HETATM    9  C           1     -21.861  -3.439 -10.349  0.00  0.00     0.229 C 
HETATM   10  N           1     -21.254  -4.777 -10.654  0.00  0.00    -0.079 N 
HETATM   11  H           1     -20.460  -4.655 -11.323  0.00  0.00     0.274 HD
HETATM   12  H           1     -20.900  -5.207  -9.769  0.00  0.00     0.274 HD
HETATM   13  H           1     -21.976  -5.399 -11.080  0.00  0.00     0.274 HD
HETATM   14  H           1     -20.407  -5.136  -9.151  0.00  0.00     0.275 HD
HETATM   15  N           1     -19.683  -4.513  -8.725  0.00  0.00    -0.067 N 
HETATM   16  H           1     -19.555  -3.667  -9.325  0.00  0.00     0.275 HD
HETATM   17  H           1     -18.777  -5.029  -8.652  0.00  0.00     0.275 HD
ENDBRANCH   1   5
BRANCH   4  18
HETATM   18  C           1     -20.991  -6.361  -4.391  0.00  0.00     0.185 C 
BRANCH  18  19
HETATM   19  C           1     -21.170  -5.933  -2.941  0.00  0.00     0.036 C 
BRANCH  19  20
HETATM   20  C           1     -21.498  -7.150  -2.087  0.00  0.00     0.004 C 
BRANCH  20  21
HETATM   21  C           1     -20.221  -7.925  -1.792  0.00  0.00     0.027 C 
BRANCH  21  22
HETATM   22  C           1     -20.443  -9.402  -2.085  0.00  0.00     0.229 C 
BRANCH  22  23
HETATM   23  N           1     -21.908  -9.661  -2.275  0.00  0.00    -0.079 N 
HETATM   24  H           1     -22.298  -8.971  -2.954  0.00  0.00     0.274 HD
HETATM   25  H           1     -22.399  -9.566  -1.357  0.00  0.00     0.274 HD
HETATM   26  H           1     -22.045 -10.629  -2.644  0.00  0.00     0.274 HD
ENDBRANCH  22  23
ENDBRANCH  21  22
ENDBRANCH  20  21
ENDBRANCH  19  20
ENDBRANCH  18  19
BRANCH  18  27
HETATM   27  C           1     -22.214  -7.118  -4.847  0.00  0.00     0.196 C 
HETATM   28  O           1     -22.143  -8.347  -5.065  0.00  0.00    -0.646 OA
HETATM   29  O           1     -23.297  -6.515  -5.008  0.00  0.00    -0.646 OA
ENDBRANCH  18  27
ENDBRANCH   4  18
TORSDOF 8
ENDMDL
MODEL 8
REMARK VINA RESULT:      -5.7      3.244      6.011
REMARK  8 active torsions:
REMARK  status: ('A' for Active; 'I' for Inactive)
REMARK    1  A    between atoms: C_4  and  C_9 
REMARK    2  A    between atoms: C_5  and  N_17 
REMARK    3  A    between atoms: C_5  and  C_6 
REMARK    4  A    between atoms: C_6  and  C_22 
REMARK       I    between atoms: C_9  and  N_25 
REMARK    5  A    between atoms: C_21  and  C_22 
REMARK    6  A    between atoms: C_21  and  C_29 
REMARK    7  A    between atoms: N_25  and  C_29 
REMARK    8  A    between atoms: C_28  and  C_29 
ROOT
HETATM    1  C           1     -20.086  -9.415  -4.761  0.00  0.00     0.249 C 
HETATM    2  H           1     -19.649  -7.845  -3.484  0.00  0.00     0.163 HD
HETATM    3  O           1     -20.761  -9.770  -5.698  0.00  0.00    -0.271 OA
HETATM    4  N           1     -20.215  -8.144  -4.268  0.00  0.00    -0.345 N 
ENDROOT
BRANCH   1   5
HETATM    5  C           1     -19.101 -10.371  -4.134  0.00  0.00     0.274 C 
HETATM    6  C           1     -17.699  -9.781  -4.213  0.00  0.00     0.042 C 
HETATM    7  C           1     -17.326  -9.553  -5.672  0.00  0.00     0.004 C 
HETATM    8  C           1     -16.084 -10.367  -6.013  0.00  0.00     0.027 C 
HETATM    9  C           1     -16.368 -11.847  -5.786  0.00  0.00     0.229 C 
HETATM   10  N           1     -17.504 -12.277  -6.667  0.00  0.00    -0.079 N 
HETATM   11  H           1     -17.699 -13.293  -6.512  0.00  0.00     0.274 HD
HETATM   12  H           1     -18.356 -11.719  -6.432  0.00  0.00     0.274 HD
HETATM   13  H           1     -17.249 -12.120  -7.667  0.00  0.00     0.274 HD
HETATM   14  H           1     -18.881 -11.519  -5.871  0.00  0.00     0.275 HD
HETATM   15  N           1     -19.137 -11.677  -4.870  0.00  0.00    -0.067 N 
HETATM   16  H           1     -18.455 -12.340  -4.436  0.00  0.00     0.275 HD
HETATM   17  H           1     -20.099 -12.081  -4.814  0.00  0.00     0.275 HD
ENDBRANCH   1   5
BRANCH   4  18
HETATM   18  C           1     -21.161  -7.225  -4.871  0.00  0.00     0.185 C 
BRANCH  18  19
HETATM   19  C           1     -21.897  -6.465  -3.775  0.00  0.00     0.036 C 
BRANCH  19  20
HETATM   20  C           1     -21.271  -6.786  -2.425  0.00  0.00     0.004 C 
BRANCH  20  21
HETATM   21  C           1     -22.323  -6.650  -1.332  0.00  0.00     0.027 C 
BRANCH  21  22
HETATM   22  C           1     -22.230  -7.840  -0.386  0.00  0.00     0.229 C 
BRANCH  22  23
HETATM   23  N           1     -23.464  -7.903   0.464  0.00  0.00    -0.079 N 
HETATM   24  H           1     -23.574  -7.004   0.984  0.00  0.00     0.274 HD
HETATM   25  H           1     -23.377  -8.692   1.143  0.00  0.00     0.274 HD
HETATM   26  H           1     -24.298  -8.058  -0.145  0.00  0.00     0.274 HD
ENDBRANCH  22  23
ENDBRANCH  21  22
ENDBRANCH  20  21
ENDBRANCH  19  20
ENDBRANCH  18  19
BRANCH  18  27
HETATM   27  C           1     -20.420  -6.247  -5.751  0.00  0.00     0.196 C 
HETATM   28  O           1     -19.970  -6.619  -6.856  0.00  0.00    -0.646 OA
HETATM   29  O           1     -20.257  -5.067  -5.373  0.00  0.00    -0.646 OA
ENDBRANCH  18  27
ENDBRANCH   4  18
TORSDOF 8
ENDMDL
MODEL 9
REMARK VINA RESULT:      -5.7      3.623      5.074
REMARK  8 active torsions:
REMARK  status: ('A' for Active; 'I' for Inactive)
REMARK    1  A    between atoms: C_4  and  C_9 
REMARK    2  A    between atoms: C_5  and  N_17 
REMARK    3  A    between atoms: C_5  and  C_6 
REMARK    4  A    between atoms: C_6  and  C_22 
REMARK       I    between atoms: C_9  and  N_25 
REMARK    5  A    between atoms: C_21  and  C_22 
REMARK    6  A    between atoms: C_21  and  C_29 
REMARK    7  A    between atoms: N_25  and  C_29 
REMARK    8  A    between atoms: C_28  and  C_29 
ROOT
HETATM    1  C           1     -19.594  -8.876  -4.724  0.00  0.00     0.249 C 
HETATM    2  H           1     -20.771  -9.121  -3.039  0.00  0.00     0.163 HD
HETATM    3  O           1     -19.265  -8.111  -5.601  0.00  0.00    -0.271 OA
HETATM    4  N           1     -20.496  -8.480  -3.774  0.00  0.00    -0.345 N 
ENDROOT
BRANCH   1   5
HETATM    5  C           1     -19.009 -10.266  -4.678  0.00  0.00     0.274 C 
HETATM    6  C           1     -18.395 -10.513  -3.306  0.00  0.00     0.042 C 
HETATM    7  C           1     -17.295  -9.491  -3.050  0.00  0.00     0.004 C 
HETATM    8  C           1     -15.970 -10.213  -2.833  0.00  0.00     0.027 C 
HETATM    9  C           1     -15.627 -11.028  -4.074  0.00  0.00     0.229 C 
HETATM   10  N           1     -15.509 -10.113  -5.257  0.00  0.00    -0.079 N 
HETATM   11  H           1     -15.274 -10.673  -6.108  0.00  0.00     0.274 HD
HETATM   12  H           1     -16.419  -9.619  -5.406  0.00  0.00     0.274 HD
HETATM   13  H           1     -14.756  -9.412  -5.081  0.00  0.00     0.274 HD
HETATM   14  H           1     -17.195  -9.694  -5.555  0.00  0.00     0.275 HD
HETATM   15  N           1     -17.949 -10.397  -5.731  0.00  0.00    -0.067 N 
HETATM   16  H           1     -17.543 -11.359  -5.699  0.00  0.00     0.275 HD
HETATM   17  H           1     -18.371 -10.228  -6.671  0.00  0.00     0.275 HD
ENDBRANCH   1   5
BRANCH   4  18
HETATM   18  C           1     -21.058  -7.144  -3.819  0.00  0.00     0.185 C 
BRANCH  18  19
HETATM   19  C           1     -22.178  -7.100  -4.850  0.00  0.00     0.036 C 
BRANCH  19  20
HETATM   20  C           1     -22.002  -5.876  -5.739  0.00  0.00     0.004 C 
BRANCH  20  21
HETATM   21  C           1     -20.682  -5.192  -5.408  0.00  0.00     0.027 C 
BRANCH  21  22
HETATM   22  C           1     -19.974  -4.804  -6.699  0.00  0.00     0.229 C 
BRANCH  22  23
HETATM   23  N           1     -19.909  -5.992  -7.612  0.00  0.00    -0.079 N 
HETATM   24  H           1     -19.121  -6.612  -7.321  0.00  0.00     0.274 HD
HETATM   25  H           1     -19.755  -5.668  -8.593  0.00  0.00     0.274 HD
HETATM   26  H           1     -20.807  -6.522  -7.558  0.00  0.00     0.274 HD
ENDBRANCH  22  23
ENDBRANCH  21  22
ENDBRANCH  20  21
ENDBRANCH  19  20
ENDBRANCH  18  19
BRANCH  18  27
HETATM   27  C           1     -21.610  -6.787  -2.460  0.00  0.00     0.196 C 
HETATM   28  O           1     -22.452  -5.868  -2.350  0.00  0.00    -0.646 OA
HETATM   29  O           1     -21.226  -7.408  -1.446  0.00  0.00    -0.646 OA
ENDBRANCH  18  27
ENDBRANCH   4  18
TORSDOF 8
ENDMDL
