MODEL 1
REMARK VINA RESULT:      -6.0      0.000      0.000
REMARK  8 active torsions:
REMARK  status: ('A' for Active; 'I' for Inactive)
REMARK    1  A    between atoms: C_2  and  C_4 
REMARK    2  A    between atoms: C_4  and  C_5 
REMARK    3  A    between atoms: C_5  and  C_14 
REMARK    4  A    between atoms: C_5  and  N_11 
REMARK    5  A    between atoms: N_8  and  C_20 
REMARK    6  A    between atoms: S_9  and  C_16 
REMARK       I    between atoms: N_11  and  C_19 
REMARK    7  A    between atoms: C_16  and  C_20 
REMARK    8  A    between atoms: C_19  and  C_20 
ROOT
HETATM    1  O           1     -37.031  -1.083 -13.171  0.00  0.00    -0.271 OA
HETATM    2  H           1     -34.335   0.038 -12.022  0.00  0.00     0.163 HD
HETATM    3  N           1     -35.166  -0.538 -12.070  0.00  0.00    -0.345 N 
HETATM    4  C           1     -36.039  -0.395 -13.114  0.00  0.00     0.249 C 
ENDROOT
BRANCH   3   5
HETATM    5  C           1     -35.431  -1.515 -11.031  0.00  0.00     0.185 C 
BRANCH   5   6
HETATM    6  C           1     -34.113  -1.986 -10.431  0.00  0.00     0.040 C 
BRANCH   6   7
HETATM    7  C           1     -33.961  -3.485 -10.652  0.00  0.00    -0.020 C 
HETATM    8  C           1     -35.280  -4.060 -11.149  0.00  0.00     0.009 C 
HETATM    9  C           1     -32.873  -3.737 -11.688  0.00  0.00     0.009 C 
ENDBRANCH   6   7
ENDBRANCH   5   6
BRANCH   5  10
HETATM   10  C           1     -36.279  -0.885  -9.954  0.00  0.00     0.196 C 
HETATM   11  O           1     -35.736  -0.356  -8.960  0.00  0.00    -0.646 OA
HETATM   12  O           1     -37.525  -0.891 -10.056  0.00  0.00    -0.646 OA
ENDBRANCH   5  10
ENDBRANCH   3   5
BRANCH   4  13
HETATM   13  C           1     -35.764   0.621 -14.194  0.00  0.00     0.283 C 
BRANCH  13  14
HETATM   14  N           1     -34.323   0.537 -14.604  0.00  0.00    -0.066 N 
HETATM   15  H           1     -33.956  -0.420 -14.393  0.00  0.00     0.275 HD
HETATM   16  H           1     -34.241   0.722 -15.628  0.00  0.00     0.275 HD
HETATM   17  H           1     -33.769   1.246 -14.074  0.00  0.00     0.275 HD
ENDBRANCH  13  14
BRANCH  13  18
HETATM   18  C           1     -36.651   0.336 -15.399  0.00  0.00     0.113 C 
BRANCH  18  19
HETATM   19  S           1     -35.856  -0.904 -16.457  0.00  0.00    -0.180 SA
HETATM   20  H           1     -36.444  -1.972 -15.889  0.00  0.00     0.101 HD
ENDBRANCH  18  19
ENDBRANCH  13  18
ENDBRANCH   4  13
TORSDOF 8
ENDMDL
MODEL 2
REMARK VINA RESULT:      -5.7     12.352     14.343
REMARK  8 active torsions:
REMARK  status: ('A' for Active; 'I' for Inactive)
REMARK    1  A    between atoms: C_2  and  C_4 
REMARK    2  A    between atoms: C_4  and  C_5 
REMARK    3  A    between atoms: C_5  and  C_14 
REMARK    4  A    between atoms: C_5  and  N_11 
REMARK    5  A    between atoms: N_8  and  C_20 
REMARK    6  A    between atoms: S_9  and  C_16 
REMARK       I    between atoms: N_11  and  C_19 
REMARK    7  A    between atoms: C_16  and  C_20 
REMARK    8  A    between atoms: C_19  and  C_20 
ROOT
HETATM    1  O           1     -21.488  -3.308  -8.109  0.00  0.00    -0.271 OA
HETATM    2  H           1     -24.080  -5.002  -8.613  0.00  0.00     0.163 HD
HETATM    3  N           1     -23.331  -4.352  -8.815  0.00  0.00    -0.345 N 
HETATM    4  C           1     -22.382  -4.084  -7.866  0.00  0.00     0.249 C 
ENDROOT
BRANCH   3   5
HETATM    5  C           1     -23.264  -3.705 -10.112  0.00  0.00     0.185 C 
BRANCH   5   6
HETATM    6  C           1     -22.680  -4.673 -11.132  0.00  0.00     0.040 C 
BRANCH   6   7
HETATM    7  C           1     -21.365  -4.119 -11.663  0.00  0.00    -0.020 C 
HETATM    8  C           1     -21.387  -2.598 -11.585  0.00  0.00     0.009 C 
HETATM    9  C           1     -20.213  -4.654 -10.823  0.00  0.00     0.009 C 
ENDBRANCH   6   7
ENDBRANCH   5   6
BRANCH   5  10
HETATM   10  C           1     -24.652  -3.296 -10.541  0.00  0.00     0.196 C 
HETATM   11  O           1     -24.899  -3.099 -11.751  0.00  0.00    -0.646 OA
HETATM   12  O           1     -25.554  -3.156  -9.688  0.00  0.00    -0.646 OA
ENDBRANCH   5  10
ENDBRANCH   3   5
BRANCH   4  13
HETATM   13  C           1     -22.452  -4.758  -6.518  0.00  0.00     0.283 C 
BRANCH  13  14
HETATM   14  N           1     -23.869  -5.158  -6.233  0.00  0.00    -0.066 N 
HETATM   15  H           1     -24.339  -4.408  -5.676  0.00  0.00     0.275 HD
HETATM   16  H           1     -24.381  -5.294  -7.134  0.00  0.00     0.275 HD
HETATM   17  H           1     -23.875  -6.051  -5.690  0.00  0.00     0.275 HD
ENDBRANCH  13  14
BRANCH  13  18
HETATM   18  C           1     -21.566  -5.996  -6.522  0.00  0.00     0.113 C 
BRANCH  18  19
HETATM   19  S           1     -21.799  -6.913  -4.974  0.00  0.00    -0.180 SA
HETATM   20  H           1     -20.499  -7.202  -4.784  0.00  0.00     0.101 HD
ENDBRANCH  18  19
ENDBRANCH  13  18
ENDBRANCH   4  13
TORSDOF 8
ENDMDL
MODEL 3
REMARK VINA RESULT:      -5.6      2.688      4.734
REMARK  8 active torsions:
REMARK  status: ('A' for Active; 'I' for Inactive)
REMARK    1  A    between atoms: C_2  and  C_4 
REMARK    2  A    between atoms: C_4  and  C_5 
REMARK    3  A    between atoms: C_5  and  C_14 
REMARK    4  A    between atoms: C_5  and  N_11 
REMARK    5  A    between atoms: N_8  and  C_20 
REMARK    6  A    between atoms: S_9  and  C_16 
REMARK       I    between atoms: N_11  and  C_19 
REMARK    7  A    between atoms: C_16  and  C_20 
REMARK    8  A    between atoms: C_19  and  C_20 
ROOT
HETATM    1  O           1     -33.882  -1.432 -11.273  0.00  0.00    -0.271 OA
HETATM    2  H           1     -36.324  -2.447 -12.962  0.00  0.00     0.163 HD
HETATM    3  N           1     -35.735  -1.789 -12.468  0.00  0.00    -0.345 N 
HETATM    4  C           1     -34.585  -2.219 -11.863  0.00  0.00     0.249 C 
ENDROOT
BRANCH   3   5
HETATM    5  C           1     -36.110  -0.389 -12.402  0.00  0.00     0.185 C 
BRANCH   5   6
HETATM    6  C           1     -36.877  -0.010 -13.662  0.00  0.00     0.040 C 
BRANCH   6   7
HETATM    7  C           1     -35.928   0.645 -14.656  0.00  0.00    -0.020 C 
HETATM    8  C           1     -34.698   1.159 -13.920  0.00  0.00     0.009 C 
HETATM    9  C           1     -35.504  -0.378 -15.702  0.00  0.00     0.009 C 
ENDBRANCH   6   7
ENDBRANCH   5   6
BRANCH   5  10
HETATM   10  C           1     -36.983  -0.160 -11.192  0.00  0.00     0.196 C 
HETATM   11  O           1     -38.074  -0.761 -11.087  0.00  0.00    -0.646 OA
HETATM   12  O           1     -36.614   0.629 -10.296  0.00  0.00    -0.646 OA
ENDBRANCH   5  10
ENDBRANCH   3   5
BRANCH   4  13
HETATM   13  C           1     -34.195  -3.674 -11.932  0.00  0.00     0.283 C 
BRANCH  13  14
HETATM   14  N           1     -32.731  -3.813 -11.633  0.00  0.00    -0.066 N 
HETATM   15  H           1     -32.230  -2.946 -11.933  0.00  0.00     0.275 HD
HETATM   16  H           1     -32.597  -3.955 -10.607  0.00  0.00     0.275 HD
HETATM   17  H           1     -32.347  -4.635 -12.152  0.00  0.00     0.275 HD
ENDBRANCH  13  14
BRANCH  13  18
HETATM   18  C           1     -34.999  -4.466 -10.909  0.00  0.00     0.113 C 
BRANCH  18  19
HETATM   19  S           1     -34.232  -6.091 -10.661  0.00  0.00    -0.180 SA
HETATM   20  H           1     -33.670  -5.802  -9.474  0.00  0.00     0.101 HD
ENDBRANCH  18  19
ENDBRANCH  13  18
ENDBRANCH   4  13
TORSDOF 8
ENDMDL
MODEL 4
REMARK VINA RESULT:      -5.1     15.595     17.246
REMARK  8 active torsions:
REMARK  status: ('A' for Active; 'I' for Inactive)
REMARK    1  A    between atoms: C_2  and  C_4 
REMARK    2  A    between atoms: C_4  and  C_5 
REMARK    3  A    between atoms: C_5  and  C_14 
REMARK    4  A    between atoms: C_5  and  N_11 
REMARK    5  A    between atoms: N_8  and  C_20 
REMARK    6  A    between atoms: S_9  and  C_16 
REMARK       I    between atoms: N_11  and  C_19 
REMARK    7  A    between atoms: C_16  and  C_20 
REMARK    8  A    between atoms: C_19  and  C_20 
ROOT
HETATM    1  O           1     -20.450  -4.850  -5.636  0.00  0.00    -0.271 OA
HETATM    2  H           1     -21.308  -7.608  -6.862  0.00  0.00     0.163 HD
HETATM    3  N           1     -20.932  -6.962  -6.180  0.00  0.00    -0.345 N 
HETATM    4  C           1     -20.900  -5.621  -6.451  0.00  0.00     0.249 C 
ENDROOT
BRANCH   3   5
HETATM    5  C           1     -20.424  -7.459  -4.914  0.00  0.00     0.185 C 
BRANCH   5   6
HETATM    6  C           1     -21.569  -7.564  -3.916  0.00  0.00     0.040 C 
BRANCH   6   7
HETATM    7  C           1     -21.111  -7.043  -2.561  0.00  0.00    -0.020 C 
HETATM    8  C           1     -22.195  -6.153  -1.966  0.00  0.00     0.009 C 
HETATM    9  C           1     -20.850  -8.219  -1.627  0.00  0.00     0.009 C 
ENDBRANCH   6   7
ENDBRANCH   5   6
BRANCH   5  10
HETATM   10  C           1     -19.808  -8.821  -5.120  0.00  0.00     0.196 C 
HETATM   11  O           1     -18.673  -9.069  -4.659  0.00  0.00    -0.646 OA
HETATM   12  O           1     -20.432  -9.700  -5.752  0.00  0.00    -0.646 OA
ENDBRANCH   5  10
ENDBRANCH   3   5
BRANCH   4  13
HETATM   13  C           1     -21.427  -5.105  -7.767  0.00  0.00     0.283 C 
BRANCH  13  14
HETATM   14  N           1     -22.282  -3.896  -7.523  0.00  0.00    -0.066 N 
HETATM   15  H           1     -23.287  -4.182  -7.481  0.00  0.00     0.275 HD
HETATM   16  H           1     -22.009  -3.454  -6.617  0.00  0.00     0.275 HD
HETATM   17  H           1     -22.146  -3.212  -8.301  0.00  0.00     0.275 HD
ENDBRANCH  13  14
BRANCH  13  18
HETATM   18  C           1     -20.260  -4.727  -8.669  0.00  0.00     0.113 C 
BRANCH  18  19
HETATM   19  S           1     -20.893  -4.159 -10.272  0.00  0.00    -0.180 SA
HETATM   20  H           1     -19.832  -4.564 -10.993  0.00  0.00     0.101 HD
ENDBRANCH  18  19
ENDBRANCH  13  18
ENDBRANCH   4  13
TORSDOF 8
ENDMDL
MODEL 5
REMARK VINA RESULT:      -5.1     12.834     14.829
REMARK  8 active torsions:
REMARK  status: ('A' for Active; 'I' for Inactive)
REMARK    1  A    between atoms: C_2  and  C_4 
REMARK    2  A    between atoms: C_4  and  C_5 
REMARK    3  A    between atoms: C_5  and  C_14 
REMARK    4  A    between atoms: C_5  and  N_11 
REMARK    5  A    between atoms: N_8  and  C_20 
REMARK    6  A    between atoms: S_9  and  C_16 
REMARK       I    between atoms: N_11  and  C_19 
REMARK    7  A    between atoms: C_16  and  C_20 
REMARK    8  A    between atoms: C_19  and  C_20 
ROOT
HETATM    1  O           1     -21.729  -3.092  -7.233  0.00  0.00    -0.271 OA
HETATM    2  H           1     -22.696  -5.747  -8.597  0.00  0.00     0.163 HD
HETATM    3  N           1     -22.547  -4.753  -8.482  0.00  0.00    -0.345 N 
HETATM    4  C           1     -21.907  -4.280  -7.369  0.00  0.00     0.249 C 
ENDROOT
BRANCH   3   5
HETATM    5  C           1     -23.015  -3.829  -9.498  0.00  0.00     0.185 C 
BRANCH   5   6
HETATM    6  C           1     -22.458  -4.242 -10.854  0.00  0.00     0.040 C 
BRANCH   6   7
HETATM    7  C           1     -21.948  -3.011 -11.590  0.00  0.00    -0.020 C 
HETATM    8  C           1     -20.427  -2.971 -11.520  0.00  0.00     0.009 C 
HETATM    9  C           1     -22.388  -3.073 -13.047  0.00  0.00     0.009 C 
ENDBRANCH   6   7
ENDBRANCH   5   6
BRANCH   5  10
HETATM   10  C           1     -24.523  -3.854  -9.544  0.00  0.00     0.196 C 
HETATM   11  O           1     -25.127  -4.944  -9.654  0.00  0.00    -0.646 OA
HETATM   12  O           1     -25.168  -2.786  -9.470  0.00  0.00    -0.646 OA
ENDBRANCH   5  10
ENDBRANCH   3   5
BRANCH   4  13
HETATM   13  C           1     -21.421  -5.241  -6.313  0.00  0.00     0.283 C 
BRANCH  13  14
HETATM   14  N           1     -21.253  -6.604  -6.917  0.00  0.00    -0.066 N 
HETATM   15  H           1     -22.101  -6.842  -7.481  0.00  0.00     0.275 HD
HETATM   16  H           1     -20.411  -6.610  -7.534  0.00  0.00     0.275 HD
HETATM   17  H           1     -21.134  -7.309  -6.155  0.00  0.00     0.275 HD
ENDBRANCH  13  14
BRANCH  13  18
HETATM   18  C           1     -20.083  -4.761  -5.766  0.00  0.00     0.113 C 
BRANCH  18  19
HETATM   19  S           1     -18.864  -4.704  -7.108  0.00  0.00    -0.180 SA
HETATM   20  H           1     -17.832  -4.305  -6.345  0.00  0.00     0.101 HD
ENDBRANCH  18  19
ENDBRANCH  13  18
ENDBRANCH   4  13
TORSDOF 8
ENDMDL
MODEL 6
REMARK VINA RESULT:      -5.0     15.182     17.247
REMARK  8 active torsions:
REMARK  status: ('A' for Active; 'I' for Inactive)
REMARK    1  A    between atoms: C_2  and  C_4 
REMARK    2  A    between atoms: C_4  and  C_5 
REMARK    3  A    between atoms: C_5  and  C_14 
REMARK    4  A    between atoms: C_5  and  N_11 
REMARK    5  A    between atoms: N_8  and  C_20 
REMARK    6  A    between atoms: S_9  and  C_16 
REMARK       I    between atoms: N_11  and  C_19 
REMARK    7  A    between atoms: C_16  and  C_20 
REMARK    8  A    between atoms: C_19  and  C_20 
ROOT
HETATM    1  O           1     -21.549  -7.492  -4.803  0.00  0.00    -0.271 OA
HETATM    2  H           1     -20.858  -4.433  -4.709  0.00  0.00     0.163 HD
HETATM    3  N           1     -21.058  -5.336  -5.119  0.00  0.00    -0.345 N 
HETATM    4  C           1     -21.309  -6.414  -4.313  0.00  0.00     0.249 C 
ENDROOT
BRANCH   3   5
HETATM    5  C           1     -21.079  -5.489  -6.562  0.00  0.00     0.185 C 
BRANCH   5   6
HETATM    6  C           1     -21.674  -4.238  -7.195  0.00  0.00     0.040 C 
BRANCH   6   7
HETATM    7  C           1     -22.283  -4.592  -8.545  0.00  0.00    -0.020 C 
HETATM    8  C           1     -23.696  -4.031  -8.627  0.00  0.00     0.009 C 
HETATM    9  C           1     -21.432  -3.992  -9.657  0.00  0.00     0.009 C 
ENDBRANCH   6   7
ENDBRANCH   5   6
BRANCH   5  10
HETATM   10  C           1     -19.671  -5.688  -7.066  0.00  0.00     0.196 C 
HETATM   11  O           1     -19.217  -6.845  -7.211  0.00  0.00    -0.646 OA
HETATM   12  O           1     -18.959  -4.698  -7.339  0.00  0.00    -0.646 OA
ENDBRANCH   5  10
ENDBRANCH   3   5
BRANCH   4  13
HETATM   13  C           1     -21.287  -6.255  -2.813  0.00  0.00     0.283 C 
BRANCH  13  14
HETATM   14  N           1     -22.659  -5.886  -2.330  0.00  0.00    -0.066 N 
HETATM   15  H           1     -22.780  -6.209  -1.343  0.00  0.00     0.275 HD
HETATM   16  H           1     -22.777  -4.850  -2.374  0.00  0.00     0.275 HD
HETATM   17  H           1     -23.376  -6.346  -2.936  0.00  0.00     0.275 HD
ENDBRANCH  13  14
BRANCH  13  18
HETATM   18  C           1     -20.859  -7.567  -2.169  0.00  0.00     0.113 C 
BRANCH  18  19
HETATM   19  S           1     -21.986  -7.970  -0.806  0.00  0.00    -0.180 SA
HETATM   20  H           1     -22.458  -6.722  -0.640  0.00  0.00     0.101 HD
ENDBRANCH  18  19
ENDBRANCH  13  18
ENDBRANCH   4  13
TORSDOF 8
ENDMDL
MODEL 7
REMARK VINA RESULT:      -4.8     16.158     18.083
REMARK  8 active torsions:
REMARK  status: ('A' for Active; 'I' for Inactive)
REMARK    1  A    between atoms: C_2  and  C_4 
REMARK    2  A    between atoms: C_4  and  C_5 
REMARK    3  A    between atoms: C_5  and  C_14 
REMARK    4  A    between atoms: C_5  and  N_11 
REMARK    5  A    between atoms: N_8  and  C_20 
REMARK    6  A    between atoms: S_9  and  C_16 
REMARK       I    between atoms: N_11  and  C_19 
REMARK    7  A    between atoms: C_16  and  C_20 
REMARK    8  A    between atoms: C_19  and  C_20 
ROOT
HETATM    1  O           1     -19.465  -8.581  -4.045  0.00  0.00    -0.271 OA
HETATM    2  H           1     -21.380  -8.528  -6.530  0.00  0.00     0.163 HD
HETATM    3  N           1     -20.821  -8.162  -5.769  0.00  0.00    -0.345 N 
HETATM    4  C           1     -20.132  -9.018  -4.953  0.00  0.00     0.249 C 
ENDROOT
BRANCH   3   5
HETATM    5  C           1     -20.753  -6.731  -5.543  0.00  0.00     0.185 C 
BRANCH   5   6
HETATM    6  C           1     -20.833  -6.003  -6.878  0.00  0.00     0.040 C 
BRANCH   6   7
HETATM    7  C           1     -20.298  -4.586  -6.717  0.00  0.00    -0.020 C 
HETATM    8  C           1     -19.014  -4.434  -7.522  0.00  0.00     0.009 C 
HETATM    9  C           1     -21.335  -3.592  -7.222  0.00  0.00     0.009 C 
ENDBRANCH   6   7
ENDBRANCH   5   6
BRANCH   5  10
HETATM   10  C           1     -21.905  -6.305  -4.666  0.00  0.00     0.196 C 
HETATM   11  O           1     -21.704  -6.015  -3.467  0.00  0.00    -0.646 OA
HETATM   12  O           1     -23.060  -6.242  -5.139  0.00  0.00    -0.646 OA
ENDBRANCH   5  10
ENDBRANCH   3   5
BRANCH   4  13
HETATM   13  C           1     -20.203 -10.506  -5.188  0.00  0.00     0.283 C 
BRANCH  13  14
HETATM   14  N           1     -21.146 -10.788  -6.320  0.00  0.00    -0.066 N 
HETATM   15  H           1     -22.129 -10.795  -5.962  0.00  0.00     0.275 HD
HETATM   16  H           1     -21.048 -10.047  -7.049  0.00  0.00     0.275 HD
HETATM   17  H           1     -20.921 -11.720  -6.736  0.00  0.00     0.275 HD
ENDBRANCH  13  14
BRANCH  13  18
HETATM   18  C           1     -18.818 -11.033  -5.540  0.00  0.00     0.113 C 
BRANCH  18  19
HETATM   19  S           1     -18.917 -12.048  -7.040  0.00  0.00    -0.180 SA
HETATM   20  H           1     -20.260 -12.085  -7.096  0.00  0.00     0.101 HD
ENDBRANCH  18  19
ENDBRANCH  13  18
ENDBRANCH   4  13
TORSDOF 8
ENDMDL
MODEL 8
REMARK VINA RESULT:      -4.8     16.778     18.580
REMARK  8 active torsions:
REMARK  status: ('A' for Active; 'I' for Inactive)
REMARK    1  A    between atoms: C_2  and  C_4 
REMARK    2  A    between atoms: C_4  and  C_5 
REMARK    3  A    between atoms: C_5  and  C_14 
REMARK    4  A    between atoms: C_5  and  N_11 
REMARK    5  A    between atoms: N_8  and  C_20 
REMARK    6  A    between atoms: S_9  and  C_16 
REMARK       I    between atoms: N_11  and  C_19 
REMARK    7  A    between atoms: C_16  and  C_20 
REMARK    8  A    between atoms: C_19  and  C_20 
ROOT
HETATM    1  O           1     -21.349  -5.950  -2.871  0.00  0.00    -0.271 OA
HETATM    2  H           1     -21.060  -8.841  -4.053  0.00  0.00     0.163 HD
HETATM    3  N           1     -21.019  -8.103  -3.363  0.00  0.00    -0.345 N 
HETATM    4  C           1     -21.399  -6.831  -3.696  0.00  0.00     0.249 C 
ENDROOT
BRANCH   3   5
HETATM    5  C           1     -20.556  -8.393  -2.018  0.00  0.00     0.185 C 
BRANCH   5   6
HETATM    6  C           1     -21.713  -8.935  -1.190  0.00  0.00     0.040 C 
BRANCH   6   7
HETATM    7  C           1     -21.838  -8.128   0.096  0.00  0.00    -0.020 C 
HETATM    8  C           1     -23.305  -8.035   0.494  0.00  0.00     0.009 C 
HETATM    9  C           1     -21.053  -8.816   1.205  0.00  0.00     0.009 C 
ENDBRANCH   6   7
ENDBRANCH   5   6
BRANCH   5  10
HETATM   10  C           1     -19.453  -9.421  -2.078  0.00  0.00     0.196 C 
HETATM   11  O           1     -19.622 -10.549  -1.565  0.00  0.00    -0.646 OA
HETATM   12  O           1     -18.372  -9.147  -2.642  0.00  0.00    -0.646 OA
ENDBRANCH   5  10
ENDBRANCH   3   5
BRANCH   4  13
HETATM   13  C           1     -21.880  -6.530  -5.094  0.00  0.00     0.283 C 
BRANCH  13  14
HETATM   14  N           1     -23.316  -6.097  -5.045  0.00  0.00    -0.066 N 
HETATM   15  H           1     -23.935  -6.918  -5.231  0.00  0.00     0.275 HD
HETATM   16  H           1     -23.530  -5.707  -4.100  0.00  0.00     0.275 HD
HETATM   17  H           1     -23.482  -5.364  -5.771  0.00  0.00     0.275 HD
ENDBRANCH  13  14
BRANCH  13  18
HETATM   18  C           1     -21.034  -5.415  -5.694  0.00  0.00     0.113 C 
BRANCH  18  19
HETATM   19  S           1     -21.900  -4.695  -7.116  0.00  0.00    -0.180 SA
HETATM   20  H           1     -22.897  -4.136  -6.406  0.00  0.00     0.101 HD
ENDBRANCH  18  19
ENDBRANCH  13  18
ENDBRANCH   4  13
TORSDOF 8
ENDMDL
MODEL 9
REMARK VINA RESULT:      -4.8     17.850     19.050
REMARK  8 active torsions:
REMARK  status: ('A' for Active; 'I' for Inactive)
REMARK    1  A    between atoms: C_2  and  C_4 
REMARK    2  A    between atoms: C_4  and  C_5 
REMARK    3  A    between atoms: C_5  and  C_14 
REMARK    4  A    between atoms: C_5  and  N_11 
REMARK    5  A    between atoms: N_8  and  C_20 
REMARK    6  A    between atoms: S_9  and  C_16 
REMARK       I    between atoms: N_11  and  C_19 
REMARK    7  A    between atoms: C_16  and  C_20 
REMARK    8  A    between atoms: C_19  and  C_20 
ROOT
HETATM    1  O           1     -22.142 -10.184  -3.537  0.00  0.00    -0.271 OA
HETATM    2  H           1     -19.900  -7.996  -3.370  0.00  0.00     0.163 HD
HETATM    3  N           1     -20.775  -8.459  -3.159  0.00  0.00    -0.345 N 
HETATM    4  C           1     -21.097  -9.631  -3.788  0.00  0.00     0.249 C 
ENDROOT
BRANCH   3   5
HETATM    5  C           1     -21.687  -7.880  -2.191  0.00  0.00     0.185 C 
BRANCH   5   6
HETATM    6  C           1     -21.020  -7.848  -0.822  0.00  0.00     0.040 C 
BRANCH   6   7
HETATM    7  C           1     -21.772  -8.769   0.130  0.00  0.00    -0.020 C 
HETATM    8  C           1     -20.980  -8.917   1.422  0.00  0.00     0.009 C 
HETATM    9  C           1     -23.139  -8.172   0.438  0.00  0.00     0.009 C 
ENDBRANCH   6   7
ENDBRANCH   5   6
BRANCH   5  10
HETATM   10  C           1     -22.040  -6.475  -2.613  0.00  0.00     0.196 C 
HETATM   11  O           1     -22.342  -5.621  -1.750  0.00  0.00    -0.646 OA
HETATM   12  O           1     -22.030  -6.164  -3.823  0.00  0.00    -0.646 OA
ENDBRANCH   5  10
ENDBRANCH   3   5
BRANCH   4  13
HETATM   13  C           1     -20.149 -10.233  -4.795  0.00  0.00     0.283 C 
BRANCH  13  14
HETATM   14  N           1     -20.882 -10.495  -6.077  0.00  0.00    -0.066 N 
HETATM   15  H           1     -21.043  -9.592  -6.578  0.00  0.00     0.275 HD
HETATM   16  H           1     -20.312 -11.130  -6.680  0.00  0.00     0.275 HD
HETATM   17  H           1     -21.801 -10.945  -5.866  0.00  0.00     0.275 HD
ENDBRANCH  13  14
BRANCH  13  18
HETATM   18  C           1     -19.002  -9.265  -5.055  0.00  0.00     0.113 C 
BRANCH  18  19
HETATM   19  S           1     -17.472  -9.932  -4.345  0.00  0.00    -0.180 SA
HETATM   20  H           1     -16.690  -9.646  -5.400  0.00  0.00     0.101 HD
ENDBRANCH  18  19
ENDBRANCH  13  18
ENDBRANCH   4  13
TORSDOF 8
ENDMDL
