MODEL 1
REMARK VINA RESULT:      -7.1      0.000      0.000
REMARK  10 active torsions:
REMARK  status: ('A' for Active; 'I' for Inactive)
REMARK       I    between atoms: N_1  and  C_11 
REMARK    1  A    between atoms: C_2  and  C_3 
REMARK    2  A    between atoms: C_3  and  C_4 
REMARK    3  A    between atoms: C_3  and  N_7 
REMARK    4  A    between atoms: C_4  and  C_14 
REMARK    5  A    between atoms: C_5  and  C_6 
REMARK    6  A    between atoms: C_5  and  C_10 
REMARK    7  A    between atoms: C_5  and  N_22 
REMARK       I    between atoms: C_6  and  N_7 
REMARK    8  A    between atoms: C_8  and  C_9 
REMARK       I    between atoms: C_8  and  N_18 
REMARK    9  A    between atoms: C_9  and  C_10 
REMARK   10  A    between atoms: C_11  and  C_14 
ROOT
HETATM    1  C           1     -21.751  -4.750  -7.724  0.00  0.00     0.249 C 
HETATM    2  N           1     -22.159  -4.921  -9.019  0.00  0.00    -0.345 N 
HETATM    3  H           1     -22.100  -5.834  -9.452  0.00  0.00     0.163 HD
HETATM    4  O           1     -21.823  -3.660  -7.206  0.00  0.00    -0.271 OA
ENDROOT
BRANCH   1   5
HETATM    5  C           1     -21.211  -5.922  -6.942  0.00  0.00     0.275 C 
BRANCH   5   6
HETATM    6  C           1     -21.204  -5.583  -5.457  0.00  0.00     0.052 C 
BRANCH   6   7
HETATM    7  C           1     -22.159  -6.511  -4.719  0.00  0.00     0.105 C 
BRANCH   7   8
HETATM    8  C           1     -21.743  -6.616  -3.273  0.00  0.00     0.215 C 
HETATM    9  N           1     -22.396  -5.884  -2.317  0.00  0.00    -0.370 N 
HETATM   10  H           1     -22.116  -5.955  -1.347  0.00  0.00     0.159 HD
HETATM   11  H           1     -23.157  -5.273  -2.580  0.00  0.00     0.159 HD
HETATM   12  O           1     -20.834  -7.347  -2.958  0.00  0.00    -0.274 OA
ENDBRANCH   7   8
ENDBRANCH   6   7
ENDBRANCH   5   6
BRANCH   5  13
HETATM   13  N           1     -19.812  -6.222  -7.392  0.00  0.00    -0.066 N 
HETATM   14  H           1     -19.368  -6.895  -6.728  0.00  0.00     0.275 HD
HETATM   15  H           1     -19.837  -6.641  -8.348  0.00  0.00     0.275 HD
HETATM   16  H           1     -19.256  -5.336  -7.414  0.00  0.00     0.275 HD
ENDBRANCH   5  13
ENDBRANCH   1   5
BRANCH   2  17
HETATM   17  C           1     -22.679  -3.796  -9.770  0.00  0.00     0.186 C 
BRANCH  17  18
HETATM   18  C           1     -24.187  -3.821  -9.737  0.00  0.00     0.196 C 
HETATM   19  O           1     -24.824  -2.777  -9.479  0.00  0.00    -0.646 OA
HETATM   20  O           1     -24.799  -4.886  -9.966  0.00  0.00    -0.646 OA
ENDBRANCH  17  18
BRANCH  17  21
HETATM   21  C           1     -22.201  -3.885 -11.213  0.00  0.00     0.045 C 
BRANCH  21  22
HETATM   22  C           1     -22.474  -2.565 -11.922  0.00  0.00     0.105 C 
BRANCH  22  23
HETATM   23  C           1     -23.242  -2.826 -13.195  0.00  0.00     0.215 C 
HETATM   24  N           1     -22.571  -3.088 -14.358  0.00  0.00    -0.370 N 
HETATM   25  H           1     -21.559  -3.107 -14.365  0.00  0.00     0.159 HD
HETATM   26  H           1     -23.086  -3.263 -15.211  0.00  0.00     0.159 HD
HETATM   27  O           1     -24.450  -2.803 -13.186  0.00  0.00    -0.274 OA
ENDBRANCH  22  23
ENDBRANCH  21  22
ENDBRANCH  17  21
ENDBRANCH   2  17
TORSDOF 10
ENDMDL
MODEL 2
REMARK VINA RESULT:      -6.3      2.065      7.479
REMARK  10 active torsions:
REMARK  status: ('A' for Active; 'I' for Inactive)
REMARK       I    between atoms: N_1  and  C_11 
REMARK    1  A    between atoms: C_2  and  C_3 
REMARK    2  A    between atoms: C_3  and  C_4 
REMARK    3  A    between atoms: C_3  and  N_7 
REMARK    4  A    between atoms: C_4  and  C_14 
REMARK    5  A    between atoms: C_5  and  C_6 
REMARK    6  A    between atoms: C_5  and  C_10 
REMARK    7  A    between atoms: C_5  and  N_22 
REMARK       I    between atoms: C_6  and  N_7 
REMARK    8  A    between atoms: C_8  and  C_9 
REMARK       I    between atoms: C_8  and  N_18 
REMARK    9  A    between atoms: C_9  and  C_10 
REMARK   10  A    between atoms: C_11  and  C_14 
ROOT
HETATM    1  C           1     -22.316  -4.205  -8.276  0.00  0.00     0.249 C 
HETATM    2  N           1     -22.069  -4.965  -7.164  0.00  0.00    -0.345 N 
HETATM    3  H           1     -22.724  -5.686  -6.889  0.00  0.00     0.163 HD
HETATM    4  O           1     -21.534  -3.345  -8.605  0.00  0.00    -0.271 OA
ENDROOT
BRANCH   1   5
HETATM    5  C           1     -23.564  -4.441  -9.089  0.00  0.00     0.275 C 
BRANCH   5   6
HETATM    6  C           1     -23.200  -4.532 -10.566  0.00  0.00     0.052 C 
BRANCH   6   7
HETATM    7  C           1     -23.717  -3.298 -11.293  0.00  0.00     0.105 C 
BRANCH   7   8
HETATM    8  C           1     -23.448  -3.435 -12.771  0.00  0.00     0.215 C 
HETATM    9  N           1     -22.164  -3.365 -13.242  0.00  0.00    -0.370 N 
HETATM   10  H           1     -21.983  -3.457 -14.234  0.00  0.00     0.159 HD
HETATM   11  H           1     -21.396  -3.221 -12.600  0.00  0.00     0.159 HD
HETATM   12  O           1     -24.364  -3.607 -13.539  0.00  0.00    -0.274 OA
ENDBRANCH   7   8
ENDBRANCH   6   7
ENDBRANCH   5   6
BRANCH   5  13
HETATM   13  N           1     -24.520  -3.305  -8.879  0.00  0.00    -0.066 N 
HETATM   14  H           1     -24.866  -2.965  -9.805  0.00  0.00     0.275 HD
HETATM   15  H           1     -25.328  -3.631  -8.305  0.00  0.00     0.275 HD
HETATM   16  H           1     -24.030  -2.525  -8.383  0.00  0.00     0.275 HD
ENDBRANCH   5  13
ENDBRANCH   1   5
BRANCH   2  17
HETATM   17  C           1     -20.869  -4.738  -6.383  0.00  0.00     0.186 C 
BRANCH  17  18
HETATM   18  C           1     -19.666  -5.217  -7.157  0.00  0.00     0.196 C 
HETATM   19  O           1     -18.686  -4.458  -7.322  0.00  0.00    -0.646 OA
HETATM   20  O           1     -19.649  -6.372  -7.635  0.00  0.00    -0.646 OA
ENDBRANCH  17  18
BRANCH  17  21
HETATM   21  C           1     -20.967  -5.504  -5.070  0.00  0.00     0.045 C 
BRANCH  21  22
HETATM   22  C           1     -22.051  -6.568  -5.181  0.00  0.00     0.105 C 
BRANCH  22  23
HETATM   23  C           1     -21.450  -7.929  -4.933  0.00  0.00     0.215 C 
HETATM   24  N           1     -20.348  -8.330  -5.639  0.00  0.00    -0.370 N 
HETATM   25  H           1     -19.937  -7.713  -6.328  0.00  0.00     0.159 HD
HETATM   26  H           1     -19.945  -9.243  -5.472  0.00  0.00     0.159 HD
HETATM   27  O           1     -21.941  -8.665  -4.110  0.00  0.00    -0.274 OA
ENDBRANCH  22  23
ENDBRANCH  21  22
ENDBRANCH  17  21
ENDBRANCH   2  17
TORSDOF 10
ENDMDL
MODEL 3
REMARK VINA RESULT:      -6.3      1.956      8.112
REMARK  10 active torsions:
REMARK  status: ('A' for Active; 'I' for Inactive)
REMARK       I    between atoms: N_1  and  C_11 
REMARK    1  A    between atoms: C_2  and  C_3 
REMARK    2  A    between atoms: C_3  and  C_4 
REMARK    3  A    between atoms: C_3  and  N_7 
REMARK    4  A    between atoms: C_4  and  C_14 
REMARK    5  A    between atoms: C_5  and  C_6 
REMARK    6  A    between atoms: C_5  and  C_10 
REMARK    7  A    between atoms: C_5  and  N_22 
REMARK       I    between atoms: C_6  and  N_7 
REMARK    8  A    between atoms: C_8  and  C_9 
REMARK       I    between atoms: C_8  and  N_18 
REMARK    9  A    between atoms: C_9  and  C_10 
REMARK   10  A    between atoms: C_11  and  C_14 
ROOT
HETATM    1  C           1     -21.355  -5.063  -7.060  0.00  0.00     0.249 C 
HETATM    2  N           1     -21.529  -6.312  -6.527  0.00  0.00    -0.345 N 
HETATM    3  H           1     -22.051  -7.012  -7.037  0.00  0.00     0.163 HD
HETATM    4  O           1     -20.731  -4.227  -6.450  0.00  0.00    -0.271 OA
ENDROOT
BRANCH   1   5
HETATM    5  C           1     -21.943  -4.730  -8.409  0.00  0.00     0.275 C 
BRANCH   5   6
HETATM    6  C           1     -20.948  -3.898  -9.206  0.00  0.00     0.052 C 
BRANCH   6   7
HETATM    7  C           1     -20.887  -4.413 -10.638  0.00  0.00     0.105 C 
BRANCH   7   8
HETATM    8  C           1     -21.780  -3.570 -11.515  0.00  0.00     0.215 C 
HETATM    9  N           1     -21.674  -3.651 -12.878  0.00  0.00    -0.370 N 
HETATM   10  H           1     -22.273  -3.086 -13.466  0.00  0.00     0.159 HD
HETATM   11  H           1     -20.997  -4.275 -13.297  0.00  0.00     0.159 HD
HETATM   12  O           1     -22.589  -2.826 -11.015  0.00  0.00    -0.274 OA
ENDBRANCH   7   8
ENDBRANCH   6   7
ENDBRANCH   5   6
BRANCH   5  13
HETATM   13  N           1     -23.211  -3.950  -8.223  0.00  0.00    -0.066 N 
HETATM   14  H           1     -23.016  -3.101  -7.647  0.00  0.00     0.275 HD
HETATM   15  H           1     -23.581  -3.661  -9.155  0.00  0.00     0.275 HD
HETATM   16  H           1     -23.918  -4.547  -7.736  0.00  0.00     0.275 HD
ENDBRANCH   5  13
ENDBRANCH   1   5
BRANCH   2  17
HETATM   17  C           1     -20.964  -6.632  -5.231  0.00  0.00     0.186 C 
BRANCH  17  18
HETATM   18  C           1     -20.424  -8.041  -5.251  0.00  0.00     0.196 C 
HETATM   19  O           1     -19.299  -8.273  -5.745  0.00  0.00    -0.646 OA
HETATM   20  O           1     -21.102  -8.976  -4.775  0.00  0.00    -0.646 OA
ENDBRANCH  17  18
BRANCH  17  21
HETATM   21  C           1     -22.043  -6.516  -4.163  0.00  0.00     0.045 C 
BRANCH  21  22
HETATM   22  C           1     -21.408  -6.122  -2.837  0.00  0.00     0.105 C 
BRANCH  22  23
HETATM   23  C           1     -21.885  -7.055  -1.751  0.00  0.00     0.215 C 
HETATM   24  N           1     -21.456  -8.354  -1.728  0.00  0.00    -0.370 N 
HETATM   25  H           1     -20.818  -8.689  -2.439  0.00  0.00     0.159 HD
HETATM   26  H           1     -21.776  -8.980  -1.000  0.00  0.00     0.159 HD
HETATM   27  O           1     -22.646  -6.655  -0.903  0.00  0.00    -0.274 OA
ENDBRANCH  22  23
ENDBRANCH  21  22
ENDBRANCH  17  21
ENDBRANCH   2  17
TORSDOF 10
ENDMDL
MODEL 4
REMARK VINA RESULT:      -6.1      2.627      7.798
REMARK  10 active torsions:
REMARK  status: ('A' for Active; 'I' for Inactive)
REMARK       I    between atoms: N_1  and  C_11 
REMARK    1  A    between atoms: C_2  and  C_3 
REMARK    2  A    between atoms: C_3  and  C_4 
REMARK    3  A    between atoms: C_3  and  N_7 
REMARK    4  A    between atoms: C_4  and  C_14 
REMARK    5  A    between atoms: C_5  and  C_6 
REMARK    6  A    between atoms: C_5  and  C_10 
REMARK    7  A    between atoms: C_5  and  N_22 
REMARK       I    between atoms: C_6  and  N_7 
REMARK    8  A    between atoms: C_8  and  C_9 
REMARK       I    between atoms: C_8  and  N_18 
REMARK    9  A    between atoms: C_9  and  C_10 
REMARK   10  A    between atoms: C_11  and  C_14 
ROOT
HETATM    1  C           1     -21.390  -5.543  -5.761  0.00  0.00     0.249 C 
HETATM    2  N           1     -20.790  -6.445  -4.926  0.00  0.00    -0.345 N 
HETATM    3  H           1     -19.781  -6.493  -4.873  0.00  0.00     0.163 HD
HETATM    4  O           1     -22.596  -5.485  -5.824  0.00  0.00    -0.271 OA
ENDROOT
BRANCH   1   5
HETATM    5  C           1     -20.546  -4.619  -6.605  0.00  0.00     0.275 C 
BRANCH   5   6
HETATM    6  C           1     -21.445  -3.617  -7.317  0.00  0.00     0.052 C 
BRANCH   6   7
HETATM    7  C           1     -21.568  -3.999  -8.786  0.00  0.00     0.105 C 
BRANCH   7   8
HETATM    8  C           1     -23.006  -4.330  -9.102  0.00  0.00     0.215 C 
HETATM    9  N           1     -23.994  -4.008  -8.210  0.00  0.00    -0.370 N 
HETATM   10  H           1     -24.959  -4.230  -8.422  0.00  0.00     0.159 HD
HETATM   11  H           1     -23.761  -3.549  -7.339  0.00  0.00     0.159 HD
HETATM   12  O           1     -23.286  -4.877 -10.141  0.00  0.00    -0.274 OA
ENDBRANCH   7   8
ENDBRANCH   6   7
ENDBRANCH   5   6
BRANCH   5  13
HETATM   13  N           1     -19.790  -5.422  -7.621  0.00  0.00    -0.066 N 
HETATM   14  H           1     -18.893  -5.757  -7.203  0.00  0.00     0.275 HD
HETATM   15  H           1     -20.365  -6.242  -7.914  0.00  0.00     0.275 HD
HETATM   16  H           1     -19.584  -4.824  -8.454  0.00  0.00     0.275 HD
ENDBRANCH   5  13
ENDBRANCH   1   5
BRANCH   2  17
HETATM   17  C           1     -21.601  -7.333  -4.115  0.00  0.00     0.186 C 
BRANCH  17  18
HETATM   18  C           1     -21.627  -6.831  -2.692  0.00  0.00     0.196 C 
HETATM   19  O           1     -20.860  -7.328  -1.839  0.00  0.00    -0.646 OA
HETATM   20  O           1     -22.417  -5.919  -2.366  0.00  0.00    -0.646 OA
ENDBRANCH  17  18
BRANCH  17  21
HETATM   21  C           1     -21.008  -8.735  -4.148  0.00  0.00     0.045 C 
BRANCH  21  22
HETATM   22  C           1     -19.692  -8.712  -4.915  0.00  0.00     0.105 C 
BRANCH  22  23
HETATM   23  C           1     -18.593  -9.272  -4.047  0.00  0.00     0.215 C 
HETATM   24  N           1     -18.703  -9.219  -2.684  0.00  0.00    -0.370 N 
HETATM   25  H           1     -19.522  -8.805  -2.258  0.00  0.00     0.159 HD
HETATM   26  H           1     -17.965  -9.595  -2.101  0.00  0.00     0.159 HD
HETATM   27  O           1     -17.615  -9.767  -4.555  0.00  0.00    -0.274 OA
ENDBRANCH  22  23
ENDBRANCH  21  22
ENDBRANCH  17  21
ENDBRANCH   2  17
TORSDOF 10
ENDMDL
MODEL 5
REMARK VINA RESULT:      -6.1      2.386      3.551
REMARK  10 active torsions:
REMARK  status: ('A' for Active; 'I' for Inactive)
REMARK       I    between atoms: N_1  and  C_11 
REMARK    1  A    between atoms: C_2  and  C_3 
REMARK    2  A    between atoms: C_3  and  C_4 
REMARK    3  A    between atoms: C_3  and  N_7 
REMARK    4  A    between atoms: C_4  and  C_14 
REMARK    5  A    between atoms: C_5  and  C_6 
REMARK    6  A    between atoms: C_5  and  C_10 
REMARK    7  A    between atoms: C_5  and  N_22 
REMARK       I    between atoms: C_6  and  N_7 
REMARK    8  A    between atoms: C_8  and  C_9 
REMARK       I    between atoms: C_8  and  N_18 
REMARK    9  A    between atoms: C_9  and  C_10 
REMARK   10  A    between atoms: C_11  and  C_14 
ROOT
HETATM    1  C           1     -21.253  -6.040  -6.312  0.00  0.00     0.249 C 
HETATM    2  N           1     -21.634  -4.874  -6.918  0.00  0.00    -0.345 N 
HETATM    3  H           1     -21.872  -4.066  -6.358  0.00  0.00     0.163 HD
HETATM    4  O           1     -20.969  -7.005  -6.981  0.00  0.00    -0.271 OA
ENDROOT
BRANCH   1   5
HETATM    5  C           1     -21.188  -6.121  -4.807  0.00  0.00     0.275 C 
BRANCH   5   6
HETATM    6  C           1     -20.438  -7.382  -4.397  0.00  0.00     0.052 C 
BRANCH   6   7
HETATM    7  C           1     -21.390  -8.329  -3.680  0.00  0.00     0.105 C 
BRANCH   7   8
HETATM    8  C           1     -21.492  -9.621  -4.454  0.00  0.00     0.215 C 
HETATM    9  N           1     -20.837  -9.756  -5.649  0.00  0.00    -0.370 N 
HETATM   10  H           1     -20.906 -10.622  -6.168  0.00  0.00     0.159 HD
HETATM   11  H           1     -20.285  -8.991  -6.013  0.00  0.00     0.159 HD
HETATM   12  O           1     -22.151 -10.535  -4.019  0.00  0.00    -0.274 OA
ENDBRANCH   7   8
ENDBRANCH   6   7
ENDBRANCH   5   6
BRANCH   5  13
HETATM   13  N           1     -22.579  -6.164  -4.248  0.00  0.00    -0.066 N 
HETATM   14  H           1     -22.543  -6.450  -3.243  0.00  0.00     0.275 HD
HETATM   15  H           1     -23.014  -5.218  -4.325  0.00  0.00     0.275 HD
HETATM   16  H           1     -23.150  -6.856  -4.786  0.00  0.00     0.275 HD
ENDBRANCH   5  13
ENDBRANCH   1   5
BRANCH   2  17
HETATM   17  C           1     -21.697  -4.796  -8.365  0.00  0.00     0.186 C 
BRANCH  17  18
HETATM   18  C           1     -20.343  -4.408  -8.907  0.00  0.00     0.196 C 
HETATM   19  O           1     -19.932  -4.905  -9.978  0.00  0.00    -0.646 OA
HETATM   20  O           1     -19.632  -3.590  -8.285  0.00  0.00    -0.646 OA
ENDBRANCH  17  18
BRANCH  17  21
HETATM   21  C           1     -22.726  -3.751  -8.773  0.00  0.00     0.045 C 
BRANCH  21  22
HETATM   22  C           1     -23.046  -3.903 -10.254  0.00  0.00     0.105 C 
BRANCH  22  23
HETATM   23  C           1     -24.485  -3.525 -10.501  0.00  0.00     0.215 C 
HETATM   24  N           1     -25.410  -3.661  -9.502  0.00  0.00    -0.370 N 
HETATM   25  H           1     -25.128  -4.017  -8.597  0.00  0.00     0.159 HD
HETATM   26  H           1     -26.376  -3.407  -9.667  0.00  0.00     0.159 HD
HETATM   27  O           1     -24.821  -3.101 -11.581  0.00  0.00    -0.274 OA
ENDBRANCH  22  23
ENDBRANCH  21  22
ENDBRANCH  17  21
ENDBRANCH   2  17
TORSDOF 10
ENDMDL
MODEL 6
REMARK VINA RESULT:      -6.0      2.453      3.957
REMARK  10 active torsions:
REMARK  status: ('A' for Active; 'I' for Inactive)
REMARK       I    between atoms: N_1  and  C_11 
REMARK    1  A    between atoms: C_2  and  C_3 
REMARK    2  A    between atoms: C_3  and  C_4 
REMARK    3  A    between atoms: C_3  and  N_7 
REMARK    4  A    between atoms: C_4  and  C_14 
REMARK    5  A    between atoms: C_5  and  C_6 
REMARK    6  A    between atoms: C_5  and  C_10 
REMARK    7  A    between atoms: C_5  and  N_22 
REMARK       I    between atoms: C_6  and  N_7 
REMARK    8  A    between atoms: C_8  and  C_9 
REMARK       I    between atoms: C_8  and  N_18 
REMARK    9  A    between atoms: C_9  and  C_10 
REMARK   10  A    between atoms: C_11  and  C_14 
ROOT
HETATM    1  C           1     -21.484  -6.978  -5.455  0.00  0.00     0.249 C 
HETATM    2  N           1     -21.768  -5.717  -5.903  0.00  0.00    -0.345 N 
HETATM    3  H           1     -22.287  -5.076  -5.316  0.00  0.00     0.163 HD
HETATM    4  O           1     -20.864  -7.744  -6.156  0.00  0.00    -0.271 OA
ENDROOT
BRANCH   1   5
HETATM    5  C           1     -21.946  -7.415  -4.087  0.00  0.00     0.275 C 
BRANCH   5   6
HETATM    6  C           1     -21.298  -6.534  -3.026  0.00  0.00     0.052 C 
BRANCH   6   7
HETATM    7  C           1     -22.264  -6.341  -1.866  0.00  0.00     0.105 C 
BRANCH   7   8
HETATM    8  C           1     -21.987  -7.375  -0.802  0.00  0.00     0.215 C 
HETATM    9  N           1     -22.946  -7.672   0.129  0.00  0.00    -0.370 N 
HETATM   10  H           1     -22.759  -8.366   0.843  0.00  0.00     0.159 HD
HETATM   11  H           1     -23.839  -7.199   0.106  0.00  0.00     0.159 HD
HETATM   12  O           1     -20.921  -7.941  -0.773  0.00  0.00    -0.274 OA
ENDBRANCH   7   8
ENDBRANCH   6   7
ENDBRANCH   5   6
BRANCH   5  13
HETATM   13  N           1     -21.552  -8.844  -3.858  0.00  0.00    -0.066 N 
HETATM   14  H           1     -21.423  -9.010  -2.835  0.00  0.00     0.275 HD
HETATM   15  H           1     -22.301  -9.473  -4.222  0.00  0.00     0.275 HD
HETATM   16  H           1     -20.656  -9.042  -4.360  0.00  0.00     0.275 HD
ENDBRANCH   5  13
ENDBRANCH   1   5
BRANCH   2  17
HETATM   17  C           1     -21.324  -5.297  -7.218  0.00  0.00     0.186 C 
BRANCH  17  18
HETATM   18  C           1     -19.964  -4.653  -7.108  0.00  0.00     0.196 C 
HETATM   19  O           1     -19.364  -4.279  -8.140  0.00  0.00    -0.646 OA
HETATM   20  O           1     -19.436  -4.494  -5.987  0.00  0.00    -0.646 OA
ENDBRANCH  17  18
BRANCH  17  21
HETATM   21  C           1     -22.316  -4.295  -7.793  0.00  0.00     0.045 C 
BRANCH  21  22
HETATM   22  C           1     -22.578  -4.621  -9.257  0.00  0.00     0.105 C 
BRANCH  22  23
HETATM   23  C           1     -23.566  -3.632  -9.825  0.00  0.00     0.215 C 
HETATM   24  N           1     -24.664  -3.265  -9.096  0.00  0.00    -0.370 N 
HETATM   25  H           1     -24.814  -3.657  -8.175  0.00  0.00     0.159 HD
HETATM   26  H           1     -25.326  -2.601  -9.477  0.00  0.00     0.159 HD
HETATM   27  O           1     -23.386  -3.163 -10.924  0.00  0.00    -0.274 OA
ENDBRANCH  22  23
ENDBRANCH  21  22
ENDBRANCH  17  21
ENDBRANCH   2  17
TORSDOF 10
ENDMDL
MODEL 7
REMARK VINA RESULT:      -5.9      2.489      7.843
REMARK  10 active torsions:
REMARK  status: ('A' for Active; 'I' for Inactive)
REMARK       I    between atoms: N_1  and  C_11 
REMARK    1  A    between atoms: C_2  and  C_3 
REMARK    2  A    between atoms: C_3  and  C_4 
REMARK    3  A    between atoms: C_3  and  N_7 
REMARK    4  A    between atoms: C_4  and  C_14 
REMARK    5  A    between atoms: C_5  and  C_6 
REMARK    6  A    between atoms: C_5  and  C_10 
REMARK    7  A    between atoms: C_5  and  N_22 
REMARK       I    between atoms: C_6  and  N_7 
REMARK    8  A    between atoms: C_8  and  C_9 
REMARK       I    between atoms: C_8  and  N_18 
REMARK    9  A    between atoms: C_9  and  C_10 
REMARK   10  A    between atoms: C_11  and  C_14 
ROOT
HETATM    1  C           1     -20.573  -4.986  -6.305  0.00  0.00     0.249 C 
HETATM    2  N           1     -20.874  -6.317  -6.201  0.00  0.00    -0.345 N 
HETATM    3  H           1     -21.306  -6.800  -6.977  0.00  0.00     0.163 HD
HETATM    4  O           1     -20.057  -4.409  -5.377  0.00  0.00    -0.271 OA
ENDROOT
BRANCH   1   5
HETATM    5  C           1     -20.886  -4.239  -7.577  0.00  0.00     0.275 C 
BRANCH   5   6
HETATM    6  C           1     -22.170  -4.788  -8.186  0.00  0.00     0.052 C 
BRANCH   6   7
HETATM    7  C           1     -22.869  -3.688  -8.975  0.00  0.00     0.105 C 
BRANCH   7   8
HETATM    8  C           1     -24.029  -4.276  -9.739  0.00  0.00     0.215 C 
HETATM    9  N           1     -25.277  -3.724  -9.620  0.00  0.00    -0.370 N 
HETATM   10  H           1     -26.055  -4.119 -10.133  0.00  0.00     0.159 HD
HETATM   11  H           1     -25.421  -2.923  -9.020  0.00  0.00     0.159 HD
HETATM   12  O           1     -23.858  -5.233 -10.456  0.00  0.00    -0.274 OA
ENDBRANCH   7   8
ENDBRANCH   6   7
ENDBRANCH   5   6
BRANCH   5  13
HETATM   13  N           1     -19.758  -4.413  -8.550  0.00  0.00    -0.066 N 
HETATM   14  H           1     -20.079  -4.996  -9.356  0.00  0.00     0.275 HD
HETATM   15  H           1     -19.452  -3.478  -8.898  0.00  0.00     0.275 HD
HETATM   16  H           1     -18.958  -4.888  -8.073  0.00  0.00     0.275 HD
ENDBRANCH   5  13
ENDBRANCH   1   5
BRANCH   2  17
HETATM   17  C           1     -20.572  -7.035  -4.978  0.00  0.00     0.186 C 
BRANCH  17  18
HETATM   18  C           1     -20.148  -8.444  -5.313  0.00  0.00     0.196 C 
HETATM   19  O           1     -20.950  -9.221  -5.877  0.00  0.00    -0.646 OA
HETATM   20  O           1     -18.997  -8.835  -5.026  0.00  0.00    -0.646 OA
ENDBRANCH  17  18
BRANCH  17  21
HETATM   21  C           1     -21.811  -7.074  -4.093  0.00  0.00     0.045 C 
BRANCH  21  22
HETATM   22  C           1     -21.445  -7.645  -2.730  0.00  0.00     0.105 C 
BRANCH  22  23
HETATM   23  C           1     -22.091  -6.816  -1.647  0.00  0.00     0.215 C 
HETATM   24  N           1     -22.271  -7.343  -0.397  0.00  0.00    -0.370 N 
HETATM   25  H           1     -21.971  -8.289  -0.199  0.00  0.00     0.159 HD
HETATM   26  H           1     -22.704  -6.787   0.330  0.00  0.00     0.159 HD
HETATM   27  O           1     -22.450  -5.687  -1.883  0.00  0.00    -0.274 OA
ENDBRANCH  22  23
ENDBRANCH  21  22
ENDBRANCH  17  21
ENDBRANCH   2  17
TORSDOF 10
ENDMDL
MODEL 8
REMARK VINA RESULT:      -5.8      2.017      2.812
REMARK  10 active torsions:
REMARK  status: ('A' for Active; 'I' for Inactive)
REMARK       I    between atoms: N_1  and  C_11 
REMARK    1  A    between atoms: C_2  and  C_3 
REMARK    2  A    between atoms: C_3  and  C_4 
REMARK    3  A    between atoms: C_3  and  N_7 
REMARK    4  A    between atoms: C_4  and  C_14 
REMARK    5  A    between atoms: C_5  and  C_6 
REMARK    6  A    between atoms: C_5  and  C_10 
REMARK    7  A    between atoms: C_5  and  N_22 
REMARK       I    between atoms: C_6  and  N_7 
REMARK    8  A    between atoms: C_8  and  C_9 
REMARK       I    between atoms: C_8  and  N_18 
REMARK    9  A    between atoms: C_9  and  C_10 
REMARK   10  A    between atoms: C_11  and  C_14 
ROOT
HETATM    1  C           1     -20.754  -5.913  -6.600  0.00  0.00     0.249 C 
HETATM    2  N           1     -21.540  -4.914  -7.106  0.00  0.00    -0.345 N 
HETATM    3  H           1     -22.011  -4.273  -6.480  0.00  0.00     0.163 HD
HETATM    4  O           1     -20.192  -6.678  -7.348  0.00  0.00    -0.271 OA
ENDROOT
BRANCH   1   5
HETATM    5  C           1     -20.590  -6.060  -5.107  0.00  0.00     0.275 C 
BRANCH   5   6
HETATM    6  C           1     -21.876  -6.614  -4.506  0.00  0.00     0.052 C 
BRANCH   6   7
HETATM    7  C           1     -21.537  -7.536  -3.343  0.00  0.00     0.105 C 
BRANCH   7   8
HETATM    8  C           1     -21.860  -6.845  -2.041  0.00  0.00     0.215 C 
HETATM    9  N           1     -21.807  -7.543  -0.864  0.00  0.00    -0.370 N 
HETATM   10  H           1     -22.025  -7.079   0.009  0.00  0.00     0.159 HD
HETATM   11  H           1     -21.551  -8.521  -0.867  0.00  0.00     0.159 HD
HETATM   12  O           1     -22.166  -5.677  -2.037  0.00  0.00    -0.274 OA
ENDBRANCH   7   8
ENDBRANCH   6   7
ENDBRANCH   5   6
BRANCH   5  13
HETATM   13  N           1     -20.292  -4.721  -4.502  0.00  0.00    -0.066 N 
HETATM   14  H           1     -21.134  -4.108  -4.580  0.00  0.00     0.275 HD
HETATM   15  H           1     -20.042  -4.842  -3.495  0.00  0.00     0.275 HD
HETATM   16  H           1     -19.492  -4.280  -5.010  0.00  0.00     0.275 HD
ENDBRANCH   5  13
ENDBRANCH   1   5
BRANCH   2  17
HETATM   17  C           1     -21.698  -4.771  -8.540  0.00  0.00     0.186 C 
BRANCH  17  18
HETATM   18  C           1     -20.521  -4.012  -9.103  0.00  0.00     0.196 C 
HETATM   19  O           1     -19.671  -3.516  -8.333  0.00  0.00    -0.646 OA
HETATM   20  O           1     -20.398  -3.879 -10.339  0.00  0.00    -0.646 OA
ENDBRANCH  17  18
BRANCH  17  21
HETATM   21  C           1     -22.983  -4.010  -8.836  0.00  0.00     0.045 C 
BRANCH  21  22
HETATM   22  C           1     -23.653  -4.602 -10.069  0.00  0.00     0.105 C 
BRANCH  22  23
HETATM   23  C           1     -23.950  -3.503 -11.059  0.00  0.00     0.215 C 
HETATM   24  N           1     -22.929  -2.912 -11.752  0.00  0.00    -0.370 N 
HETATM   25  H           1     -21.974  -3.212 -11.601  0.00  0.00     0.159 HD
HETATM   26  H           1     -23.128  -2.174 -12.417  0.00  0.00     0.159 HD
HETATM   27  O           1     -25.089  -3.144 -11.239  0.00  0.00    -0.274 OA
ENDBRANCH  22  23
ENDBRANCH  21  22
ENDBRANCH  17  21
ENDBRANCH   2  17
TORSDOF 10
ENDMDL
MODEL 9
REMARK VINA RESULT:      -5.5      3.740      8.687
REMARK  10 active torsions:
REMARK  status: ('A' for Active; 'I' for Inactive)
REMARK       I    between atoms: N_1  and  C_11 
REMARK    1  A    between atoms: C_2  and  C_3 
REMARK    2  A    between atoms: C_3  and  C_4 
REMARK    3  A    between atoms: C_3  and  N_7 
REMARK    4  A    between atoms: C_4  and  C_14 
REMARK    5  A    between atoms: C_5  and  C_6 
REMARK    6  A    between atoms: C_5  and  C_10 
REMARK    7  A    between atoms: C_5  and  N_22 
REMARK       I    between atoms: C_6  and  N_7 
REMARK    8  A    between atoms: C_8  and  C_9 
REMARK       I    between atoms: C_8  and  N_18 
REMARK    9  A    between atoms: C_9  and  C_10 
REMARK   10  A    between atoms: C_11  and  C_14 
ROOT
HETATM    1  C           1     -20.666  -7.548  -5.186  0.00  0.00     0.249 C 
HETATM    2  N           1     -21.235  -8.093  -4.067  0.00  0.00    -0.345 N 
HETATM    3  H           1     -22.078  -7.689  -3.680  0.00  0.00     0.163 HD
HETATM    4  O           1     -19.659  -8.031  -5.649  0.00  0.00    -0.271 OA
ENDROOT
BRANCH   1   5
HETATM    5  C           1     -21.295  -6.344  -5.842  0.00  0.00     0.275 C 
BRANCH   5   6
HETATM    6  C           1     -20.423  -5.118  -5.599  0.00  0.00     0.052 C 
BRANCH   6   7
HETATM    7  C           1     -19.767  -4.695  -6.905  0.00  0.00     0.105 C 
BRANCH   7   8
HETATM    8  C           1     -20.803  -4.081  -7.814  0.00  0.00     0.215 C 
HETATM    9  N           1     -21.753  -3.241  -7.298  0.00  0.00    -0.370 N 
HETATM   10  H           1     -22.448  -2.829  -7.908  0.00  0.00     0.159 HD
HETATM   11  H           1     -21.762  -3.032  -6.309  0.00  0.00     0.159 HD
HETATM   12  O           1     -20.793  -4.329  -8.996  0.00  0.00    -0.274 OA
ENDBRANCH   7   8
ENDBRANCH   6   7
ENDBRANCH   5   6
BRANCH   5  13
HETATM   13  N           1     -22.657  -6.111  -5.258  0.00  0.00    -0.066 N 
HETATM   14  H           1     -23.257  -5.617  -5.958  0.00  0.00     0.275 HD
HETATM   15  H           1     -23.092  -7.028  -5.013  0.00  0.00     0.275 HD
HETATM   16  H           1     -22.571  -5.524  -4.397  0.00  0.00     0.275 HD
ENDBRANCH   5  13
ENDBRANCH   1   5
BRANCH   2  17
HETATM   17  C           1     -20.631  -9.250  -3.437  0.00  0.00     0.186 C 
BRANCH  17  18
HETATM   18  C           1     -21.606 -10.402  -3.458  0.00  0.00     0.196 C 
HETATM   19  O           1     -21.938 -10.920  -4.546  0.00  0.00    -0.646 OA
HETATM   20  O           1     -22.083 -10.836  -2.388  0.00  0.00    -0.646 OA
ENDBRANCH  17  18
BRANCH  17  21
HETATM   21  C           1     -20.272  -8.914  -1.996  0.00  0.00     0.045 C 
BRANCH  21  22
HETATM   22  C           1     -20.911  -7.588  -1.608  0.00  0.00     0.105 C 
BRANCH  22  23
HETATM   23  C           1     -22.018  -7.833  -0.613  0.00  0.00     0.215 C 
HETATM   24  N           1     -22.016  -8.971   0.147  0.00  0.00    -0.370 N 
HETATM   25  H           1     -21.272  -9.649   0.041  0.00  0.00     0.159 HD
HETATM   26  H           1     -22.759  -9.136   0.815  0.00  0.00     0.159 HD
HETATM   27  O           1     -22.907  -7.025  -0.486  0.00  0.00    -0.274 OA
ENDBRANCH  22  23
ENDBRANCH  21  22
ENDBRANCH  17  21
ENDBRANCH   2  17
TORSDOF 10
ENDMDL
