MODEL 1
REMARK VINA RESULT:      -5.6      0.000      0.000
REMARK  9 active torsions:
REMARK  status: ('A' for Active; 'I' for Inactive)
REMARK    1  A    between atoms: N_4  and  C_14 
REMARK       I    between atoms: N_4  and  C_5 
REMARK    2  A    between atoms: C_5  and  C_11 
REMARK    3  A    between atoms: C_6  and  C_9 
REMARK    4  A    between atoms: C_6  and  C_14 
REMARK    5  A    between atoms: C_9  and  Se_10 
REMARK    6  A    between atoms: C_11  and  C_16 
REMARK    7  A    between atoms: C_11  and  N_21 
REMARK    8  A    between atoms: C_12  and  C_14 
REMARK    9  A    between atoms: O_15  and  C_16 
ROOT
HETATM    1  N           1     -34.868  -1.925 -12.463  0.00  0.00    -0.345 N 
HETATM    2  C           1     -33.940  -2.774 -11.923  0.00  0.00     0.251 C 
HETATM    3  H           1     -35.446  -2.232 -13.235  0.00  0.00     0.163 HD
HETATM    4  O           1     -33.250  -2.407 -11.002  0.00  0.00    -0.271 OA
ENDROOT
BRANCH   2   5
HETATM    5  C           1     -33.779  -4.168 -12.479  0.00  0.00     0.302 C 
BRANCH   5   6
HETATM    6  C           1     -34.773  -5.103 -11.803  0.00  0.00     0.153 C 
HETATM    7  C           1     -34.033  -6.013 -10.832  0.00  0.00     0.042 C 
BRANCH   6   8
HETATM    8  O           1     -35.724  -4.347 -11.102  0.00  0.00    -0.393 OA
HETATM    9  H           1     -35.627  -4.563 -10.190  0.00  0.00     0.210 HD
ENDBRANCH   6   8
ENDBRANCH   5   6
BRANCH   5  10
HETATM   10  N           1     -32.383  -4.651 -12.219  0.00  0.00    -0.064 N 
HETATM   11  H           1     -31.704  -4.048 -12.735  0.00  0.00     0.275 HD
HETATM   12  H           1     -32.292  -5.640 -12.546  0.00  0.00     0.275 HD
HETATM   13  H           1     -32.182  -4.604 -11.194  0.00  0.00     0.275 HD
ENDBRANCH   5  10
ENDBRANCH   2   5
BRANCH   1  14
HETATM   14  C           1     -35.023  -0.586 -11.929  0.00  0.00     0.185 C 
BRANCH  14  15
HETATM   15  C           1     -35.215   0.398 -13.075  0.00  0.00     0.036 C 
BRANCH  15  16
HETATM   16  C           1     -36.402  -0.038 -13.926  0.00  0.00     0.003 C 
BRANCH  16  17
HETATM   17 Se           1     -36.218   0.694 -15.723  0.00  0.00     0.000 Se
HETATM   18  C           1     -35.831  -1.023 -16.559  0.00  0.00     0.000 C 
ENDBRANCH  16  17
ENDBRANCH  15  16
ENDBRANCH  14  15
BRANCH  14  19
HETATM   19  C           1     -36.228  -0.544 -11.021  0.00  0.00     0.196 C 
HETATM   20  O           1     -36.500   0.503 -10.393  0.00  0.00    -0.646 OA
HETATM   21  O           1     -36.953  -1.554 -10.897  0.00  0.00    -0.646 OA
ENDBRANCH  14  19
ENDBRANCH   1  14
TORSDOF 9
ENDMDL
MODEL 2
REMARK VINA RESULT:      -5.5      2.849      5.427
REMARK  9 active torsions:
REMARK  status: ('A' for Active; 'I' for Inactive)
REMARK    1  A    between atoms: N_4  and  C_14 
REMARK       I    between atoms: N_4  and  C_5 
REMARK    2  A    between atoms: C_5  and  C_11 
REMARK    3  A    between atoms: C_6  and  C_9 
REMARK    4  A    between atoms: C_6  and  C_14 
REMARK    5  A    between atoms: C_9  and  Se_10 
REMARK    6  A    between atoms: C_11  and  C_16 
REMARK    7  A    between atoms: C_11  and  N_21 
REMARK    8  A    between atoms: C_12  and  C_14 
REMARK    9  A    between atoms: O_15  and  C_16 
ROOT
HETATM    1  N           1     -34.920  -1.384 -13.235  0.00  0.00    -0.345 N 
HETATM    2  C           1     -36.042  -0.701 -13.621  0.00  0.00     0.251 C 
HETATM    3  H           1     -34.031  -1.186 -13.675  0.00  0.00     0.163 HD
HETATM    4  O           1     -37.103  -0.936 -13.095  0.00  0.00    -0.271 OA
ENDROOT
BRANCH   2   5
HETATM    5  C           1     -35.952   0.345 -14.705  0.00  0.00     0.302 C 
BRANCH   5   6
HETATM    6  C           1     -36.551  -0.206 -15.993  0.00  0.00     0.153 C 
HETATM    7  C           1     -35.596  -1.224 -16.601  0.00  0.00     0.042 C 
BRANCH   6   8
HETATM    8  O           1     -37.777  -0.827 -15.711  0.00  0.00    -0.393 OA
HETATM    9  H           1     -38.252  -0.874 -16.523  0.00  0.00     0.210 HD
ENDBRANCH   6   8
ENDBRANCH   5   6
BRANCH   5  10
HETATM   10  N           1     -34.514   0.703 -14.937  0.00  0.00    -0.064 N 
HETATM   11  H           1     -34.003   0.693 -14.026  0.00  0.00     0.275 HD
HETATM   12  H           1     -34.459   1.658 -15.359  0.00  0.00     0.275 HD
HETATM   13  H           1     -34.082   0.009 -15.588  0.00  0.00     0.275 HD
ENDBRANCH   5  10
ENDBRANCH   2   5
BRANCH   1  14
HETATM   14  C           1     -35.006  -2.388 -12.193  0.00  0.00     0.185 C 
BRANCH  14  15
HETATM   15  C           1     -34.179  -3.603 -12.590  0.00  0.00     0.036 C 
BRANCH  15  16
HETATM   16  C           1     -34.834  -4.865 -12.044  0.00  0.00     0.003 C 
BRANCH  16  17
HETATM   17 Se           1     -33.537  -5.867 -10.989  0.00  0.00     0.000 Se
HETATM   18  C           1     -34.875  -6.931 -10.053  0.00  0.00     0.000 C 
ENDBRANCH  16  17
ENDBRANCH  15  16
ENDBRANCH  14  15
BRANCH  14  19
HETATM   19  C           1     -34.476  -1.818 -10.900  0.00  0.00     0.196 C 
HETATM   20  O           1     -33.257  -1.903 -10.633  0.00  0.00    -0.646 OA
HETATM   21  O           1     -35.255  -1.262 -10.096  0.00  0.00    -0.646 OA
ENDBRANCH  14  19
ENDBRANCH   1  14
TORSDOF 9
ENDMDL
MODEL 3
REMARK VINA RESULT:      -5.1     12.824     15.028
REMARK  9 active torsions:
REMARK  status: ('A' for Active; 'I' for Inactive)
REMARK    1  A    between atoms: N_4  and  C_14 
REMARK       I    between atoms: N_4  and  C_5 
REMARK    2  A    between atoms: C_5  and  C_11 
REMARK    3  A    between atoms: C_6  and  C_9 
REMARK    4  A    between atoms: C_6  and  C_14 
REMARK    5  A    between atoms: C_9  and  Se_10 
REMARK    6  A    between atoms: C_11  and  C_16 
REMARK    7  A    between atoms: C_11  and  N_21 
REMARK    8  A    between atoms: C_12  and  C_14 
REMARK    9  A    between atoms: O_15  and  C_16 
ROOT
HETATM    1  N           1     -22.240  -5.256  -8.629  0.00  0.00    -0.345 N 
HETATM    2  C           1     -23.095  -4.274  -9.052  0.00  0.00     0.251 C 
HETATM    3  H           1     -22.336  -6.198  -8.986  0.00  0.00     0.163 HD
HETATM    4  O           1     -22.980  -3.149  -8.626  0.00  0.00    -0.271 OA
ENDROOT
BRANCH   2   5
HETATM    5  C           1     -24.181  -4.596 -10.048  0.00  0.00     0.302 C 
BRANCH   5   6
HETATM    6  C           1     -23.652  -4.394 -11.461  0.00  0.00     0.153 C 
HETATM    7  C           1     -24.271  -3.137 -12.060  0.00  0.00     0.042 C 
BRANCH   6   8
HETATM    8  O           1     -22.256  -4.253 -11.422  0.00  0.00    -0.393 OA
HETATM    9  H           1     -21.952  -4.751 -10.683  0.00  0.00     0.210 HD
ENDBRANCH   6   8
ENDBRANCH   5   6
BRANCH   5  10
HETATM   10  N           1     -25.354  -3.690  -9.820  0.00  0.00    -0.064 N 
HETATM   11  H           1     -25.090  -2.710 -10.068  0.00  0.00     0.275 HD
HETATM   12  H           1     -25.635  -3.733  -8.814  0.00  0.00     0.275 HD
HETATM   13  H           1     -26.155  -3.998 -10.418  0.00  0.00     0.275 HD
ENDBRANCH   5  10
ENDBRANCH   2   5
BRANCH   1  14
HETATM   14  C           1     -21.196  -4.946  -7.672  0.00  0.00     0.185 C 
BRANCH  14  15
HETATM   15  C           1     -20.995  -6.132  -6.739  0.00  0.00     0.036 C 
BRANCH  15  16
HETATM   16  C           1     -21.201  -5.685  -5.297  0.00  0.00     0.003 C 
BRANCH  16  17
HETATM   17 Se           1     -21.510  -7.246  -4.170  0.00  0.00     0.000 Se
HETATM   18  C           1     -21.785  -6.217  -2.538  0.00  0.00     0.000 C 
ENDBRANCH  16  17
ENDBRANCH  15  16
ENDBRANCH  14  15
BRANCH  14  19
HETATM   19  C           1     -19.909  -4.659  -8.407  0.00  0.00     0.196 C 
HETATM   20  O           1     -19.861  -4.774  -9.651  0.00  0.00    -0.646 OA
HETATM   21  O           1     -18.892  -4.306  -7.771  0.00  0.00    -0.646 OA
ENDBRANCH  14  19
ENDBRANCH   1  14
TORSDOF 9
ENDMDL
MODEL 4
REMARK VINA RESULT:      -5.0      2.675      5.362
REMARK  9 active torsions:
REMARK  status: ('A' for Active; 'I' for Inactive)
REMARK    1  A    between atoms: N_4  and  C_14 
REMARK       I    between atoms: N_4  and  C_5 
REMARK    2  A    between atoms: C_5  and  C_11 
REMARK    3  A    between atoms: C_6  and  C_9 
REMARK    4  A    between atoms: C_6  and  C_14 
REMARK    5  A    between atoms: C_9  and  Se_10 
REMARK    6  A    between atoms: C_11  and  C_16 
REMARK    7  A    between atoms: C_11  and  N_21 
REMARK    8  A    between atoms: C_12  and  C_14 
REMARK    9  A    between atoms: O_15  and  C_16 
ROOT
HETATM    1  N           1     -34.809  -1.231 -13.216  0.00  0.00    -0.345 N 
HETATM    2  C           1     -35.804  -0.870 -14.084  0.00  0.00     0.251 C 
HETATM    3  H           1     -33.841  -1.065 -13.459  0.00  0.00     0.163 HD
HETATM    4  O           1     -36.960  -1.068 -13.793  0.00  0.00    -0.271 OA
ENDROOT
BRANCH   2   5
HETATM    5  C           1     -35.457  -0.226 -15.403  0.00  0.00     0.302 C 
BRANCH   5   6
HETATM    6  C           1     -35.070   1.228 -15.173  0.00  0.00     0.153 C 
HETATM    7  C           1     -36.028   2.135 -15.935  0.00  0.00     0.042 C 
BRANCH   6   8
HETATM    8  O           1     -35.141   1.520 -13.803  0.00  0.00    -0.393 OA
HETATM    9  H           1     -34.349   1.979 -13.580  0.00  0.00     0.210 HD
ENDBRANCH   6   8
ENDBRANCH   5   6
BRANCH   5  10
HETATM   10  N           1     -36.645  -0.288 -16.318  0.00  0.00    -0.064 N 
HETATM   11  H           1     -37.497  -0.534 -15.765  0.00  0.00     0.275 HD
HETATM   12  H           1     -36.481  -1.015 -17.050  0.00  0.00     0.275 HD
HETATM   13  H           1     -36.782   0.642 -16.775  0.00  0.00     0.275 HD
ENDBRANCH   5  10
ENDBRANCH   2   5
BRANCH   1  14
HETATM   14  C           1     -35.142  -1.849 -11.947  0.00  0.00     0.185 C 
BRANCH  14  15
HETATM   15  C           1     -33.866  -2.104 -11.157  0.00  0.00     0.036 C 
BRANCH  15  16
HETATM   16  C           1     -33.885  -3.524 -10.604  0.00  0.00     0.003 C 
BRANCH  16  17
HETATM   17 Se           1     -34.753  -4.709 -11.885  0.00  0.00     0.000 Se
HETATM   18  C           1     -34.377  -6.337 -10.881  0.00  0.00     0.000 C 
ENDBRANCH  16  17
ENDBRANCH  15  16
ENDBRANCH  14  15
BRANCH  14  19
HETATM   19  C           1     -36.047  -0.930 -11.162  0.00  0.00     0.196 C 
HETATM   20  O           1     -35.733   0.269 -11.005  0.00  0.00    -0.646 OA
HETATM   21  O           1     -37.108  -1.370 -10.670  0.00  0.00    -0.646 OA
ENDBRANCH  14  19
ENDBRANCH   1  14
TORSDOF 9
ENDMDL
MODEL 5
REMARK VINA RESULT:      -4.9      3.121      5.197
REMARK  9 active torsions:
REMARK  status: ('A' for Active; 'I' for Inactive)
REMARK    1  A    between atoms: N_4  and  C_14 
REMARK       I    between atoms: N_4  and  C_5 
REMARK    2  A    between atoms: C_5  and  C_11 
REMARK    3  A    between atoms: C_6  and  C_9 
REMARK    4  A    between atoms: C_6  and  C_14 
REMARK    5  A    between atoms: C_9  and  Se_10 
REMARK    6  A    between atoms: C_11  and  C_16 
REMARK    7  A    between atoms: C_11  and  N_21 
REMARK    8  A    between atoms: C_12  and  C_14 
REMARK    9  A    between atoms: O_15  and  C_16 
ROOT
HETATM    1  N           1     -36.102  -0.304 -12.042  0.00  0.00    -0.345 N 
HETATM    2  C           1     -36.607  -0.301 -13.315  0.00  0.00     0.251 C 
HETATM    3  H           1     -35.165   0.036 -11.869  0.00  0.00     0.163 HD
HETATM    4  O           1     -37.726  -0.707 -13.521  0.00  0.00    -0.271 OA
ENDROOT
BRANCH   2   5
HETATM    5  C           1     -35.765   0.207 -14.459  0.00  0.00     0.302 C 
BRANCH   5   6
HETATM    6  C           1     -36.667   0.835 -15.514  0.00  0.00     0.153 C 
HETATM    7  C           1     -35.989   2.070 -16.091  0.00  0.00     0.042 C 
BRANCH   6   8
HETATM    8  O           1     -36.900  -0.092 -16.541  0.00  0.00    -0.393 OA
HETATM    9  H           1     -36.195   0.001 -17.158  0.00  0.00     0.210 HD
ENDBRANCH   6   8
ENDBRANCH   5   6
BRANCH   5  10
HETATM   10  N           1     -35.006  -0.935 -15.067  0.00  0.00    -0.064 N 
HETATM   11  H           1     -35.671  -1.700 -15.318  0.00  0.00     0.275 HD
HETATM   12  H           1     -34.306  -1.292 -14.378  0.00  0.00     0.275 HD
HETATM   13  H           1     -34.511  -0.606 -15.927  0.00  0.00     0.275 HD
ENDBRANCH   5  10
ENDBRANCH   2   5
BRANCH   1  14
HETATM   14  C           1     -36.911  -0.793 -10.942  0.00  0.00     0.185 C 
BRANCH  14  15
HETATM   15  C           1     -36.236  -2.006 -10.317  0.00  0.00     0.036 C 
BRANCH  15  16
HETATM   16  C           1     -35.352  -2.687 -11.354  0.00  0.00     0.003 C 
BRANCH  16  17
HETATM   17 Se           1     -33.480  -2.461 -10.863  0.00  0.00     0.000 Se
HETATM   18  C           1     -32.867  -4.045 -11.820  0.00  0.00     0.000 C 
ENDBRANCH  16  17
ENDBRANCH  15  16
ENDBRANCH  14  15
BRANCH  14  19
HETATM   19  C           1     -37.057   0.293  -9.904  0.00  0.00     0.196 C 
HETATM   20  O           1     -36.246   0.363  -8.955  0.00  0.00    -0.646 OA
HETATM   21  O           1     -37.988   1.122  -9.994  0.00  0.00    -0.646 OA
ENDBRANCH  14  19
ENDBRANCH   1  14
TORSDOF 9
ENDMDL
MODEL 6
REMARK VINA RESULT:      -4.6      2.595      3.412
REMARK  9 active torsions:
REMARK  status: ('A' for Active; 'I' for Inactive)
REMARK    1  A    between atoms: N_4  and  C_14 
REMARK       I    between atoms: N_4  and  C_5 
REMARK    2  A    between atoms: C_5  and  C_11 
REMARK    3  A    between atoms: C_6  and  C_9 
REMARK    4  A    between atoms: C_6  and  C_14 
REMARK    5  A    between atoms: C_9  and  Se_10 
REMARK    6  A    between atoms: C_11  and  C_16 
REMARK    7  A    between atoms: C_11  and  N_21 
REMARK    8  A    between atoms: C_12  and  C_14 
REMARK    9  A    between atoms: O_15  and  C_16 
ROOT
HETATM    1  N           1     -35.471  -1.714 -13.200  0.00  0.00    -0.345 N 
HETATM    2  C           1     -34.521  -2.101 -12.293  0.00  0.00     0.251 C 
HETATM    3  H           1     -35.848  -2.385 -13.856  0.00  0.00     0.163 HD
HETATM    4  O           1     -34.071  -1.299 -11.511  0.00  0.00    -0.271 OA
ENDROOT
BRANCH   2   5
HETATM    5  C           1     -34.036  -3.530 -12.274  0.00  0.00     0.302 C 
BRANCH   5   6
HETATM    6  C           1     -35.031  -4.395 -11.513  0.00  0.00     0.153 C 
HETATM    7  C           1     -34.292  -5.217 -10.466  0.00  0.00     0.042 C 
BRANCH   6   8
HETATM    8  O           1     -35.976  -3.574 -10.880  0.00  0.00    -0.393 OA
HETATM    9  H           1     -36.058  -2.796 -11.405  0.00  0.00     0.210 HD
ENDBRANCH   6   8
ENDBRANCH   5   6
BRANCH   5  10
HETATM   10  N           1     -32.699  -3.594 -11.597  0.00  0.00    -0.064 N 
HETATM   11  H           1     -32.527  -2.703 -11.080  0.00  0.00     0.275 HD
HETATM   12  H           1     -31.952  -3.731 -12.316  0.00  0.00     0.275 HD
HETATM   13  H           1     -32.686  -4.395 -10.926  0.00  0.00     0.275 HD
ENDBRANCH   5  10
ENDBRANCH   2   5
BRANCH   1  14
HETATM   14  C           1     -35.938  -0.341 -13.218  0.00  0.00     0.185 C 
BRANCH  14  15
HETATM   15  C           1     -36.038   0.179 -11.791  0.00  0.00     0.036 C 
BRANCH  15  16
HETATM   16  C           1     -37.416  -0.147 -11.227  0.00  0.00     0.003 C 
BRANCH  16  17
HETATM   17 Se           1     -37.309  -0.280  -9.285  0.00  0.00     0.000 Se
HETATM   18  C           1     -37.816   1.575  -8.967  0.00  0.00     0.000 C 
ENDBRANCH  16  17
ENDBRANCH  15  16
ENDBRANCH  14  15
BRANCH  14  19
HETATM   19  C           1     -34.965   0.511 -13.998  0.00  0.00     0.196 C 
HETATM   20  O           1     -34.539   1.579 -13.507  0.00  0.00    -0.646 OA
HETATM   21  O           1     -34.588   0.148 -15.132  0.00  0.00    -0.646 OA
ENDBRANCH  14  19
ENDBRANCH   1  14
TORSDOF 9
ENDMDL
MODEL 7
REMARK VINA RESULT:      -4.6     14.632     16.923
REMARK  9 active torsions:
REMARK  status: ('A' for Active; 'I' for Inactive)
REMARK    1  A    between atoms: N_4  and  C_14 
REMARK       I    between atoms: N_4  and  C_5 
REMARK    2  A    between atoms: C_5  and  C_11 
REMARK    3  A    between atoms: C_6  and  C_9 
REMARK    4  A    between atoms: C_6  and  C_14 
REMARK    5  A    between atoms: C_9  and  Se_10 
REMARK    6  A    between atoms: C_11  and  C_16 
REMARK    7  A    between atoms: C_11  and  N_21 
REMARK    8  A    between atoms: C_12  and  C_14 
REMARK    9  A    between atoms: O_15  and  C_16 
ROOT
HETATM    1  N           1     -20.686  -6.327  -6.531  0.00  0.00    -0.345 N 
HETATM    2  C           1     -20.435  -4.981  -6.547  0.00  0.00     0.251 C 
HETATM    3  H           1     -20.940  -6.804  -7.386  0.00  0.00     0.163 HD
HETATM    4  O           1     -20.131  -4.411  -5.526  0.00  0.00    -0.271 OA
ENDROOT
BRANCH   2   5
HETATM    5  C           1     -20.539  -4.210  -7.839  0.00  0.00     0.302 C 
BRANCH   5   6
HETATM    6  C           1     -21.990  -3.815  -8.080  0.00  0.00     0.153 C 
HETATM    7  C           1     -22.471  -4.421  -9.392  0.00  0.00     0.042 C 
BRANCH   6   8
HETATM    8  O           1     -22.785  -4.292  -7.027  0.00  0.00    -0.393 OA
HETATM    9  H           1     -22.478  -5.159  -6.823  0.00  0.00     0.210 HD
ENDBRANCH   6   8
ENDBRANCH   5   6
BRANCH   5  10
HETATM   10  N           1     -20.061  -5.067  -8.973  0.00  0.00    -0.064 N 
HETATM   11  H           1     -20.708  -5.879  -9.092  0.00  0.00     0.275 HD
HETATM   12  H           1     -19.098  -5.415  -8.764  0.00  0.00     0.275 HD
HETATM   13  H           1     -20.044  -4.504  -9.854  0.00  0.00     0.275 HD
ENDBRANCH   5  10
ENDBRANCH   2   5
BRANCH   1  14
HETATM   14  C           1     -20.585  -7.068  -5.289  0.00  0.00     0.185 C 
BRANCH  14  15
HETATM   15  C           1     -21.935  -7.061  -4.584  0.00  0.00     0.036 C 
BRANCH  15  16
HETATM   16  C           1     -21.787  -6.427  -3.207  0.00  0.00     0.003 C 
BRANCH  16  17
HETATM   17 Se           1     -21.139  -7.760  -1.942  0.00  0.00     0.000 Se
HETATM   18  C           1     -22.422  -7.301  -0.549  0.00  0.00     0.000 C 
ENDBRANCH  16  17
ENDBRANCH  15  16
ENDBRANCH  14  15
BRANCH  14  19
HETATM   19  C           1     -20.177  -8.491  -5.583  0.00  0.00     0.196 C 
HETATM   20  O           1     -21.048  -9.383  -5.679  0.00  0.00    -0.646 OA
HETATM   21  O           1     -18.970  -8.777  -5.732  0.00  0.00    -0.646 OA
ENDBRANCH  14  19
ENDBRANCH   1  14
TORSDOF 9
ENDMDL
MODEL 8
REMARK VINA RESULT:      -4.6     15.398     17.191
REMARK  9 active torsions:
REMARK  status: ('A' for Active; 'I' for Inactive)
REMARK    1  A    between atoms: N_4  and  C_14 
REMARK       I    between atoms: N_4  and  C_5 
REMARK    2  A    between atoms: C_5  and  C_11 
REMARK    3  A    between atoms: C_6  and  C_9 
REMARK    4  A    between atoms: C_6  and  C_14 
REMARK    5  A    between atoms: C_9  and  Se_10 
REMARK    6  A    between atoms: C_11  and  C_16 
REMARK    7  A    between atoms: C_11  and  N_21 
REMARK    8  A    between atoms: C_12  and  C_14 
REMARK    9  A    between atoms: O_15  and  C_16 
ROOT
HETATM    1  N           1     -21.075  -6.711  -6.419  0.00  0.00    -0.345 N 
HETATM    2  C           1     -21.047  -5.385  -6.756  0.00  0.00     0.251 C 
HETATM    3  H           1     -21.392  -7.397  -7.092  0.00  0.00     0.163 HD
HETATM    4  O           1     -20.668  -4.566  -5.953  0.00  0.00    -0.271 OA
ENDROOT
BRANCH   2   5
HETATM    5  C           1     -21.491  -4.946  -8.130  0.00  0.00     0.302 C 
BRANCH   5   6
HETATM    6  C           1     -20.268  -4.641  -8.986  0.00  0.00     0.153 C 
HETATM    7  C           1     -20.718  -4.113 -10.342  0.00  0.00     0.042 C 
BRANCH   6   8
HETATM    8  O           1     -19.479  -3.674  -8.347  0.00  0.00    -0.393 OA
HETATM    9  H           1     -19.284  -3.012  -8.989  0.00  0.00     0.210 HD
ENDBRANCH   6   8
ENDBRANCH   5   6
BRANCH   5  10
HETATM   10  N           1     -22.337  -3.713  -8.011  0.00  0.00    -0.064 N 
HETATM   11  H           1     -21.815  -2.983  -7.477  0.00  0.00     0.275 HD
HETATM   12  H           1     -23.223  -3.947  -7.510  0.00  0.00     0.275 HD
HETATM   13  H           1     -22.562  -3.351  -8.966  0.00  0.00     0.275 HD
ENDBRANCH   5  10
ENDBRANCH   2   5
BRANCH   1  14
HETATM   14  C           1     -20.648  -7.133  -5.100  0.00  0.00     0.185 C 
BRANCH  14  15
HETATM   15  C           1     -21.839  -7.112  -4.151  0.00  0.00     0.036 C 
BRANCH  15  16
HETATM   16  C           1     -21.423  -6.485  -2.826  0.00  0.00     0.003 C 
BRANCH  16  17
HETATM   17 Se           1     -21.029  -7.893  -1.536  0.00  0.00     0.000 Se
HETATM   18  C           1     -22.512  -7.448  -0.352  0.00  0.00     0.000 C 
ENDBRANCH  16  17
ENDBRANCH  15  16
ENDBRANCH  14  15
BRANCH  14  19
HETATM   19  C           1     -20.090  -8.533  -5.175  0.00  0.00     0.196 C 
HETATM   20  O           1     -20.726  -9.428  -5.772  0.00  0.00    -0.646 OA
HETATM   21  O           1     -18.991  -8.797  -4.641  0.00  0.00    -0.646 OA
ENDBRANCH  14  19
ENDBRANCH   1  14
TORSDOF 9
ENDMDL
MODEL 9
REMARK VINA RESULT:      -4.4     13.812     15.590
REMARK  9 active torsions:
REMARK  status: ('A' for Active; 'I' for Inactive)
REMARK    1  A    between atoms: N_4  and  C_14 
REMARK       I    between atoms: N_4  and  C_5 
REMARK    2  A    between atoms: C_5  and  C_11 
REMARK    3  A    between atoms: C_6  and  C_9 
REMARK    4  A    between atoms: C_6  and  C_14 
REMARK    5  A    between atoms: C_9  and  Se_10 
REMARK    6  A    between atoms: C_11  and  C_16 
REMARK    7  A    between atoms: C_11  and  N_21 
REMARK    8  A    between atoms: C_12  and  C_14 
REMARK    9  A    between atoms: O_15  and  C_16 
ROOT
HETATM    1  N           1     -21.614  -5.964  -6.526  0.00  0.00    -0.345 N 
HETATM    2  C           1     -21.245  -7.067  -5.803  0.00  0.00     0.251 C 
HETATM    3  H           1     -22.427  -5.428  -6.252  0.00  0.00     0.163 HD
HETATM    4  O           1     -20.274  -7.706  -6.129  0.00  0.00    -0.271 OA
ENDROOT
BRANCH   2   5
HETATM    5  C           1     -22.054  -7.484  -4.599  0.00  0.00     0.302 C 
BRANCH   5   6
HETATM    6  C           1     -21.791  -6.519  -3.451  0.00  0.00     0.153 C 
HETATM    7  C           1     -21.235  -7.288  -2.259  0.00  0.00     0.042 C 
BRANCH   6   8
HETATM    8  O           1     -20.860  -5.552  -3.856  0.00  0.00    -0.393 OA
HETATM    9  H           1     -20.833  -4.897  -3.180  0.00  0.00     0.210 HD
ENDBRANCH   6   8
ENDBRANCH   5   6
BRANCH   5  10
HETATM   10  N           1     -21.657  -8.871  -4.187  0.00  0.00    -0.064 N 
HETATM   11  H           1     -21.052  -9.294  -4.925  0.00  0.00     0.275 HD
HETATM   12  H           1     -22.516  -9.454  -4.061  0.00  0.00     0.275 HD
HETATM   13  H           1     -21.130  -8.829  -3.285  0.00  0.00     0.275 HD
ENDBRANCH   5  10
ENDBRANCH   2   5
BRANCH   1  14
HETATM   14  C           1     -20.836  -5.563  -7.682  0.00  0.00     0.185 C 
BRANCH  14  15
HETATM   15  C           1     -21.766  -4.990  -8.743  0.00  0.00     0.036 C 
BRANCH  15  16
HETATM   16  C           1     -22.893  -4.218  -8.069  0.00  0.00     0.003 C 
BRANCH  16  17
HETATM   17 Se           1     -24.180  -3.639  -9.413  0.00  0.00     0.000 Se
HETATM   18  C           1     -23.546  -4.870 -10.786  0.00  0.00     0.000 C 
ENDBRANCH  16  17
ENDBRANCH  15  16
ENDBRANCH  14  15
BRANCH  14  19
HETATM   19  C           1     -19.831  -4.515  -7.273  0.00  0.00     0.196 C 
HETATM   20  O           1     -19.387  -3.711  -8.122  0.00  0.00    -0.646 OA
HETATM   21  O           1     -19.443  -4.450  -6.087  0.00  0.00    -0.646 OA
ENDBRANCH  14  19
ENDBRANCH   1  14
TORSDOF 9
ENDMDL
