MODEL 1
REMARK VINA RESULT:      -6.5      0.000      0.000
REMARK  7 active torsions:
REMARK  status: ('A' for Active; 'I' for Inactive)
REMARK    1  A    between atoms: C_1  and  O_8 
REMARK    2  A    between atoms: C_1  and  C_15 
REMARK    3  A    between atoms: C_6  and  C_19 
REMARK    4  A    between atoms: N_10  and  C_19 
REMARK    5  A    between atoms: N_14  and  C_15 
REMARK       I    between atoms: N_14  and  C_18 
REMARK    6  A    between atoms: C_15  and  C_16 
REMARK    7  A    between atoms: C_18  and  C_19 
ROOT
HETATM    1  O           1     -36.727  -1.119 -12.571  0.00  0.00    -0.271 OA
HETATM    2  H           1     -34.047  -0.771 -14.163  0.00  0.00     0.163 HD
HETATM    3  N           1     -35.042  -0.734 -13.984  0.00  0.00    -0.343 N 
HETATM    4  C           1     -35.540  -1.164 -12.784  0.00  0.00     0.249 C 
ENDROOT
BRANCH   4   5
HETATM    5  C           1     -34.603  -1.692 -11.726  0.00  0.00     0.278 C 
BRANCH   5   6
HETATM    6  C           1     -34.384  -3.184 -11.940  0.00  0.00     0.017 C 
HETATM    7  C           1     -32.946  -3.541 -11.594  0.00  0.00     0.012 C 
HETATM    8  C           1     -35.331  -3.970 -11.043  0.00  0.00     0.012 C 
ENDBRANCH   5   6
BRANCH   5   9
HETATM    9  N           1     -35.202  -1.466 -10.369  0.00  0.00    -0.066 N 
HETATM   10  H           1     -35.194  -0.444 -10.150  0.00  0.00     0.275 HD
HETATM   11  H           1     -36.186  -1.816 -10.361  0.00  0.00     0.275 HD
HETATM   12  H           1     -34.643  -1.980  -9.652  0.00  0.00     0.275 HD
ENDBRANCH   5   9
ENDBRANCH   4   5
BRANCH   3  13
HETATM   13  C           1     -35.942  -0.226 -15.002  0.00  0.00     0.209 C 
BRANCH  13  14
HETATM   14  C           1     -35.567   1.211 -15.340  0.00  0.00     0.200 C 
BRANCH  14  15
HETATM   15  O           1     -36.609   1.809 -16.064  0.00  0.00    -0.398 OA
HETATM   16  H           1     -37.391   1.712 -15.547  0.00  0.00     0.209 HD
ENDBRANCH  14  15
ENDBRANCH  13  14
BRANCH  13  17
HETATM   17  C           1     -35.834  -1.080 -16.241  0.00  0.00     0.198 C 
HETATM   18  O           1     -35.020  -2.027 -16.279  0.00  0.00    -0.646 OA
HETATM   19  O           1     -36.557  -0.837 -17.233  0.00  0.00    -0.646 OA
ENDBRANCH  13  17
ENDBRANCH   3  13
TORSDOF 7
ENDMDL
MODEL 2
REMARK VINA RESULT:      -6.1      1.970      2.796
REMARK  7 active torsions:
REMARK  status: ('A' for Active; 'I' for Inactive)
REMARK    1  A    between atoms: C_1  and  O_8 
REMARK    2  A    between atoms: C_1  and  C_15 
REMARK    3  A    between atoms: C_6  and  C_19 
REMARK    4  A    between atoms: N_10  and  C_19 
REMARK    5  A    between atoms: N_14  and  C_15 
REMARK       I    between atoms: N_14  and  C_18 
REMARK    6  A    between atoms: C_15  and  C_16 
REMARK    7  A    between atoms: C_18  and  C_19 
ROOT
HETATM    1  O           1     -34.821  -1.881 -11.390  0.00  0.00    -0.271 OA
HETATM    2  H           1     -35.004  -2.088 -14.515  0.00  0.00     0.163 HD
HETATM    3  N           1     -35.066  -1.662 -13.599  0.00  0.00    -0.343 N 
HETATM    4  C           1     -34.748  -2.389 -12.483  0.00  0.00     0.249 C 
ENDROOT
BRANCH   4   5
HETATM    5  C           1     -34.303  -3.824 -12.620  0.00  0.00     0.278 C 
BRANCH   5   6
HETATM    6  C           1     -33.307  -4.155 -11.516  0.00  0.00     0.017 C 
HETATM    7  C           1     -33.903  -5.208 -10.592  0.00  0.00     0.012 C 
HETATM    8  C           1     -32.024  -4.692 -12.136  0.00  0.00     0.012 C 
ENDBRANCH   5   6
BRANCH   5   9
HETATM    9  N           1     -33.651  -4.021 -13.956  0.00  0.00    -0.066 N 
HETATM   10  H           1     -34.369  -3.936 -14.711  0.00  0.00     0.275 HD
HETATM   11  H           1     -32.914  -3.293 -14.093  0.00  0.00     0.275 HD
HETATM   12  H           1     -33.216  -4.970 -13.994  0.00  0.00     0.275 HD
ENDBRANCH   5   9
ENDBRANCH   4   5
BRANCH   3  13
HETATM   13  C           1     -35.493  -0.283 -13.468  0.00  0.00     0.209 C 
BRANCH  13  14
HETATM   14  C           1     -35.015   0.513 -14.675  0.00  0.00     0.200 C 
BRANCH  14  15
HETATM   15  O           1     -35.983   1.467 -15.020  0.00  0.00    -0.398 OA
HETATM   16  H           1     -36.651   1.430 -14.357  0.00  0.00     0.209 HD
ENDBRANCH  14  15
ENDBRANCH  13  14
BRANCH  13  17
HETATM   17  C           1     -36.999  -0.227 -13.392  0.00  0.00     0.198 C 
HETATM   18  O           1     -37.690  -0.755 -14.289  0.00  0.00    -0.646 OA
HETATM   19  O           1     -37.556   0.350 -12.432  0.00  0.00    -0.646 OA
ENDBRANCH  13  17
ENDBRANCH   3  13
TORSDOF 7
ENDMDL
MODEL 3
REMARK VINA RESULT:      -5.7     12.819     14.568
REMARK  7 active torsions:
REMARK  status: ('A' for Active; 'I' for Inactive)
REMARK    1  A    between atoms: C_1  and  O_8 
REMARK    2  A    between atoms: C_1  and  C_15 
REMARK    3  A    between atoms: C_6  and  C_19 
REMARK    4  A    between atoms: N_10  and  C_19 
REMARK    5  A    between atoms: N_14  and  C_15 
REMARK       I    between atoms: N_14  and  C_18 
REMARK    6  A    between atoms: C_15  and  C_16 
REMARK    7  A    between atoms: C_18  and  C_19 
ROOT
HETATM    1  O           1     -22.913  -3.920  -7.818  0.00  0.00    -0.271 OA
HETATM    2  H           1     -21.104  -5.089 -10.098  0.00  0.00     0.163 HD
HETATM    3  N           1     -21.791  -4.487  -9.663  0.00  0.00    -0.343 N 
HETATM    4  C           1     -22.094  -4.638  -8.336  0.00  0.00     0.249 C 
ENDROOT
BRANCH   4   5
HETATM    5  C           1     -21.400  -5.702  -7.522  0.00  0.00     0.278 C 
BRANCH   5   6
HETATM    6  C           1     -21.475  -5.341  -6.045  0.00  0.00     0.017 C 
HETATM    7  C           1     -21.759  -6.595  -5.229  0.00  0.00     0.012 C 
HETATM    8  C           1     -20.149  -4.738  -5.601  0.00  0.00     0.012 C 
ENDBRANCH   5   6
BRANCH   5   9
HETATM    9  N           1     -19.962  -5.795  -7.940  0.00  0.00    -0.066 N 
HETATM   10  H           1     -19.908  -6.056  -8.951  0.00  0.00     0.275 HD
HETATM   11  H           1     -19.498  -4.870  -7.794  0.00  0.00     0.275 HD
HETATM   12  H           1     -19.479  -6.522  -7.366  0.00  0.00     0.275 HD
ENDBRANCH   5   9
ENDBRANCH   4   5
BRANCH   3  13
HETATM   13  C           1     -22.458  -3.464 -10.446  0.00  0.00     0.209 C 
BRANCH  13  14
HETATM   14  C           1     -21.534  -2.997 -11.563  0.00  0.00     0.200 C 
BRANCH  14  15
HETATM   15  O           1     -21.944  -3.564 -12.778  0.00  0.00    -0.398 OA
HETATM   16  H           1     -21.191  -3.572 -13.343  0.00  0.00     0.209 HD
ENDBRANCH  14  15
ENDBRANCH  13  14
BRANCH  13  17
HETATM   17  C           1     -23.723  -4.031 -11.042  0.00  0.00     0.198 C 
HETATM   18  O           1     -23.791  -5.246 -11.326  0.00  0.00    -0.646 OA
HETATM   19  O           1     -24.703  -3.284 -11.254  0.00  0.00    -0.646 OA
ENDBRANCH  13  17
ENDBRANCH   3  13
TORSDOF 7
ENDMDL
MODEL 4
REMARK VINA RESULT:      -5.6      2.395      5.228
REMARK  7 active torsions:
REMARK  status: ('A' for Active; 'I' for Inactive)
REMARK    1  A    between atoms: C_1  and  O_8 
REMARK    2  A    between atoms: C_1  and  C_15 
REMARK    3  A    between atoms: C_6  and  C_19 
REMARK    4  A    between atoms: N_10  and  C_19 
REMARK    5  A    between atoms: N_14  and  C_15 
REMARK       I    between atoms: N_14  and  C_18 
REMARK    6  A    between atoms: C_15  and  C_16 
REMARK    7  A    between atoms: C_18  and  C_19 
ROOT
HETATM    1  O           1     -36.631  -1.077 -12.208  0.00  0.00    -0.271 OA
HETATM    2  H           1     -34.116  -1.830 -13.924  0.00  0.00     0.163 HD
HETATM    3  N           1     -34.792  -1.895 -13.173  0.00  0.00    -0.343 N 
HETATM    4  C           1     -35.826  -1.000 -13.103  0.00  0.00     0.249 C 
ENDROOT
BRANCH   4   5
HETATM    5  C           1     -35.958   0.081 -14.148  0.00  0.00     0.278 C 
BRANCH   5   6
HETATM    6  C           1     -36.837  -0.418 -15.287  0.00  0.00     0.017 C 
HETATM    7  C           1     -37.844   0.659 -15.662  0.00  0.00     0.012 C 
HETATM    8  C           1     -35.966  -0.741 -16.495  0.00  0.00     0.012 C 
ENDBRANCH   5   6
BRANCH   5   9
HETATM    9  N           1     -34.601   0.431 -14.681  0.00  0.00    -0.066 N 
HETATM   10  H           1     -33.956  -0.382 -14.558  0.00  0.00     0.275 HD
HETATM   11  H           1     -34.677   0.665 -15.697  0.00  0.00     0.275 HD
HETATM   12  H           1     -34.225   1.256 -14.161  0.00  0.00     0.275 HD
ENDBRANCH   5   9
ENDBRANCH   4   5
BRANCH   3  13
HETATM   13  C           1     -34.664  -2.934 -12.171  0.00  0.00     0.209 C 
BRANCH  13  14
HETATM   14  C           1     -34.475  -4.281 -12.856  0.00  0.00     0.200 C 
BRANCH  14  15
HETATM   15  O           1     -33.667  -4.120 -13.990  0.00  0.00    -0.398 OA
HETATM   16  H           1     -33.845  -3.261 -14.333  0.00  0.00     0.209 HD
ENDBRANCH  14  15
ENDBRANCH  13  14
BRANCH  13  17
HETATM   17  C           1     -33.471  -2.643 -11.294  0.00  0.00     0.198 C 
HETATM   18  O           1     -32.432  -3.329 -11.403  0.00  0.00    -0.646 OA
HETATM   19  O           1     -33.522  -1.717 -10.455  0.00  0.00    -0.646 OA
ENDBRANCH  13  17
ENDBRANCH   3  13
TORSDOF 7
ENDMDL
MODEL 5
REMARK VINA RESULT:      -5.5     10.006     11.396
REMARK  7 active torsions:
REMARK  status: ('A' for Active; 'I' for Inactive)
REMARK    1  A    between atoms: C_1  and  O_8 
REMARK    2  A    between atoms: C_1  and  C_15 
REMARK    3  A    between atoms: C_6  and  C_19 
REMARK    4  A    between atoms: N_10  and  C_19 
REMARK    5  A    between atoms: N_14  and  C_15 
REMARK       I    between atoms: N_14  and  C_18 
REMARK    6  A    between atoms: C_15  and  C_16 
REMARK    7  A    between atoms: C_18  and  C_19 
ROOT
HETATM    1  O           1     -28.388  -5.233 -19.000  0.00  0.00    -0.271 OA
HETATM    2  H           1     -27.524  -8.242 -18.809  0.00  0.00     0.163 HD
HETATM    3  N           1     -27.555  -7.298 -19.170  0.00  0.00    -0.343 N 
HETATM    4  C           1     -28.350  -6.360 -18.569  0.00  0.00     0.249 C 
ENDROOT
BRANCH   4   5
HETATM    5  C           1     -29.178  -6.734 -17.364  0.00  0.00     0.278 C 
BRANCH   5   6
HETATM    6  C           1     -28.459  -6.290 -16.096  0.00  0.00     0.017 C 
HETATM    7  C           1     -29.476  -5.764 -15.093  0.00  0.00     0.012 C 
HETATM    8  C           1     -27.718  -7.476 -15.491  0.00  0.00     0.012 C 
ENDBRANCH   5   6
BRANCH   5   9
HETATM    9  N           1     -29.372  -8.221 -17.332  0.00  0.00    -0.066 N 
HETATM   10  H           1     -30.200  -8.453 -16.738  0.00  0.00     0.275 HD
HETATM   11  H           1     -29.532  -8.571 -18.304  0.00  0.00     0.275 HD
HETATM   12  H           1     -28.519  -8.676 -16.934  0.00  0.00     0.275 HD
ENDBRANCH   5   9
ENDBRANCH   4   5
BRANCH   3  13
HETATM   13  C           1     -26.760  -6.939 -20.328  0.00  0.00     0.209 C 
BRANCH  13  14
HETATM   14  C           1     -25.391  -6.452 -19.873  0.00  0.00     0.200 C 
BRANCH  14  15
HETATM   15  O           1     -24.846  -7.369 -18.964  0.00  0.00    -0.398 OA
HETATM   16  H           1     -24.294  -7.950 -19.459  0.00  0.00     0.209 HD
ENDBRANCH  14  15
ENDBRANCH  13  14
BRANCH  13  17
HETATM   17  C           1     -26.595  -8.145 -21.220  0.00  0.00     0.198 C 
HETATM   18  O           1     -25.473  -8.426 -21.691  0.00  0.00    -0.646 OA
HETATM   19  O           1     -27.583  -8.863 -21.488  0.00  0.00    -0.646 OA
ENDBRANCH  13  17
ENDBRANCH   3  13
TORSDOF 7
ENDMDL
MODEL 6
REMARK VINA RESULT:      -5.3     12.813     14.844
REMARK  7 active torsions:
REMARK  status: ('A' for Active; 'I' for Inactive)
REMARK    1  A    between atoms: C_1  and  O_8 
REMARK    2  A    between atoms: C_1  and  C_15 
REMARK    3  A    between atoms: C_6  and  C_19 
REMARK    4  A    between atoms: N_10  and  C_19 
REMARK    5  A    between atoms: N_14  and  C_15 
REMARK       I    between atoms: N_14  and  C_18 
REMARK    6  A    between atoms: C_15  and  C_16 
REMARK    7  A    between atoms: C_18  and  C_19 
ROOT
HETATM    1  O           1     -20.962  -2.932 -10.792  0.00  0.00    -0.271 OA
HETATM    2  H           1     -22.987  -5.147  -9.880  0.00  0.00     0.163 HD
HETATM    3  N           1     -22.269  -4.439  -9.790  0.00  0.00    -0.343 N 
HETATM    4  C           1     -21.818  -3.776 -10.899  0.00  0.00     0.249 C 
ENDROOT
BRANCH   4   5
HETATM    5  C           1     -22.394  -4.099 -12.256  0.00  0.00     0.278 C 
BRANCH   5   6
HETATM    6  C           1     -23.092  -2.867 -12.818  0.00  0.00     0.017 C 
HETATM    7  C           1     -22.886  -2.811 -14.325  0.00  0.00     0.012 C 
HETATM    8  C           1     -24.582  -2.944 -12.512  0.00  0.00     0.012 C 
ENDBRANCH   5   6
BRANCH   5   9
HETATM    9  N           1     -23.385  -5.218 -12.126  0.00  0.00    -0.066 N 
HETATM   10  H           1     -23.164  -5.783 -11.276  0.00  0.00     0.275 HD
HETATM   11  H           1     -24.348  -4.820 -12.040  0.00  0.00     0.275 HD
HETATM   12  H           1     -23.335  -5.828 -12.973  0.00  0.00     0.275 HD
ENDBRANCH   5   9
ENDBRANCH   4   5
BRANCH   3  13
HETATM   13  C           1     -21.717  -4.130  -8.486  0.00  0.00     0.209 C 
BRANCH  13  14
HETATM   14  C           1     -22.794  -4.303  -7.423  0.00  0.00     0.200 C 
BRANCH  14  15
HETATM   15  O           1     -24.055  -4.082  -7.994  0.00  0.00    -0.398 OA
HETATM   16  H           1     -24.695  -4.328  -7.347  0.00  0.00     0.209 HD
ENDBRANCH  14  15
ENDBRANCH  13  14
BRANCH  13  17
HETATM   17  C           1     -20.566  -5.061  -8.192  0.00  0.00     0.198 C 
HETATM   18  O           1     -19.402  -4.736  -8.511  0.00  0.00    -0.646 OA
HETATM   19  O           1     -20.777  -6.159  -7.632  0.00  0.00    -0.646 OA
ENDBRANCH  13  17
ENDBRANCH   3  13
TORSDOF 7
ENDMDL
MODEL 7
REMARK VINA RESULT:      -5.3     13.753     15.870
REMARK  7 active torsions:
REMARK  status: ('A' for Active; 'I' for Inactive)
REMARK    1  A    between atoms: C_1  and  O_8 
REMARK    2  A    between atoms: C_1  and  C_15 
REMARK    3  A    between atoms: C_6  and  C_19 
REMARK    4  A    between atoms: N_10  and  C_19 
REMARK    5  A    between atoms: N_14  and  C_15 
REMARK       I    between atoms: N_14  and  C_18 
REMARK    6  A    between atoms: C_15  and  C_16 
REMARK    7  A    between atoms: C_18  and  C_19 
ROOT
HETATM    1  O           1     -20.077  -4.828 -10.866  0.00  0.00    -0.271 OA
HETATM    2  H           1     -22.030  -3.816  -8.631  0.00  0.00     0.163 HD
HETATM    3  N           1     -21.257  -4.326  -9.039  0.00  0.00    -0.343 N 
HETATM    4  C           1     -20.998  -4.220 -10.379  0.00  0.00     0.249 C 
ENDROOT
BRANCH   4   5
HETATM    5  C           1     -21.866  -3.341 -11.247  0.00  0.00     0.278 C 
BRANCH   5   6
HETATM    6  C           1     -23.332  -3.640 -10.967  0.00  0.00     0.017 C 
HETATM    7  C           1     -24.201  -2.927 -11.994  0.00  0.00     0.012 C 
HETATM    8  C           1     -23.571  -5.142 -11.057  0.00  0.00     0.012 C 
ENDBRANCH   5   6
BRANCH   5   9
HETATM    9  N           1     -21.568  -3.614 -12.692  0.00  0.00    -0.066 N 
HETATM   10  H           1     -21.520  -4.646 -12.850  0.00  0.00     0.275 HD
HETATM   11  H           1     -22.325  -3.205 -13.285  0.00  0.00     0.275 HD
HETATM   12  H           1     -20.652  -3.179 -12.946  0.00  0.00     0.275 HD
ENDBRANCH   5   9
ENDBRANCH   4   5
BRANCH   3  13
HETATM   13  C           1     -20.424  -5.170  -8.205  0.00  0.00     0.209 C 
BRANCH  13  14
HETATM   14  C           1     -19.320  -4.332  -7.576  0.00  0.00     0.200 C 
BRANCH  14  15
HETATM   15  O           1     -19.322  -4.519  -6.187  0.00  0.00    -0.398 OA
HETATM   16  H           1     -19.683  -5.375  -6.027  0.00  0.00     0.209 HD
ENDBRANCH  14  15
ENDBRANCH  13  14
BRANCH  13  17
HETATM   17  C           1     -21.267  -5.791  -7.117  0.00  0.00     0.198 C 
HETATM   18  O           1     -22.205  -5.143  -6.607  0.00  0.00    -0.646 OA
HETATM   19  O           1     -21.024  -6.954  -6.725  0.00  0.00    -0.646 OA
ENDBRANCH  13  17
ENDBRANCH   3  13
TORSDOF 7
ENDMDL
MODEL 8
REMARK VINA RESULT:      -5.2     13.906     16.089
REMARK  7 active torsions:
REMARK  status: ('A' for Active; 'I' for Inactive)
REMARK    1  A    between atoms: C_1  and  O_8 
REMARK    2  A    between atoms: C_1  and  C_15 
REMARK    3  A    between atoms: C_6  and  C_19 
REMARK    4  A    between atoms: N_10  and  C_19 
REMARK    5  A    between atoms: N_14  and  C_15 
REMARK       I    between atoms: N_14  and  C_18 
REMARK    6  A    between atoms: C_15  and  C_16 
REMARK    7  A    between atoms: C_18  and  C_19 
ROOT
HETATM    1  O           1     -23.476  -4.177  -8.031  0.00  0.00    -0.271 OA
HETATM    2  H           1     -20.831  -5.698  -8.756  0.00  0.00     0.163 HD
HETATM    3  N           1     -21.543  -5.285  -8.168  0.00  0.00    -0.343 N 
HETATM    4  C           1     -22.627  -4.670  -8.733  0.00  0.00     0.249 C 
ENDROOT
BRANCH   4   5
HETATM    5  C           1     -22.761  -4.610 -10.235  0.00  0.00     0.278 C 
BRANCH   5   6
HETATM    6  C           1     -21.974  -3.420 -10.768  0.00  0.00     0.017 C 
HETATM    7  C           1     -20.606  -3.888 -11.245  0.00  0.00     0.012 C 
HETATM    8  C           1     -22.729  -2.793 -11.932  0.00  0.00     0.012 C 
ENDBRANCH   5   6
BRANCH   5   9
HETATM    9  N           1     -24.207  -4.456 -10.603  0.00  0.00    -0.066 N 
HETATM   10  H           1     -24.782  -5.132 -10.051  0.00  0.00     0.275 HD
HETATM   11  H           1     -24.518  -3.481 -10.390  0.00  0.00     0.275 HD
HETATM   12  H           1     -24.329  -4.646 -11.623  0.00  0.00     0.275 HD
ENDBRANCH   5   9
ENDBRANCH   4   5
BRANCH   3  13
HETATM   13  C           1     -21.413  -5.343  -6.725  0.00  0.00     0.209 C 
BRANCH  13  14
HETATM   14  C           1     -21.432  -6.796  -6.271  0.00  0.00     0.200 C 
BRANCH  14  15
HETATM   15  O           1     -20.117  -7.272  -6.167  0.00  0.00    -0.398 OA
HETATM   16  H           1     -20.148  -8.199  -6.334  0.00  0.00     0.209 HD
ENDBRANCH  14  15
ENDBRANCH  13  14
BRANCH  13  17
HETATM   17  C           1     -20.112  -4.703  -6.310  0.00  0.00     0.198 C 
HETATM   18  O           1     -19.913  -4.407  -5.112  0.00  0.00    -0.646 OA
HETATM   19  O           1     -19.231  -4.466  -7.166  0.00  0.00    -0.646 OA
ENDBRANCH  13  17
ENDBRANCH   3  13
TORSDOF 7
ENDMDL
MODEL 9
REMARK VINA RESULT:      -5.0     10.510     12.135
REMARK  7 active torsions:
REMARK  status: ('A' for Active; 'I' for Inactive)
REMARK    1  A    between atoms: C_1  and  O_8 
REMARK    2  A    between atoms: C_1  and  C_15 
REMARK    3  A    between atoms: C_6  and  C_19 
REMARK    4  A    between atoms: N_10  and  C_19 
REMARK    5  A    between atoms: N_14  and  C_15 
REMARK       I    between atoms: N_14  and  C_18 
REMARK    6  A    between atoms: C_15  and  C_16 
REMARK    7  A    between atoms: C_18  and  C_19 
ROOT
HETATM    1  O           1     -27.380  -5.769 -19.916  0.00  0.00    -0.271 OA
HETATM    2  H           1     -26.155  -7.126 -17.368  0.00  0.00     0.163 HD
HETATM    3  N           1     -26.849  -6.664 -17.941  0.00  0.00    -0.343 N 
HETATM    4  C           1     -26.553  -6.321 -19.233  0.00  0.00     0.249 C 
ENDROOT
BRANCH   4   5
HETATM    5  C           1     -25.191  -6.635 -19.803  0.00  0.00     0.278 C 
BRANCH   5   6
HETATM    6  C           1     -25.351  -7.307 -21.160  0.00  0.00     0.017 C 
HETATM    7  C           1     -24.047  -7.991 -21.545  0.00  0.00     0.012 C 
HETATM    8  C           1     -26.465  -8.343 -21.085  0.00  0.00     0.012 C 
ENDBRANCH   5   6
BRANCH   5   9
HETATM    9  N           1     -24.460  -7.557 -18.873  0.00  0.00    -0.066 N 
HETATM   10  H           1     -25.144  -8.030 -18.240  0.00  0.00     0.275 HD
HETATM   11  H           1     -23.947  -8.277 -19.431  0.00  0.00     0.275 HD
HETATM   12  H           1     -23.778  -7.007 -18.302  0.00  0.00     0.275 HD
ENDBRANCH   5   9
ENDBRANCH   4   5
BRANCH   3  13
HETATM   13  C           1     -28.157  -6.362 -17.393  0.00  0.00     0.209 C 
BRANCH  13  14
HETATM   14  C           1     -29.190  -7.305 -17.996  0.00  0.00     0.200 C 
BRANCH  14  15
HETATM   15  O           1     -29.353  -8.418 -17.159  0.00  0.00    -0.398 OA
HETATM   16  H           1     -28.750  -9.076 -17.460  0.00  0.00     0.209 HD
ENDBRANCH  14  15
ENDBRANCH  13  14
BRANCH  13  17
HETATM   17  C           1     -28.128  -6.539 -15.895  0.00  0.00     0.198 C 
HETATM   18  O           1     -27.302  -7.318 -15.373  0.00  0.00    -0.646 OA
HETATM   19  O           1     -28.932  -5.907 -15.175  0.00  0.00    -0.646 OA
ENDBRANCH  13  17
ENDBRANCH   3  13
TORSDOF 7
ENDMDL
