MODEL 1
REMARK VINA RESULT:      -6.0      0.000      0.000
REMARK  10 active torsions:
REMARK  status: ('A' for Active; 'I' for Inactive)
REMARK    1  A    between atoms: C_1  and  C_5 
REMARK    2  A    between atoms: C_1  and  C_11 
REMARK       I    between atoms: C_3  and  N_12 
REMARK    3  A    between atoms: C_3  and  C_4 
REMARK    4  A    between atoms: C_4  and  C_7 
REMARK    5  A    between atoms: C_4  and  N_24 
REMARK    6  A    between atoms: C_7  and  C_10 
REMARK    7  A    between atoms: C_8  and  C_10 
REMARK    8  A    between atoms: C_8  and  N_17 
REMARK    9  A    between atoms: C_11  and  C_13 
REMARK   10  A    between atoms: C_11  and  N_12 
ROOT
HETATM    1  C           1     -22.338  -4.149  -7.689  0.00  0.00     0.249 C 
HETATM    2  N           1     -23.255  -4.403  -8.674  0.00  0.00    -0.345 N 
HETATM    3  O           1     -21.450  -3.354  -7.882  0.00  0.00    -0.271 OA
HETATM    4  H           1     -23.999  -5.070  -8.512  0.00  0.00     0.163 HD
ENDROOT
BRANCH   1   5
HETATM    5  C           1     -22.438  -4.863  -6.363  0.00  0.00     0.274 C 
BRANCH   5   6
HETATM    6  C           1     -21.539  -6.091  -6.378  0.00  0.00     0.044 C 
BRANCH   6   7
HETATM    7  C           1     -21.833  -6.953  -5.157  0.00  0.00     0.030 C 
BRANCH   7   8
HETATM    8  C           1     -21.207  -6.316  -3.924  0.00  0.00     0.230 C 
BRANCH   8   9
HETATM    9  N           1     -22.270  -6.069  -2.893  0.00  0.00    -0.079 N 
HETATM   10  H           1     -21.876  -6.234  -1.940  0.00  0.00     0.274 HD
HETATM   11  H           1     -23.071  -6.721  -3.057  0.00  0.00     0.274 HD
HETATM   12  H           1     -22.603  -5.081  -2.966  0.00  0.00     0.274 HD
ENDBRANCH   8   9
ENDBRANCH   7   8
ENDBRANCH   6   7
ENDBRANCH   5   6
BRANCH   5  13
HETATM   13  N           1     -23.859  -5.286  -6.130  0.00  0.00    -0.067 N 
HETATM   14  H           1     -24.484  -4.451  -6.184  0.00  0.00     0.275 HD
HETATM   15  H           1     -24.139  -5.979  -6.859  0.00  0.00     0.275 HD
HETATM   16  H           1     -23.940  -5.722  -5.183  0.00  0.00     0.275 HD
ENDBRANCH   5  13
ENDBRANCH   1   5
BRANCH   2  17
HETATM   17  C           1     -23.159  -3.718  -9.948  0.00  0.00     0.185 C 
BRANCH  17  18
HETATM   18  C           1     -22.629  -4.681 -11.002  0.00  0.00     0.040 C 
BRANCH  18  19
HETATM   19  C           1     -21.282  -4.185 -11.513  0.00  0.00    -0.020 C 
HETATM   20  C           1     -21.246  -2.664 -11.453  0.00  0.00     0.009 C 
HETATM   21  C           1     -20.169  -4.754 -10.645  0.00  0.00     0.009 C 
ENDBRANCH  18  19
ENDBRANCH  17  18
BRANCH  17  22
HETATM   22  C           1     -24.525  -3.225 -10.357  0.00  0.00     0.196 C 
HETATM   23  O           1     -25.341  -2.851  -9.486  0.00  0.00    -0.646 OA
HETATM   24  O           1     -24.840  -3.189 -11.566  0.00  0.00    -0.646 OA
ENDBRANCH  17  22
ENDBRANCH   2  17
TORSDOF 10
ENDMDL
MODEL 2
REMARK VINA RESULT:      -5.9      2.485      5.835
REMARK  10 active torsions:
REMARK  status: ('A' for Active; 'I' for Inactive)
REMARK    1  A    between atoms: C_1  and  C_5 
REMARK    2  A    between atoms: C_1  and  C_11 
REMARK       I    between atoms: C_3  and  N_12 
REMARK    3  A    between atoms: C_3  and  C_4 
REMARK    4  A    between atoms: C_4  and  C_7 
REMARK    5  A    between atoms: C_4  and  N_24 
REMARK    6  A    between atoms: C_7  and  C_10 
REMARK    7  A    between atoms: C_8  and  C_10 
REMARK    8  A    between atoms: C_8  and  N_17 
REMARK    9  A    between atoms: C_11  and  C_13 
REMARK   10  A    between atoms: C_11  and  N_12 
ROOT
HETATM    1  C           1     -23.413  -4.513  -8.748  0.00  0.00     0.249 C 
HETATM    2  N           1     -22.113  -4.891  -8.958  0.00  0.00    -0.345 N 
HETATM    3  O           1     -23.747  -4.071  -7.675  0.00  0.00    -0.271 OA
HETATM    4  H           1     -21.833  -5.262  -9.857  0.00  0.00     0.163 HD
ENDROOT
BRANCH   1   5
HETATM    5  C           1     -24.427  -4.650  -9.857  0.00  0.00     0.274 C 
BRANCH   5   6
HETATM    6  C           1     -23.717  -4.595 -11.203  0.00  0.00     0.044 C 
BRANCH   6   7
HETATM    7  C           1     -23.744  -3.168 -11.734  0.00  0.00     0.030 C 
BRANCH   7   8
HETATM    8  C           1     -22.318  -2.679 -11.949  0.00  0.00     0.230 C 
BRANCH   8   9
HETATM    9  N           1     -21.444  -3.836 -12.335  0.00  0.00    -0.079 N 
HETATM   10  H           1     -21.830  -4.293 -13.192  0.00  0.00     0.274 HD
HETATM   11  H           1     -21.419  -4.529 -11.553  0.00  0.00     0.274 HD
HETATM   12  H           1     -20.477  -3.492 -12.529  0.00  0.00     0.274 HD
ENDBRANCH   8   9
ENDBRANCH   7   8
ENDBRANCH   6   7
ENDBRANCH   5   6
BRANCH   5  13
HETATM   13  N           1     -25.419  -3.528  -9.769  0.00  0.00    -0.067 N 
HETATM   14  H           1     -24.981  -2.648 -10.123  0.00  0.00     0.275 HD
HETATM   15  H           1     -26.256  -3.759 -10.349  0.00  0.00     0.275 HD
HETATM   16  H           1     -25.707  -3.398  -8.773  0.00  0.00     0.275 HD
ENDBRANCH   5  13
ENDBRANCH   1   5
BRANCH   2  17
HETATM   17  C           1     -21.139  -4.760  -7.892  0.00  0.00     0.185 C 
BRANCH  17  18
HETATM   18  C           1     -20.885  -6.125  -7.268  0.00  0.00     0.040 C 
BRANCH  18  19
HETATM   19  C           1     -21.485  -6.164  -5.868  0.00  0.00    -0.020 C 
HETATM   20  C           1     -21.496  -7.600  -5.360  0.00  0.00     0.009 C 
HETATM   21  C           1     -20.649  -5.301  -4.933  0.00  0.00     0.009 C 
ENDBRANCH  18  19
ENDBRANCH  17  18
BRANCH  17  22
HETATM   22  C           1     -19.849  -4.215  -8.455  0.00  0.00     0.196 C 
HETATM   23  O           1     -19.817  -3.767  -9.622  0.00  0.00    -0.646 OA
HETATM   24  O           1     -18.814  -4.212  -7.755  0.00  0.00    -0.646 OA
ENDBRANCH  17  22
ENDBRANCH   2  17
TORSDOF 10
ENDMDL
MODEL 3
REMARK VINA RESULT:      -5.7      2.254      6.628
REMARK  10 active torsions:
REMARK  status: ('A' for Active; 'I' for Inactive)
REMARK    1  A    between atoms: C_1  and  C_5 
REMARK    2  A    between atoms: C_1  and  C_11 
REMARK       I    between atoms: C_3  and  N_12 
REMARK    3  A    between atoms: C_3  and  C_4 
REMARK    4  A    between atoms: C_4  and  C_7 
REMARK    5  A    between atoms: C_4  and  N_24 
REMARK    6  A    between atoms: C_7  and  C_10 
REMARK    7  A    between atoms: C_8  and  C_10 
REMARK    8  A    between atoms: C_8  and  N_17 
REMARK    9  A    between atoms: C_11  and  C_13 
REMARK   10  A    between atoms: C_11  and  N_12 
ROOT
HETATM    1  C           1     -22.458  -4.305  -7.763  0.00  0.00     0.249 C 
HETATM    2  N           1     -22.410  -5.430  -6.983  0.00  0.00    -0.345 N 
HETATM    3  O           1     -21.806  -3.334  -7.461  0.00  0.00    -0.271 OA
HETATM    4  H           1     -22.957  -6.244  -7.235  0.00  0.00     0.163 HD
ENDROOT
BRANCH   1   5
HETATM    5  C           1     -23.325  -4.279  -8.997  0.00  0.00     0.274 C 
BRANCH   5   6
HETATM    6  C           1     -22.547  -3.663 -10.152  0.00  0.00     0.044 C 
BRANCH   6   7
HETATM    7  C           1     -23.517  -3.215 -11.237  0.00  0.00     0.030 C 
BRANCH   7   8
HETATM    8  C           1     -22.740  -2.577 -12.381  0.00  0.00     0.230 C 
BRANCH   8   9
HETATM    9  N           1     -21.846  -3.603 -13.013  0.00  0.00    -0.079 N 
HETATM   10  H           1     -21.767  -3.414 -14.036  0.00  0.00     0.274 HD
HETATM   11  H           1     -22.252  -4.556 -12.866  0.00  0.00     0.274 HD
HETATM   12  H           1     -20.899  -3.556 -12.575  0.00  0.00     0.274 HD
ENDBRANCH   8   9
ENDBRANCH   7   8
ENDBRANCH   6   7
ENDBRANCH   5   6
BRANCH   5  13
HETATM   13  N           1     -24.553  -3.460  -8.729  0.00  0.00    -0.067 N 
HETATM   14  H           1     -24.444  -2.517  -9.163  0.00  0.00     0.275 HD
HETATM   15  H           1     -25.387  -3.939  -9.139  0.00  0.00     0.275 HD
HETATM   16  H           1     -24.682  -3.356  -7.697  0.00  0.00     0.275 HD
ENDBRANCH   5  13
ENDBRANCH   1   5
BRANCH   2  17
HETATM   17  C           1     -21.578  -5.455  -5.796  0.00  0.00     0.185 C 
BRANCH  17  18
HETATM   18  C           1     -22.061  -6.556  -4.862  0.00  0.00     0.040 C 
BRANCH  18  19
HETATM   19  C           1     -21.214  -6.555  -3.594  0.00  0.00    -0.020 C 
HETATM   20  C           1     -22.074  -6.131  -2.411  0.00  0.00     0.009 C 
HETATM   21  C           1     -20.667  -7.954  -3.350  0.00  0.00     0.009 C 
ENDBRANCH  18  19
ENDBRANCH  17  18
BRANCH  17  22
HETATM   22  C           1     -20.147  -5.723  -6.193  0.00  0.00     0.196 C 
HETATM   23  O           1     -19.827  -6.837  -6.664  0.00  0.00    -0.646 OA
HETATM   24  O           1     -19.282  -4.832  -6.052  0.00  0.00    -0.646 OA
ENDBRANCH  17  22
ENDBRANCH   2  17
TORSDOF 10
ENDMDL
MODEL 4
REMARK VINA RESULT:      -5.5      3.199      6.789
REMARK  10 active torsions:
REMARK  status: ('A' for Active; 'I' for Inactive)
REMARK    1  A    between atoms: C_1  and  C_5 
REMARK    2  A    between atoms: C_1  and  C_11 
REMARK       I    between atoms: C_3  and  N_12 
REMARK    3  A    between atoms: C_3  and  C_4 
REMARK    4  A    between atoms: C_4  and  C_7 
REMARK    5  A    between atoms: C_4  and  N_24 
REMARK    6  A    between atoms: C_7  and  C_10 
REMARK    7  A    between atoms: C_8  and  C_10 
REMARK    8  A    between atoms: C_8  and  N_17 
REMARK    9  A    between atoms: C_11  and  C_13 
REMARK   10  A    between atoms: C_11  and  N_12 
ROOT
HETATM    1  C           1     -20.564  -4.768  -6.530  0.00  0.00     0.249 C 
HETATM    2  N           1     -21.340  -5.764  -5.999  0.00  0.00    -0.345 N 
HETATM    3  O           1     -19.435  -4.607  -6.133  0.00  0.00    -0.271 OA
HETATM    4  H           1     -22.287  -5.898  -6.332  0.00  0.00     0.163 HD
ENDROOT
BRANCH   1   5
HETATM    5  C           1     -21.119  -3.872  -7.610  0.00  0.00     0.274 C 
BRANCH   5   6
HETATM    6  C           1     -22.535  -4.312  -7.955  0.00  0.00     0.044 C 
BRANCH   6   7
HETATM    7  C           1     -22.616  -4.648  -9.439  0.00  0.00     0.030 C 
BRANCH   7   8
HETATM    8  C           1     -23.754  -3.863 -10.076  0.00  0.00     0.230 C 
BRANCH   8   9
HETATM    9  N           1     -24.595  -3.238  -9.002  0.00  0.00    -0.079 N 
HETATM   10  H           1     -25.038  -3.988  -8.425  0.00  0.00     0.274 HD
HETATM   11  H           1     -25.340  -2.650  -9.441  0.00  0.00     0.274 HD
HETATM   12  H           1     -23.992  -2.640  -8.392  0.00  0.00     0.274 HD
ENDBRANCH   8   9
ENDBRANCH   7   8
ENDBRANCH   6   7
ENDBRANCH   5   6
BRANCH   5  13
HETATM   13  N           1     -20.254  -3.968  -8.832  0.00  0.00    -0.067 N 
HETATM   14  H           1     -19.380  -3.415  -8.684  0.00  0.00     0.275 HD
HETATM   15  H           1     -20.009  -4.968  -9.007  0.00  0.00     0.275 HD
HETATM   16  H           1     -20.772  -3.585  -9.655  0.00  0.00     0.275 HD
ENDBRANCH   5  13
ENDBRANCH   1   5
BRANCH   2  17
HETATM   17  C           1     -20.806  -6.623  -4.961  0.00  0.00     0.185 C 
BRANCH  17  18
HETATM   18  C           1     -21.867  -6.843  -3.891  0.00  0.00     0.040 C 
BRANCH  18  19
HETATM   19  C           1     -21.233  -6.709  -2.512  0.00  0.00    -0.020 C 
HETATM   20  C           1     -22.308  -6.356  -1.492  0.00  0.00     0.009 C 
HETATM   21  C           1     -20.579  -8.028  -2.124  0.00  0.00     0.009 C 
ENDBRANCH  18  19
ENDBRANCH  17  18
BRANCH  17  22
HETATM   22  C           1     -20.414  -7.952  -5.562  0.00  0.00     0.196 C 
HETATM   23  O           1     -19.231  -8.153  -5.913  0.00  0.00    -0.646 OA
HETATM   24  O           1     -21.272  -8.849  -5.707  0.00  0.00    -0.646 OA
ENDBRANCH  17  22
ENDBRANCH   2  17
TORSDOF 10
ENDMDL
MODEL 5
REMARK VINA RESULT:      -5.5      3.374      7.047
REMARK  10 active torsions:
REMARK  status: ('A' for Active; 'I' for Inactive)
REMARK    1  A    between atoms: C_1  and  C_5 
REMARK    2  A    between atoms: C_1  and  C_11 
REMARK       I    between atoms: C_3  and  N_12 
REMARK    3  A    between atoms: C_3  and  C_4 
REMARK    4  A    between atoms: C_4  and  C_7 
REMARK    5  A    between atoms: C_4  and  N_24 
REMARK    6  A    between atoms: C_7  and  C_10 
REMARK    7  A    between atoms: C_8  and  C_10 
REMARK    8  A    between atoms: C_8  and  N_17 
REMARK    9  A    between atoms: C_11  and  C_13 
REMARK   10  A    between atoms: C_11  and  N_12 
ROOT
HETATM    1  C           1     -21.351  -5.914  -5.469  0.00  0.00     0.249 C 
HETATM    2  N           1     -20.787  -6.772  -4.564  0.00  0.00    -0.345 N 
HETATM    3  O           1     -22.552  -5.811  -5.536  0.00  0.00    -0.271 OA
HETATM    4  H           1     -19.779  -6.859  -4.508  0.00  0.00     0.163 HD
ENDROOT
BRANCH   1   5
HETATM    5  C           1     -20.471  -5.097  -6.384  0.00  0.00     0.274 C 
BRANCH   5   6
HETATM    6  C           1     -21.283  -3.960  -6.988  0.00  0.00     0.044 C 
BRANCH   6   7
HETATM    7  C           1     -21.327  -4.116  -8.503  0.00  0.00     0.030 C 
BRANCH   7   8
HETATM    8  C           1     -22.776  -4.144  -8.969  0.00  0.00     0.230 C 
BRANCH   8   9
HETATM    9  N           1     -23.687  -4.127  -7.776  0.00  0.00    -0.079 N 
HETATM   10  H           1     -24.071  -3.165  -7.645  0.00  0.00     0.274 HD
HETATM   11  H           1     -23.148  -4.407  -6.924  0.00  0.00     0.274 HD
HETATM   12  H           1     -24.472  -4.799  -7.928  0.00  0.00     0.274 HD
ENDBRANCH   8   9
ENDBRANCH   7   8
ENDBRANCH   6   7
ENDBRANCH   5   6
BRANCH   5  13
HETATM   13  N           1     -19.942  -5.972  -7.481  0.00  0.00    -0.067 N 
HETATM   14  H           1     -20.698  -6.613  -7.810  0.00  0.00     0.275 HD
HETATM   15  H           1     -19.620  -5.376  -8.277  0.00  0.00     0.275 HD
HETATM   16  H           1     -19.140  -6.536  -7.120  0.00  0.00     0.275 HD
ENDBRANCH   5  13
ENDBRANCH   1   5
BRANCH   2  17
HETATM   17  C           1     -21.631  -7.558  -3.686  0.00  0.00     0.185 C 
BRANCH  17  18
HETATM   18  C           1     -21.057  -8.962  -3.554  0.00  0.00     0.040 C 
BRANCH  18  19
HETATM   19  C           1     -19.648  -8.992  -4.133  0.00  0.00    -0.020 C 
HETATM   20  C           1     -18.651  -9.309  -3.026  0.00  0.00     0.009 C 
HETATM   21  C           1     -19.567 -10.063  -5.212  0.00  0.00     0.009 C 
ENDBRANCH  18  19
ENDBRANCH  17  18
BRANCH  17  22
HETATM   22  C           1     -21.685  -6.906  -2.326  0.00  0.00     0.196 C 
HETATM   23  O           1     -21.119  -7.447  -1.350  0.00  0.00    -0.646 OA
HETATM   24  O           1     -22.293  -5.824  -2.175  0.00  0.00    -0.646 OA
ENDBRANCH  17  22
ENDBRANCH   2  17
TORSDOF 10
ENDMDL
MODEL 6
REMARK VINA RESULT:      -5.5      3.272      7.397
REMARK  10 active torsions:
REMARK  status: ('A' for Active; 'I' for Inactive)
REMARK    1  A    between atoms: C_1  and  C_5 
REMARK    2  A    between atoms: C_1  and  C_11 
REMARK       I    between atoms: C_3  and  N_12 
REMARK    3  A    between atoms: C_3  and  C_4 
REMARK    4  A    between atoms: C_4  and  C_7 
REMARK    5  A    between atoms: C_4  and  N_24 
REMARK    6  A    between atoms: C_7  and  C_10 
REMARK    7  A    between atoms: C_8  and  C_10 
REMARK    8  A    between atoms: C_8  and  N_17 
REMARK    9  A    between atoms: C_11  and  C_13 
REMARK   10  A    between atoms: C_11  and  N_12 
ROOT
HETATM    1  C           1     -20.918  -5.787  -6.323  0.00  0.00     0.249 C 
HETATM    2  N           1     -20.918  -7.126  -6.036  0.00  0.00    -0.345 N 
HETATM    3  O           1     -20.454  -5.000  -5.532  0.00  0.00    -0.271 OA
HETATM    4  H           1     -21.307  -7.785  -6.698  0.00  0.00     0.163 HD
ENDROOT
BRANCH   1   5
HETATM    5  C           1     -21.497  -5.295  -7.627  0.00  0.00     0.274 C 
BRANCH   5   6
HETATM    6  C           1     -20.371  -4.823  -8.536  0.00  0.00     0.044 C 
BRANCH   6   7
HETATM    7  C           1     -20.938  -3.911  -9.617  0.00  0.00     0.030 C 
BRANCH   7   8
HETATM    8  C           1     -20.436  -4.365 -10.980  0.00  0.00     0.230 C 
BRANCH   8   9
HETATM    9  N           1     -21.126  -3.579 -12.056  0.00  0.00    -0.079 N 
HETATM   10  H           1     -22.091  -3.954 -12.197  0.00  0.00     0.274 HD
HETATM   11  H           1     -20.586  -3.662 -12.948  0.00  0.00     0.274 HD
HETATM   12  H           1     -21.180  -2.575 -11.773  0.00  0.00     0.274 HD
ENDBRANCH   8   9
ENDBRANCH   7   8
ENDBRANCH   6   7
ENDBRANCH   5   6
BRANCH   5  13
HETATM   13  N           1     -22.434  -4.154  -7.359  0.00  0.00    -0.067 N 
HETATM   14  H           1     -21.893  -3.338  -6.993  0.00  0.00     0.275 HD
HETATM   15  H           1     -22.915  -3.884  -8.246  0.00  0.00     0.275 HD
HETATM   16  H           1     -23.144  -4.447  -6.650  0.00  0.00     0.275 HD
ENDBRANCH   5  13
ENDBRANCH   1   5
BRANCH   2  17
HETATM   17  C           1     -20.363  -7.599  -4.783  0.00  0.00     0.185 C 
BRANCH  17  18
HETATM   18  C           1     -21.492  -7.862  -3.795  0.00  0.00     0.040 C 
BRANCH  18  19
HETATM   19  C           1     -21.136  -7.257  -2.443  0.00  0.00    -0.020 C 
HETATM   20  C           1     -22.110  -6.133  -2.117  0.00  0.00     0.009 C 
HETATM   21  C           1     -21.223  -8.332  -1.368  0.00  0.00     0.009 C 
ENDBRANCH  18  19
ENDBRANCH  17  18
BRANCH  17  22
HETATM   22  C           1     -19.597  -8.877  -5.024  0.00  0.00     0.196 C 
HETATM   23  O           1     -20.023  -9.714  -5.850  0.00  0.00    -0.646 OA
HETATM   24  O           1     -18.537  -9.097  -4.400  0.00  0.00    -0.646 OA
ENDBRANCH  17  22
ENDBRANCH   2  17
TORSDOF 10
ENDMDL
MODEL 7
REMARK VINA RESULT:      -5.4     10.159     12.695
REMARK  10 active torsions:
REMARK  status: ('A' for Active; 'I' for Inactive)
REMARK    1  A    between atoms: C_1  and  C_5 
REMARK    2  A    between atoms: C_1  and  C_11 
REMARK       I    between atoms: C_3  and  N_12 
REMARK    3  A    between atoms: C_3  and  C_4 
REMARK    4  A    between atoms: C_4  and  C_7 
REMARK    5  A    between atoms: C_4  and  N_24 
REMARK    6  A    between atoms: C_7  and  C_10 
REMARK    7  A    between atoms: C_8  and  C_10 
REMARK    8  A    between atoms: C_8  and  N_17 
REMARK    9  A    between atoms: C_11  and  C_13 
REMARK   10  A    between atoms: C_11  and  N_12 
ROOT
HETATM    1  C           1     -26.565  -6.476 -18.925  0.00  0.00     0.249 C 
HETATM    2  N           1     -26.844  -6.672 -17.599  0.00  0.00    -0.345 N 
HETATM    3  O           1     -27.431  -6.089 -19.673  0.00  0.00    -0.271 OA
HETATM    4  H           1     -26.119  -6.997 -16.972  0.00  0.00     0.163 HD
ENDROOT
BRANCH   1   5
HETATM    5  C           1     -25.176  -6.742 -19.451  0.00  0.00     0.274 C 
BRANCH   5   6
HETATM    6  C           1     -25.253  -7.720 -20.615  0.00  0.00     0.044 C 
BRANCH   6   7
HETATM    7  C           1     -24.482  -7.158 -21.803  0.00  0.00     0.030 C 
BRANCH   7   8
HETATM    8  C           1     -23.523  -8.215 -22.332  0.00  0.00     0.230 C 
BRANCH   8   9
HETATM    9  N           1     -22.920  -8.966 -21.181  0.00  0.00    -0.079 N 
HETATM   10  H           1     -22.032  -8.500 -20.888  0.00  0.00     0.274 HD
HETATM   11  H           1     -22.717  -9.949 -21.475  0.00  0.00     0.274 HD
HETATM   12  H           1     -23.591  -8.972 -20.380  0.00  0.00     0.274 HD
ENDBRANCH   8   9
ENDBRANCH   7   8
ENDBRANCH   6   7
ENDBRANCH   5   6
BRANCH   5  13
HETATM   13  N           1     -24.332  -7.330 -18.359  0.00  0.00    -0.067 N 
HETATM   14  H           1     -24.733  -7.069 -17.430  0.00  0.00     0.275 HD
HETATM   15  H           1     -24.319  -8.370 -18.452  0.00  0.00     0.275 HD
HETATM   16  H           1     -23.358  -6.959 -18.434  0.00  0.00     0.275 HD
ENDBRANCH   5  13
ENDBRANCH   1   5
BRANCH   2  17
HETATM   17  C           1     -28.179  -6.418 -17.093  0.00  0.00     0.185 C 
BRANCH  17  18
HETATM   18  C           1     -29.136  -7.470 -17.637  0.00  0.00     0.040 C 
BRANCH  18  19
HETATM   19  C           1     -30.571  -6.981 -17.479  0.00  0.00    -0.020 C 
HETATM   20  C           1     -30.623  -5.477 -17.711  0.00  0.00     0.009 C 
HETATM   21  C           1     -31.461  -7.683 -18.496  0.00  0.00     0.009 C 
ENDBRANCH  18  19
ENDBRANCH  17  18
BRANCH  17  22
HETATM   22  C           1     -28.165  -6.481 -15.585  0.00  0.00     0.196 C 
HETATM   23  O           1     -27.756  -7.512 -15.007  0.00  0.00    -0.646 OA
HETATM   24  O           1     -28.559  -5.503 -14.915  0.00  0.00    -0.646 OA
ENDBRANCH  17  22
ENDBRANCH   2  17
TORSDOF 10
ENDMDL
MODEL 8
REMARK VINA RESULT:      -5.1      5.942      9.549
REMARK  10 active torsions:
REMARK  status: ('A' for Active; 'I' for Inactive)
REMARK    1  A    between atoms: C_1  and  C_5 
REMARK    2  A    between atoms: C_1  and  C_11 
REMARK       I    between atoms: C_3  and  N_12 
REMARK    3  A    between atoms: C_3  and  C_4 
REMARK    4  A    between atoms: C_4  and  C_7 
REMARK    5  A    between atoms: C_4  and  N_24 
REMARK    6  A    between atoms: C_7  and  C_10 
REMARK    7  A    between atoms: C_8  and  C_10 
REMARK    8  A    between atoms: C_8  and  N_17 
REMARK    9  A    between atoms: C_11  and  C_13 
REMARK   10  A    between atoms: C_11  and  N_12 
ROOT
HETATM    1  C           1     -21.485  -9.632  -3.181  0.00  0.00     0.249 C 
HETATM    2  N           1     -21.369  -9.015  -1.964  0.00  0.00    -0.345 N 
HETATM    3  O           1     -22.404 -10.387  -3.390  0.00  0.00    -0.271 OA
HETATM    4  H           1     -20.599  -8.382  -1.789  0.00  0.00     0.163 HD
ENDROOT
BRANCH   1   5
HETATM    5  C           1     -20.463  -9.369  -4.260  0.00  0.00     0.274 C 
BRANCH   5   6
HETATM    6  C           1     -20.339  -7.869  -4.486  0.00  0.00     0.044 C 
BRANCH   6   7
HETATM    7  C           1     -21.296  -7.439  -5.590  0.00  0.00     0.030 C 
BRANCH   7   8
HETATM    8  C           1     -22.322  -6.468  -5.023  0.00  0.00     0.230 C 
BRANCH   8   9
HETATM    9  N           1     -21.910  -6.053  -3.641  0.00  0.00    -0.079 N 
HETATM   10  H           1     -22.095  -6.833  -2.973  0.00  0.00     0.274 HD
HETATM   11  H           1     -22.457  -5.210  -3.353  0.00  0.00     0.274 HD
HETATM   12  H           1     -20.890  -5.825  -3.637  0.00  0.00     0.274 HD
ENDBRANCH   8   9
ENDBRANCH   7   8
ENDBRANCH   6   7
ENDBRANCH   5   6
BRANCH   5  13
HETATM   13  N           1     -20.900 -10.031  -5.534  0.00  0.00    -0.067 N 
HETATM   14  H           1     -21.707  -9.508  -5.939  0.00  0.00     0.275 HD
HETATM   15  H           1     -20.107 -10.032  -6.214  0.00  0.00     0.275 HD
HETATM   16  H           1     -21.188 -11.015  -5.332  0.00  0.00     0.275 HD
ENDBRANCH   5  13
ENDBRANCH   1   5
BRANCH   2  17
HETATM   17  C           1     -22.350  -9.268  -0.927  0.00  0.00     0.185 C 
BRANCH  17  18
HETATM   18  C           1     -21.762 -10.223   0.104  0.00  0.00     0.040 C 
BRANCH  18  19
HETATM   19  C           1     -22.350 -11.614  -0.098  0.00  0.00    -0.020 C 
HETATM   20  C           1     -21.880 -12.531   1.023  0.00  0.00     0.009 C 
HETATM   21  C           1     -23.870 -11.529  -0.083  0.00  0.00     0.009 C 
ENDBRANCH  18  19
ENDBRANCH  17  18
BRANCH  17  22
HETATM   22  C           1     -22.718  -7.967  -0.256  0.00  0.00     0.196 C 
HETATM   23  O           1     -22.625  -6.891  -0.886  0.00  0.00    -0.646 OA
HETATM   24  O           1     -23.117  -7.966   0.928  0.00  0.00    -0.646 OA
ENDBRANCH  17  22
ENDBRANCH   2  17
TORSDOF 10
ENDMDL
MODEL 9
REMARK VINA RESULT:      -5.0      4.514      8.699
REMARK  10 active torsions:
REMARK  status: ('A' for Active; 'I' for Inactive)
REMARK    1  A    between atoms: C_1  and  C_5 
REMARK    2  A    between atoms: C_1  and  C_11 
REMARK       I    between atoms: C_3  and  N_12 
REMARK    3  A    between atoms: C_3  and  C_4 
REMARK    4  A    between atoms: C_4  and  C_7 
REMARK    5  A    between atoms: C_4  and  N_24 
REMARK    6  A    between atoms: C_7  and  C_10 
REMARK    7  A    between atoms: C_8  and  C_10 
REMARK    8  A    between atoms: C_8  and  N_17 
REMARK    9  A    between atoms: C_11  and  C_13 
REMARK   10  A    between atoms: C_11  and  N_12 
ROOT
HETATM    1  C           1     -21.397  -7.105  -3.787  0.00  0.00     0.249 C 
HETATM    2  N           1     -21.286  -8.460  -3.620  0.00  0.00    -0.345 N 
HETATM    3  O           1     -21.267  -6.368  -2.840  0.00  0.00    -0.271 OA
HETATM    4  H           1     -21.395  -9.078  -4.414  0.00  0.00     0.163 HD
ENDROOT
BRANCH   1   5
HETATM    5  C           1     -21.680  -6.535  -5.156  0.00  0.00     0.274 C 
BRANCH   5   6
HETATM    6  C           1     -20.734  -5.374  -5.427  0.00  0.00     0.044 C 
BRANCH   6   7
HETATM    7  C           1     -20.762  -5.031  -6.911  0.00  0.00     0.030 C 
BRANCH   7   8
HETATM    8  C           1     -21.232  -3.594  -7.092  0.00  0.00     0.230 C 
BRANCH   8   9
HETATM    9  N           1     -22.406  -3.564  -8.025  0.00  0.00    -0.079 N 
HETATM   10  H           1     -22.405  -4.427  -8.615  0.00  0.00     0.274 HD
HETATM   11  H           1     -22.340  -2.722  -8.641  0.00  0.00     0.274 HD
HETATM   12  H           1     -23.291  -3.522  -7.471  0.00  0.00     0.274 HD
ENDBRANCH   8   9
ENDBRANCH   7   8
ENDBRANCH   6   7
ENDBRANCH   5   6
BRANCH   5  13
HETATM   13  N           1     -23.098  -6.049  -5.210  0.00  0.00    -0.067 N 
HETATM   14  H           1     -23.105  -5.009  -5.312  0.00  0.00     0.275 HD
HETATM   15  H           1     -23.583  -6.482  -6.028  0.00  0.00     0.275 HD
HETATM   16  H           1     -23.591  -6.316  -4.329  0.00  0.00     0.275 HD
ENDBRANCH   5  13
ENDBRANCH   1   5
BRANCH   2  17
HETATM   17  C           1     -21.015  -9.008  -2.305  0.00  0.00     0.185 C 
BRANCH  17  18
HETATM   18  C           1     -22.145  -9.947  -1.905  0.00  0.00     0.040 C 
BRANCH  18  19
HETATM   19  C           1     -22.460  -9.761  -0.425  0.00  0.00    -0.020 C 
HETATM   20  C           1     -22.638  -8.278  -0.127  0.00  0.00     0.009 C 
HETATM   21  C           1     -23.742 -10.506  -0.082  0.00  0.00     0.009 C 
ENDBRANCH  18  19
ENDBRANCH  17  18
BRANCH  17  22
HETATM   22  C           1     -19.714  -9.773  -2.339  0.00  0.00     0.196 C 
HETATM   23  O           1     -19.717 -11.016  -2.208  0.00  0.00    -0.646 OA
HETATM   24  O           1     -18.635  -9.163  -2.500  0.00  0.00    -0.646 OA
ENDBRANCH  17  22
ENDBRANCH   2  17
TORSDOF 10
ENDMDL
