MODEL 1
REMARK VINA RESULT:      -6.0      0.000      0.000
REMARK  5 active torsions:
REMARK  status: ('A' for Active; 'I' for Inactive)
REMARK    1  A    between atoms: C_1  and  C_12 
REMARK    2  A    between atoms: C_1  and  C_2 
REMARK    3  A    between atoms: C_1  and  N_6 
REMARK       I    between atoms: N_6  and  C_7 
REMARK    4  A    between atoms: C_7  and  C_8 
REMARK    5  A    between atoms: C_12  and  O_17 
ROOT
HETATM    1  H           1     -33.799  -1.115 -12.588  0.00  0.00     0.163 HD
HETATM    2  N           1     -34.798  -1.058 -12.437  0.00  0.00    -0.343 N 
HETATM    3  C           1     -35.398  -1.866 -11.509  0.00  0.00     0.251 C 
HETATM    4  O           1     -36.590  -1.797 -11.328  0.00  0.00    -0.271 OA
ENDROOT
BRANCH   2   5
HETATM    5  C           1     -35.595  -0.120 -13.205  0.00  0.00     0.209 C 
BRANCH   5   6
HETATM    6  C           1     -34.753   1.101 -13.549  0.00  0.00     0.200 C 
BRANCH   6   7
HETATM    7  O           1     -35.274   1.719 -14.696  0.00  0.00    -0.398 OA
HETATM    8  H           1     -34.651   1.577 -15.389  0.00  0.00     0.209 HD
ENDBRANCH   6   7
ENDBRANCH   5   6
BRANCH   5   9
HETATM    9  C           1     -36.062  -0.783 -14.478  0.00  0.00     0.198 C 
HETATM   10  O           1     -35.246  -1.402 -15.195  0.00  0.00    -0.646 OA
HETATM   11  O           1     -37.263  -0.714 -14.814  0.00  0.00    -0.646 OA
ENDBRANCH   5   9
ENDBRANCH   2   5
BRANCH   3  12
HETATM   12  C           1     -34.568  -2.841 -10.709  0.00  0.00     0.311 C 
HETATM   13  N           1     -35.082  -4.200 -10.854  0.00  0.00     0.097 N 
HETATM   14  H           1     -34.711  -4.806 -10.121  0.00  0.00     0.317 HD
HETATM   15  C           1     -34.596  -4.652 -12.154  0.00  0.00     0.271 C 
HETATM   16  C           1     -33.175  -4.117 -12.215  0.00  0.00     0.033 C 
HETATM   17  C           1     -33.156  -2.929 -11.262  0.00  0.00     0.047 C 
ENDBRANCH   3  12
TORSDOF 5
ENDMDL
MODEL 2
REMARK VINA RESULT:      -5.9     12.970     14.159
REMARK  5 active torsions:
REMARK  status: ('A' for Active; 'I' for Inactive)
REMARK    1  A    between atoms: C_1  and  C_12 
REMARK    2  A    between atoms: C_1  and  C_2 
REMARK    3  A    between atoms: C_1  and  N_6 
REMARK       I    between atoms: N_6  and  C_7 
REMARK    4  A    between atoms: C_7  and  C_8 
REMARK    5  A    between atoms: C_12  and  O_17 
ROOT
HETATM    1  H           1     -21.293  -5.299 -10.145  0.00  0.00     0.163 HD
HETATM    2  N           1     -21.795  -4.550  -9.686  0.00  0.00    -0.343 N 
HETATM    3  C           1     -21.945  -4.561  -8.324  0.00  0.00     0.251 C 
HETATM    4  O           1     -22.544  -3.666  -7.776  0.00  0.00    -0.271 OA
ENDROOT
BRANCH   2   5
HETATM    5  C           1     -22.356  -3.466 -10.468  0.00  0.00     0.209 C 
BRANCH   5   6
HETATM    6  C           1     -21.378  -3.071 -11.566  0.00  0.00     0.200 C 
BRANCH   6   7
HETATM    7  O           1     -21.755  -3.684 -12.770  0.00  0.00    -0.398 OA
HETATM    8  H           1     -21.222  -3.304 -13.448  0.00  0.00     0.209 HD
ENDBRANCH   6   7
ENDBRANCH   5   6
BRANCH   5   9
HETATM    9  C           1     -23.655  -3.916 -11.091  0.00  0.00     0.198 C 
HETATM   10  O           1     -23.871  -5.134 -11.272  0.00  0.00    -0.646 OA
HETATM   11  O           1     -24.514  -3.073 -11.425  0.00  0.00    -0.646 OA
ENDBRANCH   5   9
ENDBRANCH   2   5
BRANCH   3  12
HETATM   12  C           1     -21.360  -5.689  -7.510  0.00  0.00     0.311 C 
HETATM   13  N           1     -19.941  -5.861  -7.806  0.00  0.00     0.097 N 
HETATM   14  H           1     -19.611  -6.769  -7.479  0.00  0.00     0.317 HD
HETATM   15  C           1     -19.268  -4.801  -7.061  0.00  0.00     0.271 C 
HETATM   16  C           1     -20.008  -4.765  -5.734  0.00  0.00     0.033 C 
HETATM   17  C           1     -21.382  -5.353  -6.029  0.00  0.00     0.047 C 
ENDBRANCH   3  12
TORSDOF 5
ENDMDL
MODEL 3
REMARK VINA RESULT:      -5.7      1.605      2.049
REMARK  5 active torsions:
REMARK  status: ('A' for Active; 'I' for Inactive)
REMARK    1  A    between atoms: C_1  and  C_12 
REMARK    2  A    between atoms: C_1  and  C_2 
REMARK    3  A    between atoms: C_1  and  N_6 
REMARK       I    between atoms: N_6  and  C_7 
REMARK    4  A    between atoms: C_7  and  C_8 
REMARK    5  A    between atoms: C_12  and  O_17 
ROOT
HETATM    1  H           1     -33.981  -0.514 -14.257  0.00  0.00     0.163 HD
HETATM    2  N           1     -34.972  -0.589 -14.072  0.00  0.00    -0.343 N 
HETATM    3  C           1     -35.409  -1.133 -12.893  0.00  0.00     0.251 C 
HETATM    4  O           1     -36.593  -1.223 -12.672  0.00  0.00    -0.271 OA
ENDROOT
BRANCH   2   5
HETATM    5  C           1     -35.932  -0.122 -15.054  0.00  0.00     0.209 C 
BRANCH   5   6
HETATM    6  C           1     -35.602   1.312 -15.446  0.00  0.00     0.200 C 
BRANCH   6   7
HETATM    7  O           1     -36.685   1.867 -16.143  0.00  0.00    -0.398 OA
HETATM    8  H           1     -37.083   1.166 -16.631  0.00  0.00     0.209 HD
ENDBRANCH   6   7
ENDBRANCH   5   6
BRANCH   5   9
HETATM    9  C           1     -35.868  -1.004 -16.277  0.00  0.00     0.198 C 
HETATM   10  O           1     -36.658  -0.812 -17.227  0.00  0.00    -0.646 OA
HETATM   11  O           1     -35.025  -1.924 -16.341  0.00  0.00    -0.646 OA
ENDBRANCH   5   9
ENDBRANCH   2   5
BRANCH   3  12
HETATM   12  C           1     -34.411  -1.619 -11.871  0.00  0.00     0.311 C 
HETATM   13  N           1     -35.033  -1.743 -10.556  0.00  0.00     0.097 N 
HETATM   14  H           1     -34.323  -1.801  -9.825  0.00  0.00     0.317 HD
HETATM   15  C           1     -35.783  -2.994 -10.609  0.00  0.00     0.271 C 
HETATM   16  C           1     -34.861  -3.938 -11.363  0.00  0.00     0.033 C 
HETATM   17  C           1     -33.956  -3.033 -12.190  0.00  0.00     0.047 C 
ENDBRANCH   3  12
TORSDOF 5
ENDMDL
MODEL 4
REMARK VINA RESULT:      -5.7     12.778     14.036
REMARK  5 active torsions:
REMARK  status: ('A' for Active; 'I' for Inactive)
REMARK    1  A    between atoms: C_1  and  C_12 
REMARK    2  A    between atoms: C_1  and  C_2 
REMARK    3  A    between atoms: C_1  and  N_6 
REMARK       I    between atoms: N_6  and  C_7 
REMARK    4  A    between atoms: C_7  and  C_8 
REMARK    5  A    between atoms: C_12  and  O_17 
ROOT
HETATM    1  H           1     -22.792  -3.292  -8.909  0.00  0.00     0.163 HD
HETATM    2  N           1     -22.241  -3.839  -9.557  0.00  0.00    -0.343 N 
HETATM    3  C           1     -20.949  -4.171  -9.246  0.00  0.00     0.251 C 
HETATM    4  O           1     -20.291  -4.826 -10.019  0.00  0.00    -0.271 OA
ENDROOT
BRANCH   2   5
HETATM    5  C           1     -22.818  -4.274 -10.814  0.00  0.00     0.209 C 
BRANCH   5   6
HETATM    6  C           1     -23.988  -5.210 -10.541  0.00  0.00     0.200 C 
BRANCH   6   7
HETATM    7  O           1     -24.889  -4.588  -9.663  0.00  0.00    -0.398 OA
HETATM    8  H           1     -24.573  -3.712  -9.523  0.00  0.00     0.209 HD
ENDBRANCH   6   7
ENDBRANCH   5   6
BRANCH   5   9
HETATM    9  C           1     -23.307  -3.071 -11.584  0.00  0.00     0.198 C 
HETATM   10  O           1     -22.485  -2.259 -12.060  0.00  0.00    -0.646 OA
HETATM   11  O           1     -24.532  -2.889 -11.746  0.00  0.00    -0.646 OA
ENDBRANCH   5   9
ENDBRANCH   2   5
BRANCH   3  12
HETATM   12  C           1     -20.349  -3.720  -7.937  0.00  0.00     0.311 C 
HETATM   13  N           1     -21.345  -3.754  -6.870  0.00  0.00     0.097 N 
HETATM   14  H           1     -21.035  -3.205  -6.068  0.00  0.00     0.317 HD
HETATM   15  C           1     -21.443  -5.160  -6.489  0.00  0.00     0.271 C 
HETATM   16  C           1     -20.003  -5.645  -6.519  0.00  0.00     0.033 C 
HETATM   17  C           1     -19.283  -4.694  -7.467  0.00  0.00     0.047 C 
ENDBRANCH   3  12
TORSDOF 5
ENDMDL
MODEL 5
REMARK VINA RESULT:      -5.4     10.181     11.698
REMARK  5 active torsions:
REMARK  status: ('A' for Active; 'I' for Inactive)
REMARK    1  A    between atoms: C_1  and  C_12 
REMARK    2  A    between atoms: C_1  and  C_2 
REMARK    3  A    between atoms: C_1  and  N_6 
REMARK       I    between atoms: N_6  and  C_7 
REMARK    4  A    between atoms: C_7  and  C_8 
REMARK    5  A    between atoms: C_12  and  O_17 
ROOT
HETATM    1  H           1     -27.701  -8.417 -19.243  0.00  0.00     0.163 HD
HETATM    2  N           1     -27.608  -7.422 -19.398  0.00  0.00    -0.343 N 
HETATM    3  C           1     -28.476  -6.551 -18.794  0.00  0.00     0.251 C 
HETATM    4  O           1     -28.363  -5.363 -18.978  0.00  0.00    -0.271 OA
ENDROOT
BRANCH   2   5
HETATM    5  C           1     -26.556  -6.916 -20.258  0.00  0.00     0.209 C 
BRANCH   5   6
HETATM    6  C           1     -25.324  -6.595 -19.421  0.00  0.00     0.200 C 
BRANCH   6   7
HETATM    7  O           1     -24.576  -7.764 -19.223  0.00  0.00    -0.398 OA
HETATM    8  H           1     -24.764  -8.335 -19.948  0.00  0.00     0.209 HD
ENDBRANCH   6   7
ENDBRANCH   5   6
BRANCH   5   9
HETATM    9  C           1     -26.203  -7.962 -21.288  0.00  0.00     0.198 C 
HETATM   10  O           1     -25.097  -7.919 -21.869  0.00  0.00    -0.646 OA
HETATM   11  O           1     -27.016  -8.872 -21.558  0.00  0.00    -0.646 OA
ENDBRANCH   5   9
ENDBRANCH   2   5
BRANCH   3  12
HETATM   12  C           1     -29.570  -7.077 -17.898  0.00  0.00     0.311 C 
HETATM   13  N           1     -29.048  -8.083 -16.977  0.00  0.00     0.097 N 
HETATM   14  H           1     -29.808  -8.628 -16.569  0.00  0.00     0.317 HD
HETATM   15  C           1     -28.377  -7.322 -15.927  0.00  0.00     0.271 C 
HETATM   16  C           1     -29.303  -6.141 -15.687  0.00  0.00     0.033 C 
HETATM   17  C           1     -30.090  -5.983 -16.982  0.00  0.00     0.047 C 
ENDBRANCH   3  12
TORSDOF 5
ENDMDL
MODEL 6
REMARK VINA RESULT:      -5.3      1.671      2.565
REMARK  5 active torsions:
REMARK  status: ('A' for Active; 'I' for Inactive)
REMARK    1  A    between atoms: C_1  and  C_12 
REMARK    2  A    between atoms: C_1  and  C_2 
REMARK    3  A    between atoms: C_1  and  N_6 
REMARK       I    between atoms: N_6  and  C_7 
REMARK    4  A    between atoms: C_7  and  C_8 
REMARK    5  A    between atoms: C_12  and  O_17 
ROOT
HETATM    1  H           1     -36.003  -0.427 -12.799  0.00  0.00     0.163 HD
HETATM    2  N           1     -35.551  -0.952 -13.536  0.00  0.00    -0.343 N 
HETATM    3  C           1     -35.072  -2.210 -13.286  0.00  0.00     0.251 C 
HETATM    4  O           1     -34.533  -2.837 -14.168  0.00  0.00    -0.271 OA
ENDROOT
BRANCH   2   5
HETATM    5  C           1     -35.410  -0.372 -14.858  0.00  0.00     0.209 C 
BRANCH   5   6
HETATM    6  C           1     -36.687  -0.606 -15.655  0.00  0.00     0.200 C 
BRANCH   6   7
HETATM    7  O           1     -36.394  -0.570 -17.027  0.00  0.00    -0.398 OA
HETATM    8  H           1     -36.924  -1.233 -17.436  0.00  0.00     0.209 HD
ENDBRANCH   6   7
ENDBRANCH   5   6
BRANCH   5   9
HETATM    9  C           1     -35.163   1.112 -14.731  0.00  0.00     0.198 C 
HETATM   10  O           1     -35.596   1.894 -15.605  0.00  0.00    -0.646 OA
HETATM   11  O           1     -34.526   1.558 -13.753  0.00  0.00    -0.646 OA
ENDBRANCH   5   9
ENDBRANCH   2   5
BRANCH   3  12
HETATM   12  C           1     -35.220  -2.814 -11.911  0.00  0.00     0.311 C 
HETATM   13  N           1     -34.320  -3.952 -11.745  0.00  0.00     0.097 N 
HETATM   14  H           1     -34.601  -4.521 -10.946  0.00  0.00     0.317 HD
HETATM   15  C           1     -33.009  -3.363 -11.488  0.00  0.00     0.271 C 
HETATM   16  C           1     -33.311  -2.194 -10.565  0.00  0.00     0.033 C 
HETATM   17  C           1     -34.766  -1.837 -10.841  0.00  0.00     0.047 C 
ENDBRANCH   3  12
TORSDOF 5
ENDMDL
MODEL 7
REMARK VINA RESULT:      -5.0      1.856      3.090
REMARK  5 active torsions:
REMARK  status: ('A' for Active; 'I' for Inactive)
REMARK    1  A    between atoms: C_1  and  C_12 
REMARK    2  A    between atoms: C_1  and  C_2 
REMARK    3  A    between atoms: C_1  and  N_6 
REMARK       I    between atoms: N_6  and  C_7 
REMARK    4  A    between atoms: C_7  and  C_8 
REMARK    5  A    between atoms: C_12  and  O_17 
ROOT
HETATM    1  H           1     -35.944  -2.394 -10.981  0.00  0.00     0.163 HD
HETATM    2  N           1     -35.701  -1.824 -11.781  0.00  0.00    -0.343 N 
HETATM    3  C           1     -35.044  -2.382 -12.845  0.00  0.00     0.251 C 
HETATM    4  O           1     -34.756  -1.702 -13.801  0.00  0.00    -0.271 OA
ENDROOT
BRANCH   2   5
HETATM    5  C           1     -36.049  -0.416 -11.802  0.00  0.00     0.209 C 
BRANCH   5   6
HETATM    6  C           1     -37.309  -0.215 -12.632  0.00  0.00     0.200 C 
BRANCH   6   7
HETATM    7  O           1     -36.970   0.362 -13.864  0.00  0.00    -0.398 OA
HETATM    8  H           1     -37.754   0.373 -14.386  0.00  0.00     0.209 HD
ENDBRANCH   6   7
ENDBRANCH   5   6
BRANCH   5   9
HETATM    9  C           1     -36.296   0.060 -10.391  0.00  0.00     0.198 C 
HETATM   10  O           1     -35.938  -0.644  -9.422  0.00  0.00    -0.646 OA
HETATM   11  O           1     -36.857   1.158 -10.192  0.00  0.00    -0.646 OA
ENDBRANCH   5   9
ENDBRANCH   2   5
BRANCH   3  12
HETATM   12  C           1     -34.684  -3.848 -12.824  0.00  0.00     0.311 C 
HETATM   13  N           1     -33.242  -4.029 -12.972  0.00  0.00     0.097 N 
HETATM   14  H           1     -33.024  -4.992 -13.231  0.00  0.00     0.317 HD
HETATM   15  C           1     -32.687  -3.741 -11.653  0.00  0.00     0.271 C 
HETATM   16  C           1     -33.675  -4.385 -10.695  0.00  0.00     0.033 C 
HETATM   17  C           1     -34.987  -4.459 -11.467  0.00  0.00     0.047 C 
ENDBRANCH   3  12
TORSDOF 5
ENDMDL
MODEL 8
REMARK VINA RESULT:      -4.9      1.374      2.019
REMARK  5 active torsions:
REMARK  status: ('A' for Active; 'I' for Inactive)
REMARK    1  A    between atoms: C_1  and  C_12 
REMARK    2  A    between atoms: C_1  and  C_2 
REMARK    3  A    between atoms: C_1  and  N_6 
REMARK       I    between atoms: N_6  and  C_7 
REMARK    4  A    between atoms: C_7  and  C_8 
REMARK    5  A    between atoms: C_12  and  O_17 
ROOT
HETATM    1  H           1     -34.097  -1.566 -14.230  0.00  0.00     0.163 HD
HETATM    2  N           1     -34.853  -1.562 -13.558  0.00  0.00    -0.343 N 
HETATM    3  C           1     -35.013  -2.621 -12.703  0.00  0.00     0.251 C 
HETATM    4  O           1     -35.916  -2.616 -11.900  0.00  0.00    -0.271 OA
ENDROOT
BRANCH   2   5
HETATM    5  C           1     -35.767  -0.438 -13.499  0.00  0.00     0.209 C 
BRANCH   5   6
HETATM    6  C           1     -35.249   0.587 -12.499  0.00  0.00     0.200 C 
BRANCH   6   7
HETATM    7  O           1     -35.828   0.350 -11.244  0.00  0.00    -0.398 OA
HETATM    8  H           1     -35.405  -0.413 -10.888  0.00  0.00     0.209 HD
ENDBRANCH   6   7
ENDBRANCH   5   6
BRANCH   5   9
HETATM    9  C           1     -35.869   0.198 -14.864  0.00  0.00     0.198 C 
HETATM   10  O           1     -34.948   0.935 -15.279  0.00  0.00    -0.646 OA
HETATM   11  O           1     -36.871  -0.013 -15.578  0.00  0.00    -0.646 OA
ENDBRANCH   5   9
ENDBRANCH   2   5
BRANCH   3  12
HETATM   12  C           1     -34.061  -3.790 -12.764  0.00  0.00     0.311 C 
HETATM   13  N           1     -32.976  -3.626 -11.801  0.00  0.00     0.097 N 
HETATM   14  H           1     -32.201  -4.253 -12.020  0.00  0.00     0.317 HD
HETATM   15  C           1     -33.554  -3.997 -10.513  0.00  0.00     0.271 C 
HETATM   16  C           1     -34.418  -5.203 -10.837  0.00  0.00     0.033 C 
HETATM   17  C           1     -34.748  -5.069 -12.319  0.00  0.00     0.047 C 
ENDBRANCH   3  12
TORSDOF 5
ENDMDL
MODEL 9
REMARK VINA RESULT:      -4.8     14.754     16.574
REMARK  5 active torsions:
REMARK  status: ('A' for Active; 'I' for Inactive)
REMARK    1  A    between atoms: C_1  and  C_12 
REMARK    2  A    between atoms: C_1  and  C_2 
REMARK    3  A    between atoms: C_1  and  N_6 
REMARK       I    between atoms: N_6  and  C_7 
REMARK    4  A    between atoms: C_7  and  C_8 
REMARK    5  A    between atoms: C_12  and  O_17 
ROOT
HETATM    1  H           1     -20.214  -5.734  -5.503  0.00  0.00     0.163 HD
HETATM    2  N           1     -21.218  -5.841  -5.562  0.00  0.00    -0.343 N 
HETATM    3  C           1     -21.956  -4.973  -6.321  0.00  0.00     0.251 C 
HETATM    4  O           1     -23.155  -5.102  -6.392  0.00  0.00    -0.271 OA
ENDROOT
BRANCH   2   5
HETATM    5  C           1     -21.877  -6.914  -4.842  0.00  0.00     0.209 C 
BRANCH   5   6
HETATM    6  C           1     -21.281  -8.251  -5.262  0.00  0.00     0.200 C 
BRANCH   6   7
HETATM    7  O           1     -19.945  -8.066  -5.647  0.00  0.00    -0.398 OA
HETATM    8  H           1     -19.948  -7.442  -6.353  0.00  0.00     0.209 HD
ENDBRANCH   6   7
ENDBRANCH   5   6
BRANCH   5   9
HETATM    9  C           1     -21.678  -6.719  -3.359  0.00  0.00     0.198 C 
HETATM   10  O           1     -22.419  -5.936  -2.727  0.00  0.00    -0.646 OA
HETATM   11  O           1     -20.774  -7.342  -2.763  0.00  0.00    -0.646 OA
ENDBRANCH   5   9
ENDBRANCH   2   5
BRANCH   3  12
HETATM   12  C           1     -21.270  -3.857  -7.071  0.00  0.00     0.311 C 
HETATM   13  N           1     -19.933  -4.263  -7.496  0.00  0.00     0.097 N 
HETATM   14  H           1     -19.374  -3.449  -7.752  0.00  0.00     0.317 HD
HETATM   15  C           1     -20.148  -5.097  -8.675  0.00  0.00     0.271 C 
HETATM   16  C           1     -21.255  -4.380  -9.430  0.00  0.00     0.033 C 
HETATM   17  C           1     -21.990  -3.562  -8.376  0.00  0.00     0.047 C 
ENDBRANCH   3  12
TORSDOF 5
ENDMDL
