MODEL 1
REMARK VINA RESULT:      -7.5      0.000      0.000
REMARK  8 active torsions:
REMARK  status: ('A' for Active; 'I' for Inactive)
REMARK    1  A    between atoms: C_3  and  C_21 
REMARK    2  A    between atoms: N_4  and  C_22 
REMARK    3  A    between atoms: N_6  and  C_23 
REMARK       I    between atoms: N_6  and  C_19 
REMARK    4  A    between atoms: C_12  and  C_16 
REMARK    5  A    between atoms: C_16  and  C_22 
REMARK    6  A    between atoms: C_19  and  C_22 
REMARK    7  A    between atoms: C_21  and  C_23 
REMARK    8  A    between atoms: C_23  and  C_24 
ROOT
HETATM    1  O           1     -21.622  -3.437  -7.472  0.00  0.00    -0.271 OA
HETATM    2  N           1     -22.335  -4.881  -9.020  0.00  0.00    -0.344 N 
HETATM    3  H           1     -22.409  -5.842  -9.327  0.00  0.00     0.163 HD
HETATM    4  C           1     -21.710  -4.586  -7.838  0.00  0.00     0.249 C 
ENDROOT
BRANCH   4   5
HETATM    5  C           1     -21.130  -5.694  -6.993  0.00  0.00     0.278 C 
BRANCH   5   6
HETATM    6  N           1     -19.804  -6.109  -7.555  0.00  0.00    -0.066 N 
HETATM    7  H           1     -19.666  -5.662  -8.490  0.00  0.00     0.275 HD
HETATM    8  H           1     -19.040  -5.805  -6.909  0.00  0.00     0.275 HD
HETATM    9  H           1     -19.779  -7.148  -7.660  0.00  0.00     0.275 HD
ENDBRANCH   5   6
BRANCH   5  10
HETATM   10  C           1     -20.944  -5.200  -5.564  0.00  0.00     0.081 C 
BRANCH  10  11
HETATM   11  C           1     -21.183  -6.329  -4.611  0.00  0.00    -0.056 A 
HETATM   12  C           1     -21.249  -6.080  -3.240  0.00  0.00     0.007 A 
HETATM   13  C           1     -21.472  -7.131  -2.350  0.00  0.00     0.001 A 
HETATM   14  C           1     -21.629  -8.431  -2.832  0.00  0.00     0.000 A 
HETATM   15  C           1     -21.561  -8.679  -4.203  0.00  0.00     0.001 A 
HETATM   16  C           1     -21.339  -7.628  -5.093  0.00  0.00     0.007 A 
ENDBRANCH  10  11
ENDBRANCH   5  10
ENDBRANCH   4   5
BRANCH   2  17
HETATM   17  C           1     -22.892  -3.816  -9.831  0.00  0.00     0.189 C 
BRANCH  17  18
HETATM   18  C           1     -22.508  -4.034 -11.289  0.00  0.00     0.014 C 
HETATM   19  C           1     -22.939  -2.826 -12.112  0.00  0.00     0.012 C 
BRANCH  18  20
HETATM   20  C           1     -21.000  -4.211 -11.398  0.00  0.00     0.002 C 
HETATM   21  C           1     -20.311  -2.881 -11.121  0.00  0.00     0.005 C 
ENDBRANCH  18  20
ENDBRANCH  17  18
BRANCH  17  22
HETATM   22  C           1     -24.395  -3.819  -9.701  0.00  0.00     0.197 C 
HETATM   23  O           1     -25.002  -2.757  -9.444  0.00  0.00    -0.646 OA
HETATM   24  O           1     -25.033  -4.883  -9.850  0.00  0.00    -0.646 OA
ENDBRANCH  17  22
ENDBRANCH   2  17
TORSDOF 8
ENDMDL
MODEL 2
REMARK VINA RESULT:      -7.3      2.555      7.494
REMARK  8 active torsions:
REMARK  status: ('A' for Active; 'I' for Inactive)
REMARK    1  A    between atoms: C_3  and  C_21 
REMARK    2  A    between atoms: N_4  and  C_22 
REMARK    3  A    between atoms: N_6  and  C_23 
REMARK       I    between atoms: N_6  and  C_19 
REMARK    4  A    between atoms: C_12  and  C_16 
REMARK    5  A    between atoms: C_16  and  C_22 
REMARK    6  A    between atoms: C_19  and  C_22 
REMARK    7  A    between atoms: C_21  and  C_23 
REMARK    8  A    between atoms: C_23  and  C_24 
ROOT
HETATM    1  O           1     -20.250  -5.117  -5.760  0.00  0.00    -0.271 OA
HETATM    2  N           1     -21.560  -6.881  -5.356  0.00  0.00    -0.344 N 
HETATM    3  H           1     -22.424  -7.369  -5.551  0.00  0.00     0.163 HD
HETATM    4  C           1     -21.282  -5.700  -5.993  0.00  0.00     0.249 C 
ENDROOT
BRANCH   4   5
HETATM    5  C           1     -22.266  -5.128  -6.984  0.00  0.00     0.278 C 
BRANCH   5   6
HETATM    6  N           1     -23.580  -4.891  -6.303  0.00  0.00    -0.066 N 
HETATM    7  H           1     -23.426  -4.786  -5.275  0.00  0.00     0.275 HD
HETATM    8  H           1     -24.017  -4.019  -6.680  0.00  0.00     0.275 HD
HETATM    9  H           1     -24.215  -5.702  -6.480  0.00  0.00     0.275 HD
ENDBRANCH   5   6
BRANCH   5  10
HETATM   10  C           1     -21.731  -3.809  -7.527  0.00  0.00     0.081 C 
BRANCH  10  11
HETATM   11  C           1     -21.697  -3.862  -9.023  0.00  0.00    -0.056 A 
HETATM   12  C           1     -22.877  -3.715  -9.752  0.00  0.00     0.007 A 
HETATM   13  C           1     -22.847  -3.765 -11.146  0.00  0.00     0.001 A 
HETATM   14  C           1     -21.636  -3.962 -11.810  0.00  0.00     0.000 A 
HETATM   15  C           1     -20.456  -4.110 -11.080  0.00  0.00     0.001 A 
HETATM   16  C           1     -20.487  -4.060  -9.686  0.00  0.00     0.007 A 
ENDBRANCH  10  11
ENDBRANCH   5  10
ENDBRANCH   4   5
BRANCH   2  17
HETATM   17  C           1     -20.615  -7.431  -4.404  0.00  0.00     0.189 C 
BRANCH  17  18
HETATM   18  C           1     -21.334  -7.746  -3.099  0.00  0.00     0.014 C 
HETATM   19  C           1     -20.335  -8.304  -2.093  0.00  0.00     0.012 C 
BRANCH  18  20
HETATM   20  C           1     -21.959  -6.474  -2.542  0.00  0.00     0.002 C 
HETATM   21  C           1     -22.334  -6.689  -1.082  0.00  0.00     0.005 C 
ENDBRANCH  18  20
ENDBRANCH  17  18
BRANCH  17  22
HETATM   22  C           1     -20.015  -8.696  -4.966  0.00  0.00     0.197 C 
HETATM   23  O           1     -20.745  -9.530  -5.544  0.00  0.00    -0.646 OA
HETATM   24  O           1     -18.789  -8.911  -4.853  0.00  0.00    -0.646 OA
ENDBRANCH  17  22
ENDBRANCH   2  17
TORSDOF 8
ENDMDL
MODEL 3
REMARK VINA RESULT:      -7.0      2.778      7.295
REMARK  8 active torsions:
REMARK  status: ('A' for Active; 'I' for Inactive)
REMARK    1  A    between atoms: C_3  and  C_21 
REMARK    2  A    between atoms: N_4  and  C_22 
REMARK    3  A    between atoms: N_6  and  C_23 
REMARK       I    between atoms: N_6  and  C_19 
REMARK    4  A    between atoms: C_12  and  C_16 
REMARK    5  A    between atoms: C_16  and  C_22 
REMARK    6  A    between atoms: C_19  and  C_22 
REMARK    7  A    between atoms: C_21  and  C_23 
REMARK    8  A    between atoms: C_23  and  C_24 
ROOT
HETATM    1  O           1     -22.948  -6.038  -5.298  0.00  0.00    -0.271 OA
HETATM    2  N           1     -21.006  -6.695  -4.412  0.00  0.00    -0.344 N 
HETATM    3  H           1     -19.996  -6.620  -4.407  0.00  0.00     0.163 HD
HETATM    4  C           1     -21.743  -5.948  -5.292  0.00  0.00     0.249 C 
ENDROOT
BRANCH   4   5
HETATM    5  C           1     -21.051  -5.012  -6.252  0.00  0.00     0.278 C 
BRANCH   5   6
HETATM    6  N           1     -19.787  -4.502  -5.629  0.00  0.00    -0.066 N 
HETATM    7  H           1     -19.328  -5.272  -5.091  0.00  0.00     0.275 HD
HETATM    8  H           1     -19.138  -4.168  -6.378  0.00  0.00     0.275 HD
HETATM    9  H           1     -20.010  -3.711  -4.984  0.00  0.00     0.275 HD
ENDBRANCH   5   6
BRANCH   5  10
HETATM   10  C           1     -20.719  -5.757  -7.538  0.00  0.00     0.081 C 
BRANCH  10  11
HETATM   11  C           1     -21.118  -4.924  -8.716  0.00  0.00    -0.056 A 
HETATM   12  C           1     -22.425  -4.450  -8.823  0.00  0.00     0.007 A 
HETATM   13  C           1     -22.798  -3.674  -9.921  0.00  0.00     0.001 A 
HETATM   14  C           1     -21.863  -3.373 -10.912  0.00  0.00     0.000 A 
HETATM   15  C           1     -20.556  -3.849 -10.805  0.00  0.00     0.001 A 
HETATM   16  C           1     -20.183  -4.625  -9.707  0.00  0.00     0.007 A 
ENDBRANCH  10  11
ENDBRANCH   5  10
ENDBRANCH   4   5
BRANCH   2  17
HETATM   17  C           1     -21.671  -7.594  -3.490  0.00  0.00     0.189 C 
BRANCH  17  18
HETATM   18  C           1     -20.916  -8.917  -3.435  0.00  0.00     0.014 C 
HETATM   19  C           1     -21.725  -9.991  -4.151  0.00  0.00     0.012 C 
BRANCH  18  20
HETATM   20  C           1     -19.564  -8.759  -4.119  0.00  0.00     0.002 C 
HETATM   21  C           1     -18.473  -9.329  -3.224  0.00  0.00     0.005 C 
ENDBRANCH  18  20
ENDBRANCH  17  18
BRANCH  17  22
HETATM   22  C           1     -21.695  -6.974  -2.115  0.00  0.00     0.197 C 
HETATM   23  O           1     -22.222  -5.853  -1.944  0.00  0.00    -0.646 OA
HETATM   24  O           1     -21.189  -7.579  -1.146  0.00  0.00    -0.646 OA
ENDBRANCH  17  22
ENDBRANCH   2  17
TORSDOF 8
ENDMDL
MODEL 4
REMARK VINA RESULT:      -6.6      3.461      7.738
REMARK  8 active torsions:
REMARK  status: ('A' for Active; 'I' for Inactive)
REMARK    1  A    between atoms: C_3  and  C_21 
REMARK    2  A    between atoms: N_4  and  C_22 
REMARK    3  A    between atoms: N_6  and  C_23 
REMARK       I    between atoms: N_6  and  C_19 
REMARK    4  A    between atoms: C_12  and  C_16 
REMARK    5  A    between atoms: C_16  and  C_22 
REMARK    6  A    between atoms: C_19  and  C_22 
REMARK    7  A    between atoms: C_21  and  C_23 
REMARK    8  A    between atoms: C_23  and  C_24 
ROOT
HETATM    1  O           1     -19.491  -7.365  -6.367  0.00  0.00    -0.271 OA
HETATM    2  N           1     -20.484  -8.268  -4.583  0.00  0.00    -0.344 N 
HETATM    3  H           1     -21.237  -8.226  -3.907  0.00  0.00     0.163 HD
HETATM    4  C           1     -20.389  -7.315  -5.561  0.00  0.00     0.249 C 
ENDROOT
BRANCH   4   5
HETATM    5  C           1     -21.405  -6.201  -5.631  0.00  0.00     0.278 C 
BRANCH   5   6
HETATM    6  N           1     -22.067  -6.044  -4.296  0.00  0.00    -0.066 N 
HETATM    7  H           1     -23.104  -6.105  -4.411  0.00  0.00     0.275 HD
HETATM    8  H           1     -21.744  -6.803  -3.654  0.00  0.00     0.275 HD
HETATM    9  H           1     -21.816  -5.114  -3.890  0.00  0.00     0.275 HD
ENDBRANCH   5   6
BRANCH   5  10
HETATM   10  C           1     -20.709  -4.900  -6.009  0.00  0.00     0.081 C 
BRANCH  10  11
HETATM   11  C           1     -21.065  -4.533  -7.416  0.00  0.00    -0.056 A 
HETATM   12  C           1     -20.093  -4.576  -8.415  0.00  0.00     0.007 A 
HETATM   13  C           1     -20.424  -4.233  -9.726  0.00  0.00     0.001 A 
HETATM   14  C           1     -21.728  -3.847 -10.037  0.00  0.00     0.000 A 
HETATM   15  C           1     -22.699  -3.803  -9.037  0.00  0.00     0.001 A 
HETATM   16  C           1     -22.368  -4.146  -7.726  0.00  0.00     0.007 A 
ENDBRANCH  10  11
ENDBRANCH   5  10
ENDBRANCH   4   5
BRANCH   2  17
HETATM   17  C           1     -19.508  -9.338  -4.515  0.00  0.00     0.189 C 
BRANCH  17  18
HETATM   18  C           1     -19.135  -9.595  -3.060  0.00  0.00     0.014 C 
HETATM   19  C           1     -17.637  -9.391  -2.878  0.00  0.00     0.012 C 
BRANCH  18  20
HETATM   20  C           1     -19.893  -8.626  -2.162  0.00  0.00     0.002 C 
HETATM   21  C           1     -20.659  -9.407  -1.104  0.00  0.00     0.005 C 
ENDBRANCH  18  20
ENDBRANCH  17  18
BRANCH  17  22
HETATM   22  C           1     -20.096 -10.593  -5.112  0.00  0.00     0.197 C 
HETATM   23  O           1     -19.990 -10.810  -6.338  0.00  0.00    -0.646 OA
HETATM   24  O           1     -20.690 -11.414  -4.381  0.00  0.00    -0.646 OA
ENDBRANCH  17  22
ENDBRANCH   2  17
TORSDOF 8
ENDMDL
MODEL 5
REMARK VINA RESULT:      -6.6      3.647      8.229
REMARK  8 active torsions:
REMARK  status: ('A' for Active; 'I' for Inactive)
REMARK    1  A    between atoms: C_3  and  C_21 
REMARK    2  A    between atoms: N_4  and  C_22 
REMARK    3  A    between atoms: N_6  and  C_23 
REMARK       I    between atoms: N_6  and  C_19 
REMARK    4  A    between atoms: C_12  and  C_16 
REMARK    5  A    between atoms: C_16  and  C_22 
REMARK    6  A    between atoms: C_19  and  C_22 
REMARK    7  A    between atoms: C_21  and  C_23 
REMARK    8  A    between atoms: C_23  and  C_24 
ROOT
HETATM    1  O           1     -19.792  -7.830  -4.862  0.00  0.00    -0.271 OA
HETATM    2  N           1     -21.392  -7.597  -3.321  0.00  0.00    -0.344 N 
HETATM    3  H           1     -22.289  -7.201  -3.069  0.00  0.00     0.163 HD
HETATM    4  C           1     -20.863  -7.357  -4.561  0.00  0.00     0.249 C 
ENDROOT
BRANCH   4   5
HETATM    5  C           1     -21.616  -6.503  -5.551  0.00  0.00     0.278 C 
BRANCH   5   6
HETATM    6  N           1     -22.975  -6.185  -5.004  0.00  0.00    -0.066 N 
HETATM    7  H           1     -23.620  -6.988  -5.185  0.00  0.00     0.275 HD
HETATM    8  H           1     -22.908  -6.019  -3.974  0.00  0.00     0.275 HD
HETATM    9  H           1     -23.347  -5.328  -5.471  0.00  0.00     0.275 HD
ENDBRANCH   5   6
BRANCH   5  10
HETATM   10  C           1     -20.851  -5.208  -5.792  0.00  0.00     0.081 C 
BRANCH  10  11
HETATM   11  C           1     -21.005  -4.795  -7.222  0.00  0.00    -0.056 A 
HETATM   12  C           1     -19.988  -5.062  -8.138  0.00  0.00     0.007 A 
HETATM   13  C           1     -20.131  -4.677  -9.471  0.00  0.00     0.001 A 
HETATM   14  C           1     -21.292  -4.024  -9.888  0.00  0.00     0.000 A 
HETATM   15  C           1     -22.308  -3.756  -8.971  0.00  0.00     0.001 A 
HETATM   16  C           1     -22.165  -4.142  -7.637  0.00  0.00     0.007 A 
ENDBRANCH  10  11
ENDBRANCH   5  10
ENDBRANCH   4   5
BRANCH   2  17
HETATM   17  C           1     -20.668  -8.418  -2.370  0.00  0.00     0.189 C 
BRANCH  17  18
HETATM   18  C           1     -20.968  -7.940  -0.954  0.00  0.00     0.014 C 
HETATM   19  C           1     -22.244  -7.108  -0.961  0.00  0.00     0.012 C 
BRANCH  18  20
HETATM   20  C           1     -21.151  -9.144  -0.039  0.00  0.00     0.002 C 
HETATM   21  C           1     -21.108  -8.689   1.413  0.00  0.00     0.005 C 
ENDBRANCH  18  20
ENDBRANCH  17  18
BRANCH  17  22
HETATM   22  C           1     -21.101  -9.856  -2.517  0.00  0.00     0.197 C 
HETATM   23  O           1     -20.255 -10.773  -2.446  0.00  0.00    -0.646 OA
HETATM   24  O           1     -22.305 -10.130  -2.710  0.00  0.00    -0.646 OA
ENDBRANCH  17  22
ENDBRANCH   2  17
TORSDOF 8
ENDMDL
MODEL 6
REMARK VINA RESULT:      -6.3      3.951      7.621
REMARK  8 active torsions:
REMARK  status: ('A' for Active; 'I' for Inactive)
REMARK    1  A    between atoms: C_3  and  C_21 
REMARK    2  A    between atoms: N_4  and  C_22 
REMARK    3  A    between atoms: N_6  and  C_23 
REMARK       I    between atoms: N_6  and  C_19 
REMARK    4  A    between atoms: C_12  and  C_16 
REMARK    5  A    between atoms: C_16  and  C_22 
REMARK    6  A    between atoms: C_19  and  C_22 
REMARK    7  A    between atoms: C_21  and  C_23 
REMARK    8  A    between atoms: C_23  and  C_24 
ROOT
HETATM    1  O           1     -21.446  -8.259  -6.044  0.00  0.00    -0.271 OA
HETATM    2  N           1     -20.415  -8.404  -4.068  0.00  0.00    -0.344 N 
HETATM    3  H           1     -20.123  -7.941  -3.217  0.00  0.00     0.163 HD
HETATM    4  C           1     -21.098  -7.706  -5.028  0.00  0.00     0.249 C 
ENDROOT
BRANCH   4   5
HETATM    5  C           1     -21.416  -6.246  -4.817  0.00  0.00     0.278 C 
BRANCH   5   6
HETATM    6  N           1     -21.518  -5.965  -3.348  0.00  0.00    -0.066 N 
HETATM    7  H           1     -22.423  -5.482  -3.147  0.00  0.00     0.275 HD
HETATM    8  H           1     -21.478  -6.864  -2.816  0.00  0.00     0.275 HD
HETATM    9  H           1     -20.724  -5.352  -3.054  0.00  0.00     0.275 HD
ENDBRANCH   5   6
BRANCH   5  10
HETATM   10  C           1     -20.309  -5.392  -5.421  0.00  0.00     0.081 C 
BRANCH  10  11
HETATM   11  C           1     -20.724  -4.925  -6.781  0.00  0.00    -0.056 A 
HETATM   12  C           1     -22.067  -4.656  -7.045  0.00  0.00     0.007 A 
HETATM   13  C           1     -22.456  -4.222  -8.313  0.00  0.00     0.001 A 
HETATM   14  C           1     -21.500  -4.056  -9.316  0.00  0.00     0.000 A 
HETATM   15  C           1     -20.158  -4.327  -9.052  0.00  0.00     0.001 A 
HETATM   16  C           1     -19.769  -4.761  -7.784  0.00  0.00     0.007 A 
ENDBRANCH  10  11
ENDBRANCH   5  10
ENDBRANCH   4   5
BRANCH   2  17
HETATM   17  C           1     -20.110  -9.807  -4.272  0.00  0.00     0.189 C 
BRANCH  17  18
HETATM   18  C           1     -18.603 -10.016  -4.191  0.00  0.00     0.014 C 
HETATM   19  C           1     -17.955  -9.534  -5.483  0.00  0.00     0.012 C 
BRANCH  18  20
HETATM   20  C           1     -18.041  -9.226  -3.016  0.00  0.00     0.002 C 
HETATM   21  C           1     -16.558  -9.531  -2.862  0.00  0.00     0.005 C 
ENDBRANCH  18  20
ENDBRANCH  17  18
BRANCH  17  22
HETATM   22  C           1     -20.788 -10.628  -3.203  0.00  0.00     0.197 C 
HETATM   23  O           1     -20.552 -11.852  -3.112  0.00  0.00    -0.646 OA
HETATM   24  O           1     -21.587 -10.085  -2.410  0.00  0.00    -0.646 OA
ENDBRANCH  17  22
ENDBRANCH   2  17
TORSDOF 8
ENDMDL
MODEL 7
REMARK VINA RESULT:      -6.3     18.379     20.424
REMARK  8 active torsions:
REMARK  status: ('A' for Active; 'I' for Inactive)
REMARK    1  A    between atoms: C_3  and  C_21 
REMARK    2  A    between atoms: N_4  and  C_22 
REMARK    3  A    between atoms: N_6  and  C_23 
REMARK       I    between atoms: N_6  and  C_19 
REMARK    4  A    between atoms: C_12  and  C_16 
REMARK    5  A    between atoms: C_16  and  C_22 
REMARK    6  A    between atoms: C_19  and  C_22 
REMARK    7  A    between atoms: C_21  and  C_23 
REMARK    8  A    between atoms: C_23  and  C_24 
ROOT
HETATM    1  O           1     -12.372   7.497 -21.741  0.00  0.00    -0.271 OA
HETATM    2  N           1     -12.654   6.128 -19.999  0.00  0.00    -0.344 N 
HETATM    3  H           1     -12.518   5.960 -19.010  0.00  0.00     0.163 HD
HETATM    4  C           1     -12.210   7.296 -20.561  0.00  0.00     0.249 C 
ENDROOT
BRANCH   4   5
HETATM    5  C           1     -11.520   8.331 -19.706  0.00  0.00     0.278 C 
BRANCH   5   6
HETATM    6  N           1     -10.042   8.081 -19.716  0.00  0.00    -0.066 N 
HETATM    7  H           1      -9.862   7.055 -19.804  0.00  0.00     0.275 HD
HETATM    8  H           1      -9.609   8.580 -20.526  0.00  0.00     0.275 HD
HETATM    9  H           1      -9.624   8.433 -18.826  0.00  0.00     0.275 HD
ENDBRANCH   5   6
BRANCH   5  10
HETATM   10  C           1     -11.804   9.720 -20.262  0.00  0.00     0.081 C 
BRANCH  10  11
HETATM   11  C           1     -13.004  10.297 -19.577  0.00  0.00    -0.056 A 
HETATM   12  C           1     -13.384   9.823 -18.321  0.00  0.00     0.007 A 
HETATM   13  C           1     -14.502  10.359 -17.682  0.00  0.00     0.001 A 
HETATM   14  C           1     -15.240  11.369 -18.300  0.00  0.00     0.000 A 
HETATM   15  C           1     -14.861  11.841 -19.556  0.00  0.00     0.001 A 
HETATM   16  C           1     -13.742  11.305 -20.195  0.00  0.00     0.007 A 
ENDBRANCH  10  11
ENDBRANCH   5  10
ENDBRANCH   4   5
BRANCH   2  17
HETATM   17  C           1     -13.317   5.134 -20.820  0.00  0.00     0.189 C 
BRANCH  17  18
HETATM   18  C           1     -12.871   3.741 -20.391  0.00  0.00     0.014 C 
HETATM   19  C           1     -13.320   2.724 -21.432  0.00  0.00     0.012 C 
BRANCH  18  20
HETATM   20  C           1     -11.353   3.708 -20.271  0.00  0.00     0.002 C 
HETATM   21  C           1     -10.834   2.363 -20.762  0.00  0.00     0.005 C 
ENDBRANCH  18  20
ENDBRANCH  17  18
BRANCH  17  22
HETATM   22  C           1     -14.811   5.258 -20.649  0.00  0.00     0.197 C 
HETATM   23  O           1     -15.310   5.272 -19.503  0.00  0.00    -0.646 OA
HETATM   24  O           1     -15.549   5.345 -21.653  0.00  0.00    -0.646 OA
ENDBRANCH  17  22
ENDBRANCH   2  17
TORSDOF 8
ENDMDL
MODEL 8
REMARK VINA RESULT:      -6.3      5.734      7.841
REMARK  8 active torsions:
REMARK  status: ('A' for Active; 'I' for Inactive)
REMARK    1  A    between atoms: C_3  and  C_21 
REMARK    2  A    between atoms: N_4  and  C_22 
REMARK    3  A    between atoms: N_6  and  C_23 
REMARK       I    between atoms: N_6  and  C_19 
REMARK    4  A    between atoms: C_12  and  C_16 
REMARK    5  A    between atoms: C_16  and  C_22 
REMARK    6  A    between atoms: C_19  and  C_22 
REMARK    7  A    between atoms: C_21  and  C_23 
REMARK    8  A    between atoms: C_23  and  C_24 
ROOT
HETATM    1  O           1     -22.616 -11.247  -4.377  0.00  0.00    -0.271 OA
HETATM    2  N           1     -21.328  -9.907  -3.139  0.00  0.00    -0.344 N 
HETATM    3  H           1     -20.991  -9.651  -2.220  0.00  0.00     0.163 HD
HETATM    4  C           1     -22.213 -10.942  -3.279  0.00  0.00     0.249 C 
ENDROOT
BRANCH   4   5
HETATM    5  C           1     -22.686 -11.701  -2.064  0.00  0.00     0.278 C 
BRANCH   5   6
HETATM    6  N           1     -22.839 -13.152  -2.409  0.00  0.00    -0.066 N 
HETATM    7  H           1     -22.905 -13.714  -1.531  0.00  0.00     0.275 HD
HETATM    8  H           1     -23.707 -13.287  -2.975  0.00  0.00     0.275 HD
HETATM    9  H           1     -22.011 -13.467  -2.963  0.00  0.00     0.275 HD
ENDBRANCH   5   6
BRANCH   5  10
HETATM   10  C           1     -21.666 -11.551  -0.942  0.00  0.00     0.081 C 
BRANCH  10  11
HETATM   11  C           1     -21.933 -10.284  -0.192  0.00  0.00    -0.056 A 
HETATM   12  C           1     -23.205  -9.712  -0.219  0.00  0.00     0.007 A 
HETATM   13  C           1     -23.453  -8.530   0.480  0.00  0.00     0.001 A 
HETATM   14  C           1     -22.429  -7.921   1.205  0.00  0.00     0.000 A 
HETATM   15  C           1     -21.157  -8.493   1.231  0.00  0.00     0.001 A 
HETATM   16  C           1     -20.909  -9.674   0.533  0.00  0.00     0.007 A 
ENDBRANCH  10  11
ENDBRANCH   5  10
ENDBRANCH   4   5
BRANCH   2  17
HETATM   17  C           1     -20.874  -9.177  -4.307  0.00  0.00     0.189 C 
BRANCH  17  18
HETATM   18  C           1     -20.894  -7.683  -4.013  0.00  0.00     0.014 C 
HETATM   19  C           1     -22.067  -7.039  -4.742  0.00  0.00     0.012 C 
BRANCH  18  20
HETATM   20  C           1     -21.046  -7.461  -2.514  0.00  0.00     0.002 C 
HETATM   21  C           1     -21.982  -6.287  -2.266  0.00  0.00     0.005 C 
ENDBRANCH  18  20
ENDBRANCH  17  18
BRANCH  17  22
HETATM   22  C           1     -19.467  -9.603  -4.649  0.00  0.00     0.197 C 
HETATM   23  O           1     -18.917  -9.168  -5.683  0.00  0.00    -0.646 OA
HETATM   24  O           1     -18.853 -10.391  -3.899  0.00  0.00    -0.646 OA
ENDBRANCH  17  22
ENDBRANCH   2  17
TORSDOF 8
ENDMDL
MODEL 9
REMARK VINA RESULT:      -6.2      4.215      8.675
REMARK  8 active torsions:
REMARK  status: ('A' for Active; 'I' for Inactive)
REMARK    1  A    between atoms: C_3  and  C_21 
REMARK    2  A    between atoms: N_4  and  C_22 
REMARK    3  A    between atoms: N_6  and  C_23 
REMARK       I    between atoms: N_6  and  C_19 
REMARK    4  A    between atoms: C_12  and  C_16 
REMARK    5  A    between atoms: C_16  and  C_22 
REMARK    6  A    between atoms: C_19  and  C_22 
REMARK    7  A    between atoms: C_21  and  C_23 
REMARK    8  A    between atoms: C_23  and  C_24 
ROOT
HETATM    1  O           1     -21.357  -6.886  -2.455  0.00  0.00    -0.271 OA
HETATM    2  N           1     -21.149  -9.071  -2.871  0.00  0.00    -0.344 N 
HETATM    3  H           1     -20.984  -9.802  -3.550  0.00  0.00     0.163 HD
HETATM    4  C           1     -21.160  -7.759  -3.266  0.00  0.00     0.249 C 
ENDROOT
BRANCH   4   5
HETATM    5  C           1     -20.925  -7.405  -4.714  0.00  0.00     0.278 C 
BRANCH   5   6
HETATM    6  N           1     -21.158  -8.615  -5.568  0.00  0.00    -0.066 N 
HETATM    7  H           1     -21.209  -8.329  -6.571  0.00  0.00     0.275 HD
HETATM    8  H           1     -20.370  -9.291  -5.439  0.00  0.00     0.275 HD
HETATM    9  H           1     -22.056  -9.071  -5.289  0.00  0.00     0.275 HD
ENDBRANCH   5   6
BRANCH   5  10
HETATM   10  C           1     -21.886  -6.299  -5.130  0.00  0.00     0.081 C 
BRANCH  10  11
HETATM   11  C           1     -21.251  -5.460  -6.195  0.00  0.00    -0.056 A 
HETATM   12  C           1     -22.050  -4.742  -7.084  0.00  0.00     0.007 A 
HETATM   13  C           1     -21.459  -3.961  -8.078  0.00  0.00     0.001 A 
HETATM   14  C           1     -20.069  -3.899  -8.181  0.00  0.00     0.000 A 
HETATM   15  C           1     -19.271  -4.618  -7.292  0.00  0.00     0.001 A 
HETATM   16  C           1     -19.862  -5.399  -6.298  0.00  0.00     0.007 A 
ENDBRANCH  10  11
ENDBRANCH   5  10
ENDBRANCH   4   5
BRANCH   2  17
HETATM   17  C           1     -21.375  -9.410  -1.479  0.00  0.00     0.189 C 
BRANCH  17  18
HETATM   18  C           1     -22.793  -9.940  -1.309  0.00  0.00     0.014 C 
HETATM   19  C           1     -22.800 -11.448  -1.527  0.00  0.00     0.012 C 
BRANCH  18  20
HETATM   20  C           1     -23.288  -9.628   0.097  0.00  0.00     0.002 C 
HETATM   21  C           1     -23.019  -8.164   0.417  0.00  0.00     0.005 C 
ENDBRANCH  18  20
ENDBRANCH  17  18
BRANCH  17  22
HETATM   22  C           1     -20.389 -10.470  -1.055  0.00  0.00     0.197 C 
HETATM   23  O           1     -20.226 -10.722   0.158  0.00  0.00    -0.646 OA
HETATM   24  O           1     -19.734 -11.095  -1.916  0.00  0.00    -0.646 OA
ENDBRANCH  17  22
ENDBRANCH   2  17
TORSDOF 8
ENDMDL
