MODEL 1
REMARK VINA RESULT:      -6.7      0.000      0.000
REMARK  7 active torsions:
REMARK  status: ('A' for Active; 'I' for Inactive)
REMARK    1  A    between atoms: N_4  and  C_14 
REMARK    2  A    between atoms: N_5  and  C_12 
REMARK       I    between atoms: N_5  and  C_6 
REMARK    3  A    between atoms: C_6  and  C_14 
REMARK    4  A    between atoms: C_9  and  C_12 
REMARK    5  A    between atoms: C_9  and  C_16 
REMARK    6  A    between atoms: C_12  and  C_23 
REMARK    7  A    between atoms: C_14  and  C_17 
ROOT
HETATM    1  N           1     -35.929  -1.449 -10.109  0.00  0.00    -0.344 N 
HETATM    2  C           1     -34.749  -2.084 -10.386  0.00  0.00     0.249 C 
HETATM    3  O           1     -33.742  -1.772  -9.796  0.00  0.00    -0.271 OA
HETATM    4  H           1     -36.542  -1.811  -9.390  0.00  0.00     0.163 HD
ENDROOT
BRANCH   1   5
HETATM    5  C           1     -36.301  -0.257 -10.846  0.00  0.00     0.191 C 
BRANCH   5   6
HETATM    6  C           1     -37.310  -0.622 -11.927  0.00  0.00     0.094 C 
BRANCH   6   7
HETATM    7  C           1     -36.881  -0.028 -13.233  0.00  0.00     0.028 A 
HETATM    8  N           1     -35.631   0.473 -13.488  0.00  0.00    -0.354 N 
HETATM    9  C           1     -35.673   0.891 -14.732  0.00  0.00     0.180 A 
ATOM     10  HN          1     -34.838   0.513 -12.847  1.00  0.00     0.166 HD
HETATM   11  N           1     -36.902   0.679 -15.290  0.00  0.00    -0.360 N 
HETATM   12  H           1     -37.190   0.923 -16.270  0.00  0.00     0.166 HD
HETATM   13  C           1     -37.688   0.089 -14.339  0.00  0.00     0.114 A 
ENDBRANCH   6   7
ENDBRANCH   5   6
BRANCH   5  14
HETATM   14  C           1     -36.915   0.747  -9.902  0.00  0.00     0.197 C 
HETATM   15  O           1     -38.075   1.168 -10.103  0.00  0.00    -0.646 OA
HETATM   16  O           1     -36.263   1.158  -8.918  0.00  0.00    -0.646 OA
ENDBRANCH   5  14
ENDBRANCH   1   5
BRANCH   2  17
HETATM   17  C           1     -34.705  -3.173 -11.429  0.00  0.00     0.278 C 
BRANCH  17  18
HETATM   18  N           1     -34.314  -2.583 -12.752  0.00  0.00    -0.066 N 
HETATM   19  H           1     -35.029  -1.880 -13.045  0.00  0.00     0.275 HD
HETATM   20  H           1     -33.383  -2.117 -12.663  0.00  0.00     0.275 HD
HETATM   21  H           1     -34.258  -3.342 -13.468  0.00  0.00     0.275 HD
ENDBRANCH  17  18
BRANCH  17  22
HETATM   22  C           1     -33.684  -4.227 -11.022  0.00  0.00     0.017 C 
HETATM   23  C           1     -32.606  -4.330 -12.093  0.00  0.00     0.012 C 
HETATM   24  C           1     -34.378  -5.575 -10.870  0.00  0.00     0.012 C 
ENDBRANCH  17  22
ENDBRANCH   2  17
TORSDOF 7
ENDMDL
MODEL 2
REMARK VINA RESULT:      -6.2      2.053      5.498
REMARK  7 active torsions:
REMARK  status: ('A' for Active; 'I' for Inactive)
REMARK    1  A    between atoms: N_4  and  C_14 
REMARK    2  A    between atoms: N_5  and  C_12 
REMARK       I    between atoms: N_5  and  C_6 
REMARK    3  A    between atoms: C_6  and  C_14 
REMARK    4  A    between atoms: C_9  and  C_12 
REMARK    5  A    between atoms: C_9  and  C_16 
REMARK    6  A    between atoms: C_12  and  C_23 
REMARK    7  A    between atoms: C_14  and  C_17 
ROOT
HETATM    1  N           1     -34.643  -1.461 -12.436  0.00  0.00    -0.344 N 
HETATM    2  C           1     -35.285  -0.363 -12.943  0.00  0.00     0.249 C 
HETATM    3  O           1     -35.118   0.721 -12.436  0.00  0.00    -0.271 OA
HETATM    4  H           1     -33.730  -1.720 -12.786  0.00  0.00     0.163 HD
ENDROOT
BRANCH   1   5
HETATM    5  C           1     -35.273  -2.253 -11.397  0.00  0.00     0.191 C 
BRANCH   5   6
HETATM    6  C           1     -34.210  -2.765 -10.435  0.00  0.00     0.094 C 
BRANCH   6   7
HETATM    7  C           1     -33.902  -4.197 -10.745  0.00  0.00     0.028 A 
HETATM    8  N           1     -34.594  -5.269 -10.245  0.00  0.00    -0.354 N 
HETATM    9  C           1     -34.009  -6.328 -10.757  0.00  0.00     0.180 A 
ATOM     10  HN          1     -35.393  -5.249  -9.610  1.00  0.00     0.166 HD
HETATM   11  N           1     -32.967  -5.981 -11.568  0.00  0.00    -0.360 N 
HETATM   12  H           1     -32.342  -6.641 -12.094  0.00  0.00     0.166 HD
HETATM   13  C           1     -32.885  -4.616 -11.570  0.00  0.00     0.114 A 
ENDBRANCH   6   7
ENDBRANCH   5   6
BRANCH   5  14
HETATM   14  C           1     -36.265  -1.400 -10.646  0.00  0.00     0.197 C 
HETATM   15  O           1     -35.893  -0.732  -9.657  0.00  0.00    -0.646 OA
HETATM   16  O           1     -37.459  -1.361 -11.013  0.00  0.00    -0.646 OA
ENDBRANCH   5  14
ENDBRANCH   1   5
BRANCH   2  17
HETATM   17  C           1     -36.201  -0.507 -14.133  0.00  0.00     0.278 C 
BRANCH  17  18
HETATM   18  N           1     -37.456   0.280 -13.896  0.00  0.00    -0.066 N 
HETATM   19  H           1     -38.234  -0.126 -14.464  0.00  0.00     0.275 HD
HETATM   20  H           1     -37.706   0.238 -12.883  0.00  0.00     0.275 HD
HETATM   21  H           1     -37.301   1.274 -14.178  0.00  0.00     0.275 HD
ENDBRANCH  17  18
BRANCH  17  22
HETATM   22  C           1     -35.501   0.017 -15.380  0.00  0.00     0.017 C 
HETATM   23  C           1     -36.026   1.408 -15.709  0.00  0.00     0.012 C 
HETATM   24  C           1     -35.778  -0.919 -16.549  0.00  0.00     0.012 C 
ENDBRANCH  17  22
ENDBRANCH   2  17
TORSDOF 7
ENDMDL
MODEL 3
REMARK VINA RESULT:      -6.2      1.712      2.521
REMARK  7 active torsions:
REMARK  status: ('A' for Active; 'I' for Inactive)
REMARK    1  A    between atoms: N_4  and  C_14 
REMARK    2  A    between atoms: N_5  and  C_12 
REMARK       I    between atoms: N_5  and  C_6 
REMARK    3  A    between atoms: C_6  and  C_14 
REMARK    4  A    between atoms: C_9  and  C_12 
REMARK    5  A    between atoms: C_9  and  C_16 
REMARK    6  A    between atoms: C_12  and  C_23 
REMARK    7  A    between atoms: C_14  and  C_17 
ROOT
HETATM    1  N           1     -34.944  -1.386 -13.192  0.00  0.00    -0.344 N 
HETATM    2  C           1     -34.889  -2.417 -12.293  0.00  0.00     0.249 C 
HETATM    3  O           1     -35.906  -2.969 -11.944  0.00  0.00    -0.271 OA
HETATM    4  H           1     -34.880  -1.576 -14.184  0.00  0.00     0.163 HD
ENDROOT
BRANCH   1   5
HETATM    5  C           1     -35.092  -0.022 -12.723  0.00  0.00     0.191 C 
BRANCH   5   6
HETATM    6  C           1     -35.215   0.915 -13.916  0.00  0.00     0.094 C 
BRANCH   6   7
HETATM    7  C           1     -36.104   0.296 -14.949  0.00  0.00     0.028 A 
HETATM    8  N           1     -37.465   0.456 -15.003  0.00  0.00    -0.354 N 
HETATM    9  C           1     -37.855  -0.243 -16.044  0.00  0.00     0.180 A 
ATOM     10  HN          1     -38.050   1.002 -14.369  1.00  0.00     0.166 HD
HETATM   11  N           1     -36.799  -0.849 -16.664  0.00  0.00    -0.360 N 
HETATM   12  H           1     -36.846  -1.461 -17.516  0.00  0.00     0.166 HD
HETATM   13  C           1     -35.669  -0.512 -15.972  0.00  0.00     0.114 A 
ENDBRANCH   6   7
ENDBRANCH   5   6
BRANCH   5  14
HETATM   14  C           1     -36.331   0.084 -11.869  0.00  0.00     0.197 C 
HETATM   15  O           1     -36.260   0.570 -10.719  0.00  0.00    -0.646 OA
HETATM   16  O           1     -37.430  -0.316 -12.311  0.00  0.00    -0.646 OA
ENDBRANCH   5  14
ENDBRANCH   1   5
BRANCH   2  17
HETATM   17  C           1     -33.560  -2.863 -11.736  0.00  0.00     0.278 C 
BRANCH  17  18
HETATM   18  N           1     -33.465  -2.468 -10.293  0.00  0.00    -0.066 N 
HETATM   19  H           1     -32.804  -3.110  -9.798  0.00  0.00     0.275 HD
HETATM   20  H           1     -33.114  -1.487 -10.223  0.00  0.00     0.275 HD
HETATM   21  H           1     -34.409  -2.535  -9.851  0.00  0.00     0.275 HD
ENDBRANCH  17  18
BRANCH  17  22
HETATM   22  C           1     -33.440  -4.376 -11.857  0.00  0.00     0.017 C 
HETATM   23  C           1     -33.875  -5.026 -10.550  0.00  0.00     0.012 C 
HETATM   24  C           1     -31.993  -4.750 -12.152  0.00  0.00     0.012 C 
ENDBRANCH  17  22
ENDBRANCH   2  17
TORSDOF 7
ENDMDL
MODEL 4
REMARK VINA RESULT:      -5.7      2.125      5.029
REMARK  7 active torsions:
REMARK  status: ('A' for Active; 'I' for Inactive)
REMARK    1  A    between atoms: N_4  and  C_14 
REMARK    2  A    between atoms: N_5  and  C_12 
REMARK       I    between atoms: N_5  and  C_6 
REMARK    3  A    between atoms: C_6  and  C_14 
REMARK    4  A    between atoms: C_9  and  C_12 
REMARK    5  A    between atoms: C_9  and  C_16 
REMARK    6  A    between atoms: C_12  and  C_23 
REMARK    7  A    between atoms: C_14  and  C_17 
ROOT
HETATM    1  N           1     -34.634  -1.047 -11.899  0.00  0.00    -0.344 N 
HETATM    2  C           1     -35.225  -0.082 -12.670  0.00  0.00     0.249 C 
HETATM    3  O           1     -35.096   1.084 -12.381  0.00  0.00    -0.271 OA
HETATM    4  H           1     -33.696  -1.360 -12.112  0.00  0.00     0.163 HD
ENDROOT
BRANCH   1   5
HETATM    5  C           1     -35.353  -1.621 -10.778  0.00  0.00     0.191 C 
BRANCH   5   6
HETATM    6  C           1     -36.754  -1.030 -10.718  0.00  0.00     0.094 C 
BRANCH   6   7
HETATM    7  C           1     -36.829  -0.032  -9.605  0.00  0.00     0.028 A 
HETATM    8  N           1     -36.073  -0.081  -8.462  0.00  0.00    -0.354 N 
HETATM    9  C           1     -36.442   0.964  -7.758  0.00  0.00     0.180 A 
ATOM     10  HN          1     -35.374  -0.781  -8.212  1.00  0.00     0.166 HD
HETATM   11  N           1     -37.406   1.686  -8.401  0.00  0.00    -0.360 N 
HETATM   12  H           1     -37.865   2.563  -8.049  0.00  0.00     0.166 HD
HETATM   13  C           1     -37.665   1.059  -9.588  0.00  0.00     0.114 A 
ENDBRANCH   6   7
ENDBRANCH   5   6
BRANCH   5  14
HETATM   14  C           1     -35.443  -3.117 -10.952  0.00  0.00     0.197 C 
HETATM   15  O           1     -34.500  -3.744 -11.482  0.00  0.00    -0.646 OA
HETATM   16  O           1     -36.463  -3.730 -10.567  0.00  0.00    -0.646 OA
ENDBRANCH   5  14
ENDBRANCH   1   5
BRANCH   2  17
HETATM   17  C           1     -36.037  -0.474 -13.879  0.00  0.00     0.278 C 
BRANCH  17  18
HETATM   18  N           1     -37.378   0.196 -13.818  0.00  0.00    -0.066 N 
HETATM   19  H           1     -37.448   0.905 -14.583  0.00  0.00     0.275 HD
HETATM   20  H           1     -38.130  -0.519 -13.936  0.00  0.00     0.275 HD
HETATM   21  H           1     -37.488   0.670 -12.894  0.00  0.00     0.275 HD
ENDBRANCH  17  18
BRANCH  17  22
HETATM   22  C           1     -35.310  -0.040 -15.143  0.00  0.00     0.017 C 
HETATM   23  C           1     -35.872   1.292 -15.620  0.00  0.00     0.012 C 
HETATM   24  C           1     -35.506  -1.091 -16.229  0.00  0.00     0.012 C 
ENDBRANCH  17  22
ENDBRANCH   2  17
TORSDOF 7
ENDMDL
MODEL 5
REMARK VINA RESULT:      -5.7      9.897     12.993
REMARK  7 active torsions:
REMARK  status: ('A' for Active; 'I' for Inactive)
REMARK    1  A    between atoms: N_4  and  C_14 
REMARK    2  A    between atoms: N_5  and  C_12 
REMARK       I    between atoms: N_5  and  C_6 
REMARK    3  A    between atoms: C_6  and  C_14 
REMARK    4  A    between atoms: C_9  and  C_12 
REMARK    5  A    between atoms: C_9  and  C_16 
REMARK    6  A    between atoms: C_12  and  C_23 
REMARK    7  A    between atoms: C_14  and  C_17 
ROOT
HETATM    1  N           1     -26.918  -6.234 -16.729  0.00  0.00    -0.344 N 
HETATM    2  C           1     -28.163  -6.727 -16.442  0.00  0.00     0.249 C 
HETATM    3  O           1     -28.417  -7.113 -15.325  0.00  0.00    -0.271 OA
HETATM    4  H           1     -26.728  -5.247 -16.618  0.00  0.00     0.163 HD
ENDROOT
BRANCH   1   5
HETATM    5  C           1     -25.874  -7.127 -17.192  0.00  0.00     0.191 C 
BRANCH   5   6
HETATM    6  C           1     -25.072  -6.443 -18.290  0.00  0.00     0.094 C 
BRANCH   6   7
HETATM    7  C           1     -25.236  -7.197 -19.574  0.00  0.00     0.028 A 
HETATM    8  N           1     -26.440  -7.450 -20.179  0.00  0.00    -0.354 N 
HETATM    9  C           1     -26.145  -8.128 -21.265  0.00  0.00     0.180 A 
ATOM     10  HN          1     -27.367  -7.172 -19.856  1.00  0.00     0.166 HD
HETATM   11  N           1     -24.798  -8.322 -21.383  0.00  0.00    -0.360 N 
HETATM   12  H           1     -24.309  -8.832 -22.160  0.00  0.00     0.166 HD
HETATM   13  C           1     -24.201  -7.730 -20.305  0.00  0.00     0.114 A 
ENDBRANCH   6   7
ENDBRANCH   5   6
BRANCH   5  14
HETATM   14  C           1     -24.962  -7.473 -16.042  0.00  0.00     0.197 C 
HETATM   15  O           1     -24.082  -8.351 -16.182  0.00  0.00    -0.646 OA
HETATM   16  O           1     -25.086  -6.882 -14.947  0.00  0.00    -0.646 OA
ENDBRANCH   5  14
ENDBRANCH   1   5
BRANCH   2  17
HETATM   17  C           1     -29.217  -6.790 -17.519  0.00  0.00     0.278 C 
BRANCH  17  18
HETATM   18  N           1     -29.290  -8.185 -18.066  0.00  0.00    -0.066 N 
HETATM   19  H           1     -28.825  -8.218 -19.001  0.00  0.00     0.275 HD
HETATM   20  H           1     -28.807  -8.841 -17.412  0.00  0.00     0.275 HD
HETATM   21  H           1     -30.292  -8.466 -18.166  0.00  0.00     0.275 HD
ENDBRANCH  17  18
BRANCH  17  22
HETATM   22  C           1     -30.568  -6.403 -16.933  0.00  0.00     0.017 C 
HETATM   23  C           1     -31.668  -7.192 -17.629  0.00  0.00     0.012 C 
HETATM   24  C           1     -30.804  -4.912 -17.140  0.00  0.00     0.012 C 
ENDBRANCH  17  22
ENDBRANCH   2  17
TORSDOF 7
ENDMDL
MODEL 6
REMARK VINA RESULT:      -5.5      1.834      4.420
REMARK  7 active torsions:
REMARK  status: ('A' for Active; 'I' for Inactive)
REMARK    1  A    between atoms: N_4  and  C_14 
REMARK    2  A    between atoms: N_5  and  C_12 
REMARK       I    between atoms: N_5  and  C_6 
REMARK    3  A    between atoms: C_6  and  C_14 
REMARK    4  A    between atoms: C_9  and  C_12 
REMARK    5  A    between atoms: C_9  and  C_16 
REMARK    6  A    between atoms: C_12  and  C_23 
REMARK    7  A    between atoms: C_14  and  C_17 
ROOT
HETATM    1  N           1     -36.235  -2.027 -10.750  0.00  0.00    -0.344 N 
HETATM    2  C           1     -37.042  -0.983 -10.387  0.00  0.00     0.249 C 
HETATM    3  O           1     -38.071  -0.778 -10.988  0.00  0.00    -0.271 OA
HETATM    4  H           1     -36.365  -2.938 -10.328  0.00  0.00     0.163 HD
ENDROOT
BRANCH   1   5
HETATM    5  C           1     -35.191  -1.828 -11.737  0.00  0.00     0.191 C 
BRANCH   5   6
HETATM    6  C           1     -35.119  -0.353 -12.108  0.00  0.00     0.094 C 
BRANCH   6   7
HETATM    7  C           1     -35.556  -0.172 -13.528  0.00  0.00     0.028 A 
HETATM    8  N           1     -34.721   0.159 -14.564  0.00  0.00    -0.354 N 
HETATM    9  C           1     -35.493   0.219 -15.625  0.00  0.00     0.180 A 
ATOM     10  HN          1     -33.715   0.324 -14.520  1.00  0.00     0.166 HD
HETATM   11  N           1     -36.793  -0.061 -15.314  0.00  0.00    -0.360 N 
HETATM   12  H           1     -37.602  -0.079 -15.983  0.00  0.00     0.166 HD
HETATM   13  C           1     -36.849  -0.314 -13.971  0.00  0.00     0.114 A 
ENDBRANCH   6   7
ENDBRANCH   5   6
BRANCH   5  14
HETATM   14  C           1     -33.867  -2.270 -11.165  0.00  0.00     0.197 C 
HETATM   15  O           1     -33.351  -1.637 -10.220  0.00  0.00    -0.646 OA
HETATM   16  O           1     -33.286  -3.272 -11.638  0.00  0.00    -0.646 OA
ENDBRANCH   5  14
ENDBRANCH   1   5
BRANCH   2  17
HETATM   17  C           1     -36.649  -0.088  -9.238  0.00  0.00     0.278 C 
BRANCH  17  18
HETATM   18  N           1     -36.138   1.217  -9.774  0.00  0.00    -0.066 N 
HETATM   19  H           1     -36.752   1.994  -9.440  0.00  0.00     0.275 HD
HETATM   20  H           1     -35.162   1.374  -9.436  0.00  0.00     0.275 HD
HETATM   21  H           1     -36.147   1.191 -10.819  0.00  0.00     0.275 HD
ENDBRANCH  17  18
BRANCH  17  22
HETATM   22  C           1     -37.861   0.167  -8.353  0.00  0.00     0.017 C 
HETATM   23  C           1     -38.038   1.666  -8.153  0.00  0.00     0.012 C 
HETATM   24  C           1     -37.654  -0.504  -7.002  0.00  0.00     0.012 C 
ENDBRANCH  17  22
ENDBRANCH   2  17
TORSDOF 7
ENDMDL
MODEL 7
REMARK VINA RESULT:      -5.4     15.490     18.181
REMARK  7 active torsions:
REMARK  status: ('A' for Active; 'I' for Inactive)
REMARK    1  A    between atoms: N_4  and  C_14 
REMARK    2  A    between atoms: N_5  and  C_12 
REMARK       I    between atoms: N_5  and  C_6 
REMARK    3  A    between atoms: C_6  and  C_14 
REMARK    4  A    between atoms: C_9  and  C_12 
REMARK    5  A    between atoms: C_9  and  C_16 
REMARK    6  A    between atoms: C_12  and  C_23 
REMARK    7  A    between atoms: C_14  and  C_17 
ROOT
HETATM    1  N           1     -20.757  -7.860  -5.857  0.00  0.00    -0.344 N 
HETATM    2  C           1     -20.423  -6.701  -6.503  0.00  0.00     0.249 C 
HETATM    3  O           1     -19.482  -6.681  -7.261  0.00  0.00    -0.271 OA
HETATM    4  H           1     -21.409  -8.506  -6.281  0.00  0.00     0.163 HD
ENDROOT
BRANCH   1   5
HETATM    5  C           1     -20.175  -8.162  -4.563  0.00  0.00     0.191 C 
BRANCH   5   6
HETATM    6  C           1     -21.239  -8.764  -3.656  0.00  0.00     0.094 C 
BRANCH   6   7
HETATM    7  C           1     -21.693  -7.737  -2.666  0.00  0.00     0.028 A 
HETATM    8  N           1     -21.959  -7.992  -1.345  0.00  0.00    -0.354 N 
HETATM    9  C           1     -22.324  -6.838  -0.837  0.00  0.00     0.180 A 
ATOM     10  HN          1     -21.888  -8.888  -0.861  1.00  0.00     0.166 HD
HETATM   11  N           1     -22.304  -5.848  -1.778  0.00  0.00    -0.360 N 
HETATM   12  H           1     -22.553  -4.839  -1.624  0.00  0.00     0.166 HD
HETATM   13  C           1     -21.901  -6.410  -2.957  0.00  0.00     0.114 A 
ENDBRANCH   6   7
ENDBRANCH   5   6
BRANCH   5  14
HETATM   14  C           1     -19.044  -9.146  -4.738  0.00  0.00     0.197 C 
HETATM   15  O           1     -18.414  -9.559  -3.740  0.00  0.00    -0.646 OA
HETATM   16  O           1     -18.738  -9.548  -5.881  0.00  0.00    -0.646 OA
ENDBRANCH   5  14
ENDBRANCH   1   5
BRANCH   2  17
HETATM   17  C           1     -21.230  -5.448  -6.270  0.00  0.00     0.278 C 
BRANCH  17  18
HETATM   18  N           1     -20.393  -4.444  -5.534  0.00  0.00    -0.066 N 
HETATM   19  H           1     -19.928  -3.807  -6.220  0.00  0.00     0.275 HD
HETATM   20  H           1     -21.001  -3.884  -4.895  0.00  0.00     0.275 HD
HETATM   21  H           1     -19.664  -4.943  -4.974  0.00  0.00     0.275 HD
ENDBRANCH  17  18
BRANCH  17  22
HETATM   22  C           1     -21.662  -4.864  -7.608  0.00  0.00     0.017 C 
HETATM   23  C           1     -20.829  -3.626  -7.914  0.00  0.00     0.012 C 
HETATM   24  C           1     -23.135  -4.481  -7.544  0.00  0.00     0.012 C 
ENDBRANCH  17  22
ENDBRANCH   2  17
TORSDOF 7
ENDMDL
MODEL 8
REMARK VINA RESULT:      -5.3     25.573     27.301
REMARK  7 active torsions:
REMARK  status: ('A' for Active; 'I' for Inactive)
REMARK    1  A    between atoms: N_4  and  C_14 
REMARK    2  A    between atoms: N_5  and  C_12 
REMARK       I    between atoms: N_5  and  C_6 
REMARK    3  A    between atoms: C_6  and  C_14 
REMARK    4  A    between atoms: C_9  and  C_12 
REMARK    5  A    between atoms: C_9  and  C_16 
REMARK    6  A    between atoms: C_12  and  C_23 
REMARK    7  A    between atoms: C_14  and  C_17 
ROOT
HETATM    1  N           1     -10.069   6.885 -20.611  0.00  0.00    -0.344 N 
HETATM    2  C           1     -10.199   8.105 -20.003  0.00  0.00     0.249 C 
HETATM    3  O           1     -10.308   8.172 -18.801  0.00  0.00    -0.271 OA
HETATM    4  H           1      -9.150   6.490 -20.760  0.00  0.00     0.163 HD
ENDROOT
BRANCH   1   5
HETATM    5  C           1     -11.249   6.161 -21.042  0.00  0.00     0.191 C 
BRANCH   5   6
HETATM    6  C           1     -10.833   4.825 -21.643  0.00  0.00     0.094 C 
BRANCH   6   7
HETATM    7  C           1     -12.041   3.959 -21.822  0.00  0.00     0.028 A 
HETATM    8  N           1     -12.399   2.938 -20.980  0.00  0.00    -0.354 N 
HETATM    9  C           1     -13.503   2.441 -21.489  0.00  0.00     0.180 A 
ATOM     10  HN          1     -11.912   2.630 -20.138  1.00  0.00     0.166 HD
HETATM   11  N           1     -13.871   3.101 -22.627  0.00  0.00    -0.360 N 
HETATM   12  H           1     -14.713   2.896 -23.219  0.00  0.00     0.166 HD
HETATM   13  C           1     -12.942   4.078 -22.853  0.00  0.00     0.114 A 
ENDBRANCH   6   7
ENDBRANCH   5   6
BRANCH   5  14
HETATM   14  C           1     -12.153   5.922 -19.858  0.00  0.00     0.197 C 
HETATM   15  O           1     -11.776   5.184 -18.922  0.00  0.00    -0.646 OA
HETATM   16  O           1     -13.279   6.462 -19.813  0.00  0.00    -0.646 OA
ENDBRANCH   5  14
ENDBRANCH   1   5
BRANCH   2  17
HETATM   17  C           1     -10.207   9.365 -20.833  0.00  0.00     0.278 C 
BRANCH  17  18
HETATM   18  N           1      -9.108   9.298 -21.852  0.00  0.00    -0.066 N 
HETATM   19  H           1      -8.659  10.238 -21.942  0.00  0.00     0.275 HD
HETATM   20  H           1      -8.394   8.599 -21.548  0.00  0.00     0.275 HD
HETATM   21  H           1      -9.506   9.013 -22.775  0.00  0.00     0.275 HD
ENDBRANCH  17  18
BRANCH  17  22
HETATM   22  C           1     -11.548   9.499 -21.541  0.00  0.00     0.017 C 
HETATM   23  C           1     -11.341  10.158 -22.898  0.00  0.00     0.012 C 
HETATM   24  C           1     -12.483  10.357 -20.699  0.00  0.00     0.012 C 
ENDBRANCH  17  22
ENDBRANCH   2  17
TORSDOF 7
ENDMDL
MODEL 9
REMARK VINA RESULT:      -5.3     25.635     27.055
REMARK  7 active torsions:
REMARK  status: ('A' for Active; 'I' for Inactive)
REMARK    1  A    between atoms: N_4  and  C_14 
REMARK    2  A    between atoms: N_5  and  C_12 
REMARK       I    between atoms: N_5  and  C_6 
REMARK    3  A    between atoms: C_6  and  C_14 
REMARK    4  A    between atoms: C_9  and  C_12 
REMARK    5  A    between atoms: C_9  and  C_16 
REMARK    6  A    between atoms: C_12  and  C_23 
REMARK    7  A    between atoms: C_14  and  C_17 
ROOT
HETATM    1  N           1     -12.563   7.046 -19.943  0.00  0.00    -0.344 N 
HETATM    2  C           1     -11.981   5.809 -19.878  0.00  0.00     0.249 C 
HETATM    3  O           1     -11.476   5.432 -18.846  0.00  0.00    -0.271 OA
HETATM    4  H           1     -13.544   7.156 -19.720  0.00  0.00     0.163 HD
ENDROOT
BRANCH   1   5
HETATM    5  C           1     -11.774   8.198 -20.334  0.00  0.00     0.191 C 
BRANCH   5   6
HETATM    6  C           1     -12.472   9.471 -19.874  0.00  0.00     0.094 C 
BRANCH   6   7
HETATM    7  C           1     -12.498  10.461 -20.996  0.00  0.00     0.028 A 
HETATM    8  N           1     -11.899  10.273 -22.215  0.00  0.00    -0.354 N 
HETATM    9  C           1     -12.156  11.364 -22.899  0.00  0.00     0.180 A 
ATOM     10  HN          1     -11.368   9.459 -22.525  1.00  0.00     0.166 HD
HETATM   11  N           1     -12.897  12.249 -22.169  0.00  0.00    -0.360 N 
HETATM   12  H           1     -13.232  13.192 -22.489  0.00  0.00     0.166 HD
HETATM   13  C           1     -13.124  11.683 -20.945  0.00  0.00     0.114 A 
ENDBRANCH   6   7
ENDBRANCH   5   6
BRANCH   5  14
HETATM   14  C           1     -10.410   8.112 -19.696  0.00  0.00     0.197 C 
HETATM   15  O           1      -9.445   7.650 -20.341  0.00  0.00    -0.646 OA
HETATM   16  O           1     -10.245   8.504 -18.520  0.00  0.00    -0.646 OA
ENDBRANCH   5  14
ENDBRANCH   1   5
BRANCH   2  17
HETATM   17  C           1     -11.968   4.915 -21.093  0.00  0.00     0.278 C 
BRANCH  17  18
HETATM   18  N           1     -10.614   4.967 -21.737  0.00  0.00    -0.066 N 
HETATM   19  H           1      -9.879   5.044 -20.998  0.00  0.00     0.275 HD
HETATM   20  H           1     -10.460   4.096 -22.293  0.00  0.00     0.275 HD
HETATM   21  H           1     -10.561   5.799 -22.368  0.00  0.00     0.275 HD
ENDBRANCH  17  18
BRANCH  17  22
HETATM   22  C           1     -12.276   3.484 -20.676  0.00  0.00     0.017 C 
HETATM   23  C           1     -11.022   2.632 -20.817  0.00  0.00     0.012 C 
HETATM   24  C           1     -13.375   2.920 -21.567  0.00  0.00     0.012 C 
ENDBRANCH  17  22
ENDBRANCH   2  17
TORSDOF 7
ENDMDL
