MODEL 1
REMARK VINA RESULT:      -6.7      0.000      0.000
REMARK  8 active torsions:
REMARK  status: ('A' for Active; 'I' for Inactive)
REMARK    1  A    between atoms: N_2  and  C_8 
REMARK       I    between atoms: C_5  and  N_6 
REMARK    2  A    between atoms: C_5  and  C_8 
REMARK    3  A    between atoms: N_6  and  C_12 
REMARK    4  A    between atoms: C_7  and  C_8 
REMARK    5  A    between atoms: C_7  and  C_17 
REMARK    6  A    between atoms: C_11  and  C_12 
REMARK    7  A    between atoms: C_12  and  C_13 
REMARK    8  A    between atoms: C_13  and  C_15 
ROOT
HETATM    1  O           1     -35.047  -2.308 -13.989  0.00  0.00    -0.271 OA
HETATM    2  H           1     -35.467   0.301 -12.298  0.00  0.00     0.163 HD
HETATM    3  C           1     -35.151  -1.126 -13.764  0.00  0.00     0.249 C 
HETATM    4  N           1     -35.381  -0.690 -12.487  0.00  0.00    -0.345 N 
ENDROOT
BRANCH   3   5
HETATM    5  C           1     -35.027  -0.129 -14.890  0.00  0.00     0.284 C 
BRANCH   5   6
HETATM    6  N           1     -34.885  -0.861 -16.192  0.00  0.00    -0.066 N 
HETATM    7  H           1     -35.673  -1.540 -16.297  0.00  0.00     0.275 HD
HETATM    8  H           1     -34.909  -0.176 -16.981  0.00  0.00     0.275 HD
HETATM    9  H           1     -33.977  -1.377 -16.204  0.00  0.00     0.275 HD
ENDBRANCH   5   6
BRANCH   5  10
HETATM   10  C           1     -36.273   0.745 -14.933  0.00  0.00     0.155 C 
BRANCH  10  11
HETATM   11  C           1     -37.477  -0.108 -15.247  0.00  0.00     0.175 C 
HETATM   12  O           1     -38.074  -0.708 -14.327  0.00  0.00    -0.648 OA
HETATM   13  O           1     -37.877  -0.215 -16.426  0.00  0.00    -0.648 OA
ENDBRANCH  10  11
ENDBRANCH   5  10
ENDBRANCH   3   5
BRANCH   4  14
HETATM   14  C           1     -35.499  -1.648 -11.405  0.00  0.00     0.185 C 
BRANCH  14  15
HETATM   15  C           1     -36.464  -1.121 -10.371  0.00  0.00     0.196 C 
HETATM   16  O           1     -37.695  -1.187 -10.573  0.00  0.00    -0.646 OA
HETATM   17  O           1     -36.032  -0.616  -9.312  0.00  0.00    -0.646 OA
ENDBRANCH  14  15
BRANCH  14  18
HETATM   18  C           1     -34.135  -1.860 -10.763  0.00  0.00     0.040 C 
BRANCH  18  19
HETATM   19  C           1     -33.844  -3.352 -10.666  0.00  0.00    -0.020 C 
HETATM   20  C           1     -32.767  -3.725 -11.676  0.00  0.00     0.009 C 
HETATM   21  C           1     -35.115  -4.137 -10.964  0.00  0.00     0.009 C 
ENDBRANCH  18  19
ENDBRANCH  14  18
ENDBRANCH   4  14
TORSDOF 8
ENDMDL
MODEL 2
REMARK VINA RESULT:      -6.3      1.477      2.154
REMARK  8 active torsions:
REMARK  status: ('A' for Active; 'I' for Inactive)
REMARK    1  A    between atoms: N_2  and  C_8 
REMARK       I    between atoms: C_5  and  N_6 
REMARK    2  A    between atoms: C_5  and  C_8 
REMARK    3  A    between atoms: N_6  and  C_12 
REMARK    4  A    between atoms: C_7  and  C_8 
REMARK    5  A    between atoms: C_7  and  C_17 
REMARK    6  A    between atoms: C_11  and  C_12 
REMARK    7  A    between atoms: C_12  and  C_13 
REMARK    8  A    between atoms: C_13  and  C_15 
ROOT
HETATM    1  O           1     -37.173  -1.015 -13.781  0.00  0.00    -0.271 OA
HETATM    2  H           1     -34.077  -0.738 -13.354  0.00  0.00     0.163 HD
HETATM    3  C           1     -36.031  -0.715 -14.037  0.00  0.00     0.249 C 
HETATM    4  N           1     -35.034  -0.989 -13.139  0.00  0.00    -0.345 N 
ENDROOT
BRANCH   3   5
HETATM    5  C           1     -35.703  -0.039 -15.346  0.00  0.00     0.284 C 
BRANCH   5   6
HETATM    6  N           1     -34.264   0.381 -15.343  0.00  0.00    -0.066 N 
HETATM    7  H           1     -34.184   1.347 -14.951  0.00  0.00     0.275 HD
HETATM    8  H           1     -33.710  -0.279 -14.752  0.00  0.00     0.275 HD
HETATM    9  H           1     -33.895   0.370 -16.320  0.00  0.00     0.275 HD
ENDBRANCH   5   6
BRANCH   5  10
HETATM   10  C           1     -35.946  -1.010 -16.493  0.00  0.00     0.155 C 
BRANCH  10  11
HETATM   11  C           1     -34.876  -2.074 -16.488  0.00  0.00     0.175 C 
HETATM   12  O           1     -34.057  -2.141 -17.431  0.00  0.00    -0.648 OA
HETATM   13  O           1     -34.809  -2.888 -15.543  0.00  0.00    -0.648 OA
ENDBRANCH  10  11
ENDBRANCH   5  10
ENDBRANCH   3   5
BRANCH   4  14
HETATM   14  C           1     -35.349  -1.640 -11.882  0.00  0.00     0.185 C 
BRANCH  14  15
HETATM   15  C           1     -36.247  -0.745 -11.065  0.00  0.00     0.196 C 
HETATM   16  O           1     -37.342  -1.175 -10.644  0.00  0.00    -0.646 OA
HETATM   17  O           1     -35.896   0.428 -10.809  0.00  0.00    -0.646 OA
ENDBRANCH  14  15
BRANCH  14  18
HETATM   18  C           1     -34.062  -1.906 -11.113  0.00  0.00     0.040 C 
BRANCH  18  19
HETATM   19  C           1     -33.914  -3.402 -10.869  0.00  0.00    -0.020 C 
HETATM   20  C           1     -32.833  -3.961 -11.783  0.00  0.00     0.009 C 
HETATM   21  C           1     -35.238  -4.097 -11.163  0.00  0.00     0.009 C 
ENDBRANCH  18  19
ENDBRANCH  14  18
ENDBRANCH   4  14
TORSDOF 8
ENDMDL
MODEL 3
REMARK VINA RESULT:      -6.1      2.615      4.859
REMARK  8 active torsions:
REMARK  status: ('A' for Active; 'I' for Inactive)
REMARK    1  A    between atoms: N_2  and  C_8 
REMARK       I    between atoms: C_5  and  N_6 
REMARK    2  A    between atoms: C_5  and  C_8 
REMARK    3  A    between atoms: N_6  and  C_12 
REMARK    4  A    between atoms: C_7  and  C_8 
REMARK    5  A    between atoms: C_7  and  C_17 
REMARK    6  A    between atoms: C_11  and  C_12 
REMARK    7  A    between atoms: C_12  and  C_13 
REMARK    8  A    between atoms: C_13  and  C_15 
ROOT
HETATM    1  O           1     -34.733  -1.305  -9.951  0.00  0.00    -0.271 OA
HETATM    2  H           1     -36.620  -1.713 -12.423  0.00  0.00     0.163 HD
HETATM    3  C           1     -35.694  -1.139 -10.663  0.00  0.00     0.249 C 
HETATM    4  N           1     -35.815  -1.852 -11.826  0.00  0.00    -0.345 N 
ENDROOT
BRANCH   3   5
HETATM    5  C           1     -36.761  -0.145 -10.273  0.00  0.00     0.284 C 
BRANCH   5   6
HETATM    6  N           1     -38.074  -0.567 -10.863  0.00  0.00    -0.066 N 
HETATM    7  H           1     -38.245  -0.037 -11.747  0.00  0.00     0.275 HD
HETATM    8  H           1     -38.050  -1.591 -11.070  0.00  0.00     0.275 HD
HETATM    9  H           1     -38.841  -0.366 -10.183  0.00  0.00     0.275 HD
ENDBRANCH   5   6
BRANCH   5  10
HETATM   10  C           1     -36.878  -0.096  -8.756  0.00  0.00     0.155 C 
BRANCH  10  11
HETATM   11  C           1     -37.342   1.275  -8.330  0.00  0.00     0.175 C 
HETATM   12  O           1     -38.074   1.950  -9.086  0.00  0.00    -0.648 OA
HETATM   13  O           1     -36.995   1.736  -7.221  0.00  0.00    -0.648 OA
ENDBRANCH  10  11
ENDBRANCH   5  10
ENDBRANCH   3   5
BRANCH   4  14
HETATM   14  C           1     -34.790  -2.807 -12.201  0.00  0.00     0.185 C 
BRANCH  14  15
HETATM   15  C           1     -34.642  -2.821 -13.702  0.00  0.00     0.196 C 
HETATM   16  O           1     -34.216  -3.844 -14.279  0.00  0.00    -0.646 OA
HETATM   17  O           1     -34.946  -1.808 -14.370  0.00  0.00    -0.646 OA
ENDBRANCH  14  15
BRANCH  14  18
HETATM   18  C           1     -35.189  -4.194 -11.718  0.00  0.00     0.040 C 
BRANCH  18  19
HETATM   19  C           1     -34.112  -4.740 -10.789  0.00  0.00    -0.020 C 
HETATM   20  C           1     -32.782  -4.789 -11.529  0.00  0.00     0.009 C 
HETATM   21  C           1     -34.495  -6.143 -10.337  0.00  0.00     0.009 C 
ENDBRANCH  18  19
ENDBRANCH  14  18
ENDBRANCH   4  14
TORSDOF 8
ENDMDL
MODEL 4
REMARK VINA RESULT:      -6.1     12.889     15.628
REMARK  8 active torsions:
REMARK  status: ('A' for Active; 'I' for Inactive)
REMARK    1  A    between atoms: N_2  and  C_8 
REMARK       I    between atoms: C_5  and  N_6 
REMARK    2  A    between atoms: C_5  and  C_8 
REMARK    3  A    between atoms: N_6  and  C_12 
REMARK    4  A    between atoms: C_7  and  C_8 
REMARK    5  A    between atoms: C_7  and  C_17 
REMARK    6  A    between atoms: C_11  and  C_12 
REMARK    7  A    between atoms: C_12  and  C_13 
REMARK    8  A    between atoms: C_13  and  C_15 
ROOT
HETATM    1  O           1     -21.662  -3.282  -7.449  0.00  0.00    -0.271 OA
HETATM    2  H           1     -22.260  -5.982  -8.929  0.00  0.00     0.163 HD
HETATM    3  C           1     -21.693  -4.475  -7.628  0.00  0.00     0.249 C 
HETATM    4  N           1     -22.234  -4.981  -8.780  0.00  0.00    -0.345 N 
ENDROOT
BRANCH   3   5
HETATM    5  C           1     -21.136  -5.411  -6.582  0.00  0.00     0.284 C 
BRANCH   5   6
HETATM    6  N           1     -20.182  -4.662  -5.700  0.00  0.00    -0.066 N 
HETATM    7  H           1     -20.089  -5.159  -4.786  0.00  0.00     0.275 HD
HETATM    8  H           1     -19.247  -4.610  -6.164  0.00  0.00     0.275 HD
HETATM    9  H           1     -20.545  -3.696  -5.535  0.00  0.00     0.275 HD
ENDBRANCH   5   6
BRANCH   5  10
HETATM   10  C           1     -22.277  -5.966  -5.740  0.00  0.00     0.155 C 
BRANCH  10  11
HETATM   11  C           1     -21.732  -6.485  -4.432  0.00  0.00     0.175 C 
HETATM   12  O           1     -20.880  -7.400  -4.429  0.00  0.00    -0.648 OA
HETATM   13  O           1     -22.132  -6.000  -3.352  0.00  0.00    -0.648 OA
ENDBRANCH  10  11
ENDBRANCH   5  10
ENDBRANCH   3   5
BRANCH   4  14
HETATM   14  C           1     -22.768  -4.083  -9.784  0.00  0.00     0.185 C 
BRANCH  14  15
HETATM   15  C           1     -24.264  -3.972  -9.615  0.00  0.00     0.196 C 
HETATM   16  O           1     -24.789  -2.858  -9.402  0.00  0.00    -0.646 OA
HETATM   17  O           1     -24.978  -4.996  -9.689  0.00  0.00    -0.646 OA
ENDBRANCH  14  15
BRANCH  14  18
HETATM   18  C           1     -22.453  -4.628 -11.171  0.00  0.00     0.040 C 
BRANCH  18  19
HETATM   19  C           1     -21.720  -3.566 -11.981  0.00  0.00    -0.020 C 
HETATM   20  C           1     -20.588  -2.984 -11.146  0.00  0.00     0.009 C 
HETATM   21  C           1     -22.692  -2.458 -12.362  0.00  0.00     0.009 C 
ENDBRANCH  18  19
ENDBRANCH  14  18
ENDBRANCH   4  14
TORSDOF 8
ENDMDL
MODEL 5
REMARK VINA RESULT:      -6.1      2.081      3.147
REMARK  8 active torsions:
REMARK  status: ('A' for Active; 'I' for Inactive)
REMARK    1  A    between atoms: N_2  and  C_8 
REMARK       I    between atoms: C_5  and  N_6 
REMARK    2  A    between atoms: C_5  and  C_8 
REMARK    3  A    between atoms: N_6  and  C_12 
REMARK    4  A    between atoms: C_7  and  C_8 
REMARK    5  A    between atoms: C_7  and  C_17 
REMARK    6  A    between atoms: C_11  and  C_12 
REMARK    7  A    between atoms: C_12  and  C_13 
REMARK    8  A    between atoms: C_13  and  C_15 
ROOT
HETATM    1  O           1     -34.306  -0.778 -11.752  0.00  0.00    -0.271 OA
HETATM    2  H           1     -35.652  -2.014 -14.302  0.00  0.00     0.163 HD
HETATM    3  C           1     -34.986  -0.818 -12.749  0.00  0.00     0.249 C 
HETATM    4  N           1     -35.082  -1.981 -13.466  0.00  0.00    -0.345 N 
ENDROOT
BRANCH   3   5
HETATM    5  C           1     -35.731   0.413 -13.206  0.00  0.00     0.284 C 
BRANCH   5   6
HETATM    6  N           1     -34.821   1.265 -14.040  0.00  0.00    -0.066 N 
HETATM    7  H           1     -35.196   1.326 -15.013  0.00  0.00     0.275 HD
HETATM    8  H           1     -34.768   2.224 -13.628  0.00  0.00     0.275 HD
HETATM    9  H           1     -33.867   0.840 -14.060  0.00  0.00     0.275 HD
ENDBRANCH   5   6
BRANCH   5  10
HETATM   10  C           1     -36.938  -0.003 -14.035  0.00  0.00     0.155 C 
BRANCH  10  11
HETATM   11  C           1     -36.637   0.198 -15.500  0.00  0.00     0.175 C 
HETATM   12  O           1     -35.916  -0.622 -16.108  0.00  0.00    -0.648 OA
HETATM   13  O           1     -37.109   1.185 -16.104  0.00  0.00    -0.648 OA
ENDBRANCH  10  11
ENDBRANCH   5  10
ENDBRANCH   3   5
BRANCH   4  14
HETATM   14  C           1     -34.367  -3.164 -13.027  0.00  0.00     0.185 C 
BRANCH  14  15
HETATM   15  C           1     -34.363  -4.187 -14.135  0.00  0.00     0.196 C 
HETATM   16  O           1     -35.024  -5.241 -14.016  0.00  0.00    -0.646 OA
HETATM   17  O           1     -33.697  -3.982 -15.174  0.00  0.00    -0.646 OA
ENDBRANCH  14  15
BRANCH  14  18
HETATM   18  C           1     -35.056  -3.747 -11.801  0.00  0.00     0.040 C 
BRANCH  18  19
HETATM   19  C           1     -34.006  -4.212 -10.800  0.00  0.00    -0.020 C 
HETATM   20  C           1     -32.616  -3.966 -11.371  0.00  0.00     0.009 C 
HETATM   21  C           1     -34.188  -5.700 -10.529  0.00  0.00     0.009 C 
ENDBRANCH  18  19
ENDBRANCH  14  18
ENDBRANCH   4  14
TORSDOF 8
ENDMDL
MODEL 6
REMARK VINA RESULT:      -5.8      2.283      5.157
REMARK  8 active torsions:
REMARK  status: ('A' for Active; 'I' for Inactive)
REMARK    1  A    between atoms: N_2  and  C_8 
REMARK       I    between atoms: C_5  and  N_6 
REMARK    2  A    between atoms: C_5  and  C_8 
REMARK    3  A    between atoms: N_6  and  C_12 
REMARK    4  A    between atoms: C_7  and  C_8 
REMARK    5  A    between atoms: C_7  and  C_17 
REMARK    6  A    between atoms: C_11  and  C_12 
REMARK    7  A    between atoms: C_12  and  C_13 
REMARK    8  A    between atoms: C_13  and  C_15 
ROOT
HETATM    1  O           1     -35.893   0.992 -10.924  0.00  0.00    -0.271 OA
HETATM    2  H           1     -37.170  -1.873 -10.972  0.00  0.00     0.163 HD
HETATM    3  C           1     -36.674   0.111 -10.653  0.00  0.00     0.249 C 
HETATM    4  N           1     -36.516  -1.135 -11.199  0.00  0.00    -0.345 N 
ENDROOT
BRANCH   3   5
HETATM    5  C           1     -37.823   0.383  -9.713  0.00  0.00     0.284 C 
BRANCH   5   6
HETATM    6  N           1     -37.989  -0.779  -8.779  0.00  0.00    -0.066 N 
HETATM    7  H           1     -37.977  -1.670  -9.326  0.00  0.00     0.275 HD
HETATM    8  H           1     -37.204  -0.786  -8.089  0.00  0.00     0.275 HD
HETATM    9  H           1     -38.899  -0.694  -8.274  0.00  0.00     0.275 HD
ENDBRANCH   5   6
BRANCH   5  10
HETATM   10  C           1     -37.533   1.643  -8.909  0.00  0.00     0.155 C 
BRANCH  10  11
HETATM   11  C           1     -36.851   1.270  -7.615  0.00  0.00     0.175 C 
HETATM   12  O           1     -35.783   0.621  -7.637  0.00  0.00    -0.648 OA
HETATM   13  O           1     -37.354   1.610  -6.523  0.00  0.00    -0.648 OA
ENDBRANCH  10  11
ENDBRANCH   5  10
ENDBRANCH   3   5
BRANCH   4  14
HETATM   14  C           1     -35.412  -1.396 -12.102  0.00  0.00     0.185 C 
BRANCH  14  15
HETATM   15  C           1     -35.807  -1.005 -13.504  0.00  0.00     0.196 C 
HETATM   16  O           1     -37.014  -0.921 -13.814  0.00  0.00    -0.646 OA
HETATM   17  O           1     -34.925  -0.765 -14.358  0.00  0.00    -0.646 OA
ENDBRANCH  14  15
BRANCH  14  18
HETATM   18  C           1     -35.068  -2.879 -12.066  0.00  0.00     0.040 C 
BRANCH  18  19
HETATM   19  C           1     -33.593  -3.052 -11.728  0.00  0.00    -0.020 C 
HETATM   20  C           1     -33.330  -4.496 -11.326  0.00  0.00     0.009 C 
HETATM   21  C           1     -33.226  -2.128 -10.574  0.00  0.00     0.009 C 
ENDBRANCH  18  19
ENDBRANCH  14  18
ENDBRANCH   4  14
TORSDOF 8
ENDMDL
MODEL 7
REMARK VINA RESULT:      -5.7     15.146     17.309
REMARK  8 active torsions:
REMARK  status: ('A' for Active; 'I' for Inactive)
REMARK    1  A    between atoms: N_2  and  C_8 
REMARK       I    between atoms: C_5  and  N_6 
REMARK    2  A    between atoms: C_5  and  C_8 
REMARK    3  A    between atoms: N_6  and  C_12 
REMARK    4  A    between atoms: C_7  and  C_8 
REMARK    5  A    between atoms: C_7  and  C_17 
REMARK    6  A    between atoms: C_11  and  C_12 
REMARK    7  A    between atoms: C_12  and  C_13 
REMARK    8  A    between atoms: C_13  and  C_15 
ROOT
HETATM    1  O           1     -20.335  -4.828  -5.706  0.00  0.00    -0.271 OA
HETATM    2  H           1     -21.484  -7.537  -6.792  0.00  0.00     0.163 HD
HETATM    3  C           1     -20.908  -5.577  -6.460  0.00  0.00     0.249 C 
HETATM    4  N           1     -21.003  -6.909  -6.159  0.00  0.00    -0.345 N 
ENDROOT
BRANCH   3   5
HETATM    5  C           1     -21.520  -5.045  -7.733  0.00  0.00     0.284 C 
BRANCH   5   6
HETATM    6  N           1     -22.701  -4.184  -7.397  0.00  0.00    -0.066 N 
HETATM    7  H           1     -22.809  -4.131  -6.359  0.00  0.00     0.275 HD
HETATM    8  H           1     -22.551  -3.223  -7.780  0.00  0.00     0.275 HD
HETATM    9  H           1     -23.564  -4.597  -7.816  0.00  0.00     0.275 HD
ENDBRANCH   5   6
BRANCH   5  10
HETATM   10  C           1     -20.486  -4.218  -8.485  0.00  0.00     0.155 C 
BRANCH  10  11
HETATM   11  C           1     -20.865  -4.141  -9.943  0.00  0.00     0.175 C 
HETATM   12  O           1     -21.914  -3.553 -10.287  0.00  0.00    -0.648 OA
HETATM   13  O           1     -20.130  -4.665 -10.808  0.00  0.00    -0.648 OA
ENDBRANCH  10  11
ENDBRANCH   5  10
ENDBRANCH   3   5
BRANCH   4  14
HETATM   14  C           1     -20.417  -7.421  -4.936  0.00  0.00     0.185 C 
BRANCH  14  15
HETATM   15  C           1     -19.754  -8.747  -5.213  0.00  0.00     0.196 C 
HETATM   16  O           1     -20.151  -9.779  -4.631  0.00  0.00    -0.646 OA
HETATM   17  O           1     -18.806  -8.815  -6.026  0.00  0.00    -0.646 OA
ENDBRANCH  14  15
BRANCH  14  18
HETATM   18  C           1     -21.507  -7.607  -3.890  0.00  0.00     0.040 C 
BRANCH  18  19
HETATM   19  C           1     -21.067  -6.974  -2.576  0.00  0.00    -0.020 C 
HETATM   20  C           1     -20.649  -8.067  -1.602  0.00  0.00     0.009 C 
HETATM   21  C           1     -22.223  -6.180  -1.984  0.00  0.00     0.009 C 
ENDBRANCH  18  19
ENDBRANCH  14  18
ENDBRANCH   4  14
TORSDOF 8
ENDMDL
MODEL 8
REMARK VINA RESULT:      -5.5     10.868     12.954
REMARK  8 active torsions:
REMARK  status: ('A' for Active; 'I' for Inactive)
REMARK    1  A    between atoms: N_2  and  C_8 
REMARK       I    between atoms: C_5  and  N_6 
REMARK    2  A    between atoms: C_5  and  C_8 
REMARK    3  A    between atoms: N_6  and  C_12 
REMARK    4  A    between atoms: C_7  and  C_8 
REMARK    5  A    between atoms: C_7  and  C_17 
REMARK    6  A    between atoms: C_11  and  C_12 
REMARK    7  A    between atoms: C_12  and  C_13 
REMARK    8  A    between atoms: C_13  and  C_15 
ROOT
HETATM    1  O           1     -27.458  -5.861 -19.446  0.00  0.00    -0.271 OA
HETATM    2  H           1     -24.998  -7.262 -18.096  0.00  0.00     0.163 HD
HETATM    3  C           1     -26.421  -6.475 -19.377  0.00  0.00     0.249 C 
HETATM    4  N           1     -25.867  -6.747 -18.154  0.00  0.00    -0.345 N 
ENDROOT
BRANCH   3   5
HETATM    5  C           1     -25.735  -6.943 -20.637  0.00  0.00     0.284 C 
BRANCH   5   6
HETATM    6  N           1     -25.320  -5.753 -21.450  0.00  0.00    -0.066 N 
HETATM    7  H           1     -26.170  -5.219 -21.743  0.00  0.00     0.275 HD
HETATM    8  H           1     -24.703  -5.137 -20.875  0.00  0.00     0.275 HD
HETATM    9  H           1     -24.802  -6.074 -22.298  0.00  0.00     0.275 HD
ENDBRANCH   5   6
BRANCH   5  10
HETATM   10  C           1     -24.504  -7.761 -20.270  0.00  0.00     0.155 C 
BRANCH  10  11
HETATM   11  C           1     -23.791  -8.193 -21.528  0.00  0.00     0.175 C 
HETATM   12  O           1     -24.399  -8.195 -22.621  0.00  0.00    -0.648 OA
HETATM   13  O           1     -22.594  -8.548 -21.478  0.00  0.00    -0.648 OA
ENDBRANCH  10  11
ENDBRANCH   5  10
ENDBRANCH   3   5
BRANCH   4  14
HETATM   14  C           1     -26.526  -6.298 -16.944  0.00  0.00     0.185 C 
BRANCH  14  15
HETATM   15  C           1     -25.562  -6.382 -15.786  0.00  0.00     0.196 C 
HETATM   16  O           1     -25.368  -7.474 -15.211  0.00  0.00    -0.646 OA
HETATM   17  O           1     -24.957  -5.357 -15.402  0.00  0.00    -0.646 OA
ENDBRANCH  14  15
BRANCH  14  18
HETATM   18  C           1     -27.732  -7.185 -16.664  0.00  0.00     0.040 C 
BRANCH  18  19
HETATM   19  C           1     -28.987  -6.326 -16.576  0.00  0.00    -0.020 C 
HETATM   20  C           1     -29.289  -6.017 -15.116  0.00  0.00     0.009 C 
HETATM   21  C           1     -30.161  -7.079 -17.189  0.00  0.00     0.009 C 
ENDBRANCH  18  19
ENDBRANCH  14  18
ENDBRANCH   4  14
TORSDOF 8
ENDMDL
MODEL 9
REMARK VINA RESULT:      -5.5     25.408     26.858
REMARK  8 active torsions:
REMARK  status: ('A' for Active; 'I' for Inactive)
REMARK    1  A    between atoms: N_2  and  C_8 
REMARK       I    between atoms: C_5  and  N_6 
REMARK    2  A    between atoms: C_5  and  C_8 
REMARK    3  A    between atoms: N_6  and  C_12 
REMARK    4  A    between atoms: C_7  and  C_8 
REMARK    5  A    between atoms: C_7  and  C_17 
REMARK    6  A    between atoms: C_11  and  C_12 
REMARK    7  A    between atoms: C_12  and  C_13 
REMARK    8  A    between atoms: C_13  and  C_15 
ROOT
HETATM    1  O           1     -13.118   7.704 -19.300  0.00  0.00    -0.271 OA
HETATM    2  H           1     -10.888   6.853 -21.336  0.00  0.00     0.163 HD
HETATM    3  C           1     -12.124   7.809 -19.978  0.00  0.00     0.249 C 
HETATM    4  N           1     -11.722   6.765 -20.768  0.00  0.00    -0.345 N 
ENDROOT
BRANCH   3   5
HETATM    5  C           1     -11.325   9.088 -19.954  0.00  0.00     0.284 C 
BRANCH   5   6
HETATM    6  N           1     -10.303   9.018 -18.858  0.00  0.00    -0.066 N 
HETATM    7  H           1      -9.653   8.220 -19.038  0.00  0.00     0.275 HD
HETATM    8  H           1      -9.759   9.910 -18.832  0.00  0.00     0.275 HD
HETATM    9  H           1     -10.784   8.875 -17.942  0.00  0.00     0.275 HD
ENDBRANCH   5   6
BRANCH   5  10
HETATM   10  C           1     -10.622   9.272 -21.292  0.00  0.00     0.155 C 
BRANCH  10  11
HETATM   11  C           1      -9.167   8.896 -21.153  0.00  0.00     0.175 C 
HETATM   12  O           1      -8.279   9.761 -21.319  0.00  0.00    -0.648 OA
HETATM   13  O           1      -8.850   7.721 -20.872  0.00  0.00    -0.648 OA
ENDBRANCH  10  11
ENDBRANCH   5  10
ENDBRANCH   3   5
BRANCH   4  14
HETATM   14  C           1     -12.489   5.536 -20.792  0.00  0.00     0.185 C 
BRANCH  14  15
HETATM   15  C           1     -11.862   4.533 -19.855  0.00  0.00     0.196 C 
HETATM   16  O           1     -12.077   4.605 -18.626  0.00  0.00    -0.646 OA
HETATM   17  O           1     -11.126   3.630 -20.308  0.00  0.00    -0.646 OA
ENDBRANCH  14  15
BRANCH  14  18
HETATM   18  C           1     -12.499   4.971 -22.206  0.00  0.00     0.040 C 
BRANCH  18  19
HETATM   19  C           1     -13.894   4.457 -22.539  0.00  0.00    -0.020 C 
HETATM   20  C           1     -14.920   5.174 -21.673  0.00  0.00     0.009 C 
HETATM   21  C           1     -13.959   2.959 -22.271  0.00  0.00     0.009 C 
ENDBRANCH  18  19
ENDBRANCH  14  18
ENDBRANCH   4  14
TORSDOF 8
ENDMDL
