MODEL 1
REMARK VINA RESULT:      -6.5      0.000      0.000
REMARK  6 active torsions:
REMARK  status: ('A' for Active; 'I' for Inactive)
REMARK    1  A    between atoms: C_1  and  C_15 
REMARK    2  A    between atoms: N_6  and  C_13 
REMARK    3  A    between atoms: N_7  and  C_15 
REMARK       I    between atoms: N_7  and  C_17 
REMARK    4  A    between atoms: C_13  and  C_17 
REMARK    5  A    between atoms: C_13  and  C_14 
REMARK    6  A    between atoms: C_14  and  C_16 
ROOT
HETATM    1  C           1     -23.257  -3.600  -9.226  0.00  0.00     0.275 C 
ENDROOT
BRANCH   1   2
HETATM    2  N           1     -24.072  -4.044  -8.047  0.00  0.00    -0.066 N 
HETATM    3  H           1     -23.436  -4.415  -7.304  0.00  0.00     0.275 HD
HETATM    4  H           1     -24.610  -3.232  -7.670  0.00  0.00     0.275 HD
HETATM    5  H           1     -24.735  -4.795  -8.345  0.00  0.00     0.275 HD
ENDBRANCH   1   2
BRANCH   1   6
HETATM    6  C           1     -24.174  -3.320 -10.392  0.00  0.00     0.248 C 
HETATM    7  O           1     -25.367  -3.245 -10.218  0.00  0.00    -0.271 OA
HETATM    8  N           1     -23.653  -3.152 -11.646  0.00  0.00    -0.349 N 
HETATM    9  H           1     -22.654  -3.215 -11.793  0.00  0.00     0.163 HD
BRANCH   8  10
HETATM   10  C           1     -24.534  -2.883 -12.767  0.00  0.00     0.235 C 
BRANCH  10  11
HETATM   11  C           1     -23.723  -2.377 -13.935  0.00  0.00     0.191 C 
HETATM   12  O           1     -22.623  -2.904 -14.207  0.00  0.00    -0.647 OA
HETATM   13  O           1     -24.152  -1.431 -14.630  0.00  0.00    -0.647 OA
ENDBRANCH  10  11
ENDBRANCH   8  10
ENDBRANCH   1   6
BRANCH   1  14
HETATM   14  C           1     -22.272  -4.698  -9.604  0.00  0.00     0.046 C 
BRANCH  14  15
HETATM   15  C           1     -20.855  -4.142  -9.572  0.00  0.00    -0.020 C 
HETATM   16  C           1     -20.207  -4.324 -10.938  0.00  0.00     0.009 C 
HETATM   17  C           1     -20.041  -4.886  -8.522  0.00  0.00     0.009 C 
ENDBRANCH  14  15
ENDBRANCH   1  14
TORSDOF 6
ENDMDL
MODEL 2
REMARK VINA RESULT:      -6.5     11.015     12.422
REMARK  6 active torsions:
REMARK  status: ('A' for Active; 'I' for Inactive)
REMARK    1  A    between atoms: C_1  and  C_15 
REMARK    2  A    between atoms: N_6  and  C_13 
REMARK    3  A    between atoms: N_7  and  C_15 
REMARK       I    between atoms: N_7  and  C_17 
REMARK    4  A    between atoms: C_13  and  C_17 
REMARK    5  A    between atoms: C_13  and  C_14 
REMARK    6  A    between atoms: C_14  and  C_16 
ROOT
HETATM    1  C           1     -34.642  -1.710 -11.975  0.00  0.00     0.275 C 
ENDROOT
BRANCH   1   2
HETATM    2  N           1     -35.138  -1.273 -10.628  0.00  0.00    -0.066 N 
HETATM    3  H           1     -35.867  -0.534 -10.748  0.00  0.00     0.275 HD
HETATM    4  H           1     -35.550  -2.090 -10.126  0.00  0.00     0.275 HD
HETATM    5  H           1     -34.340  -0.887 -10.073  0.00  0.00     0.275 HD
ENDBRANCH   1   2
BRANCH   1   6
HETATM    6  C           1     -35.495  -1.084 -13.051  0.00  0.00     0.248 C 
HETATM    7  O           1     -36.699  -1.105 -12.957  0.00  0.00    -0.271 OA
HETATM    8  N           1     -34.904  -0.491 -14.134  0.00  0.00    -0.349 N 
HETATM    9  H           1     -33.896  -0.472 -14.214  0.00  0.00     0.163 HD
BRANCH   8  10
HETATM   10  C           1     -35.724   0.112 -15.168  0.00  0.00     0.235 C 
BRANCH  10  11
HETATM   11  C           1     -35.827  -0.831 -16.342  0.00  0.00     0.191 C 
HETATM   12  O           1     -34.897  -1.631 -16.585  0.00  0.00    -0.647 OA
HETATM   13  O           1     -36.841  -0.812 -17.071  0.00  0.00    -0.647 OA
ENDBRANCH  10  11
ENDBRANCH   8  10
ENDBRANCH   1   6
BRANCH   1  14
HETATM   14  C           1     -34.726  -3.227 -12.078  0.00  0.00     0.046 C 
BRANCH  14  15
HETATM   15  C           1     -33.663  -3.856 -11.187  0.00  0.00    -0.020 C 
HETATM   16  C           1     -32.490  -4.314 -12.043  0.00  0.00     0.009 C 
HETATM   17  C           1     -34.256  -5.055 -10.457  0.00  0.00     0.009 C 
ENDBRANCH  14  15
ENDBRANCH   1  14
TORSDOF 6
ENDMDL
MODEL 3
REMARK VINA RESULT:      -6.1      1.916      2.253
REMARK  6 active torsions:
REMARK  status: ('A' for Active; 'I' for Inactive)
REMARK    1  A    between atoms: C_1  and  C_15 
REMARK    2  A    between atoms: N_6  and  C_13 
REMARK    3  A    between atoms: N_7  and  C_15 
REMARK       I    between atoms: N_7  and  C_17 
REMARK    4  A    between atoms: C_13  and  C_17 
REMARK    5  A    between atoms: C_13  and  C_14 
REMARK    6  A    between atoms: C_14  and  C_16 
ROOT
HETATM    1  C           1     -22.420  -3.704  -8.808  0.00  0.00     0.275 C 
ENDROOT
BRANCH   1   2
HETATM    2  N           1     -23.903  -3.836  -8.626  0.00  0.00    -0.066 N 
HETATM    3  H           1     -24.315  -2.897  -8.425  0.00  0.00     0.275 HD
HETATM    4  H           1     -24.328  -4.223  -9.498  0.00  0.00     0.275 HD
HETATM    5  H           1     -24.099  -4.480  -7.826  0.00  0.00     0.275 HD
ENDBRANCH   1   2
BRANCH   1   6
HETATM    6  C           1     -22.081  -3.832 -10.274  0.00  0.00     0.248 C 
HETATM    7  O           1     -21.162  -4.536 -10.621  0.00  0.00    -0.271 OA
HETATM    8  N           1     -22.814  -3.152 -11.208  0.00  0.00    -0.349 N 
HETATM    9  H           1     -23.583  -2.562 -10.917  0.00  0.00     0.163 HD
BRANCH   8  10
HETATM   10  C           1     -22.488  -3.276 -12.616  0.00  0.00     0.235 C 
BRANCH  10  11
HETATM   11  C           1     -23.723  -3.018 -13.444  0.00  0.00     0.191 C 
HETATM   12  O           1     -23.641  -2.967 -14.690  0.00  0.00    -0.647 OA
HETATM   13  O           1     -24.828  -2.857 -12.883  0.00  0.00    -0.647 OA
ENDBRANCH  10  11
ENDBRANCH   8  10
ENDBRANCH   1   6
BRANCH   1  14
HETATM   14  C           1     -21.712  -4.800  -8.024  0.00  0.00     0.046 C 
BRANCH  14  15
HETATM   15  C           1     -20.659  -4.177  -7.118  0.00  0.00    -0.020 C 
HETATM   16  C           1     -19.287  -4.318  -7.763  0.00  0.00     0.009 C 
HETATM   17  C           1     -20.661  -4.889  -5.771  0.00  0.00     0.009 C 
ENDBRANCH  14  15
ENDBRANCH   1  14
TORSDOF 6
ENDMDL
MODEL 4
REMARK VINA RESULT:      -6.1     11.412     13.268
REMARK  6 active torsions:
REMARK  status: ('A' for Active; 'I' for Inactive)
REMARK    1  A    between atoms: C_1  and  C_15 
REMARK    2  A    between atoms: N_6  and  C_13 
REMARK    3  A    between atoms: N_7  and  C_15 
REMARK       I    between atoms: N_7  and  C_17 
REMARK    4  A    between atoms: C_13  and  C_17 
REMARK    5  A    between atoms: C_13  and  C_14 
REMARK    6  A    between atoms: C_14  and  C_16 
ROOT
HETATM    1  C           1     -35.048  -2.116 -11.831  0.00  0.00     0.275 C 
ENDROOT
BRANCH   1   2
HETATM    2  N           1     -34.796  -1.815 -13.279  0.00  0.00    -0.066 N 
HETATM    3  H           1     -33.777  -1.923 -13.485  0.00  0.00     0.275 HD
HETATM    4  H           1     -35.343  -2.478 -13.873  0.00  0.00     0.275 HD
HETATM    5  H           1     -35.091  -0.834 -13.487  0.00  0.00     0.275 HD
ENDBRANCH   1   2
BRANCH   1   6
HETATM    6  C           1     -35.818  -0.976 -11.209  0.00  0.00     0.248 C 
HETATM    7  O           1     -35.549   0.165 -11.501  0.00  0.00    -0.271 OA
HETATM    8  N           1     -36.820  -1.236 -10.313  0.00  0.00    -0.349 N 
HETATM    9  H           1     -37.045  -2.191 -10.068  0.00  0.00     0.163 HD
BRANCH   8  10
HETATM   10  C           1     -37.559  -0.140  -9.715  0.00  0.00     0.235 C 
BRANCH  10  11
HETATM   11  C           1     -37.125   0.036  -8.280  0.00  0.00     0.191 C 
HETATM   12  O           1     -37.864  -0.355  -7.351  0.00  0.00    -0.647 OA
HETATM   13  O           1     -36.026   0.571  -8.021  0.00  0.00    -0.647 OA
ENDBRANCH  10  11
ENDBRANCH   8  10
ENDBRANCH   1   6
BRANCH   1  14
HETATM   14  C           1     -33.719  -2.287 -11.109  0.00  0.00     0.046 C 
BRANCH  14  15
HETATM   15  C           1     -33.463  -3.768 -10.860  0.00  0.00    -0.020 C 
HETATM   16  C           1     -32.595  -4.328 -11.979  0.00  0.00     0.009 C 
HETATM   17  C           1     -34.790  -4.514 -10.826  0.00  0.00     0.009 C 
ENDBRANCH  14  15
ENDBRANCH   1  14
TORSDOF 6
ENDMDL
MODEL 5
REMARK VINA RESULT:      -5.7      1.875      2.239
REMARK  6 active torsions:
REMARK  status: ('A' for Active; 'I' for Inactive)
REMARK    1  A    between atoms: C_1  and  C_15 
REMARK    2  A    between atoms: N_6  and  C_13 
REMARK    3  A    between atoms: N_7  and  C_15 
REMARK       I    between atoms: N_7  and  C_17 
REMARK    4  A    between atoms: C_13  and  C_17 
REMARK    5  A    between atoms: C_13  and  C_14 
REMARK    6  A    between atoms: C_14  and  C_16 
ROOT
HETATM    1  C           1     -23.195  -3.989 -11.551  0.00  0.00     0.275 C 
ENDROOT
BRANCH   1   2
HETATM    2  N           1     -23.355  -5.389 -12.068  0.00  0.00    -0.066 N 
HETATM    3  H           1     -23.729  -6.000 -11.307  0.00  0.00     0.275 HD
HETATM    4  H           1     -24.021  -5.389 -12.873  0.00  0.00     0.275 HD
HETATM    5  H           1     -22.426  -5.752 -12.382  0.00  0.00     0.275 HD
ENDBRANCH   1   2
BRANCH   1   6
HETATM    6  C           1     -24.082  -3.058 -12.341  0.00  0.00     0.248 C 
HETATM    7  O           1     -25.254  -2.962 -12.066  0.00  0.00    -0.271 OA
HETATM    8  N           1     -23.559  -2.322 -13.369  0.00  0.00    -0.349 N 
HETATM    9  H           1     -22.577  -2.402 -13.601  0.00  0.00     0.163 HD
BRANCH   8  10
HETATM   10  C           1     -24.411  -1.427 -14.128  0.00  0.00     0.235 C 
BRANCH  10  11
HETATM   11  C           1     -23.615  -0.799 -15.246  0.00  0.00     0.191 C 
HETATM   12  O           1     -22.685  -1.437 -15.786  0.00  0.00    -0.647 OA
HETATM   13  O           1     -23.885   0.358 -15.631  0.00  0.00    -0.647 OA
ENDBRANCH  10  11
ENDBRANCH   8  10
ENDBRANCH   1   6
BRANCH   1  14
HETATM   14  C           1     -21.742  -3.557 -11.700  0.00  0.00     0.046 C 
BRANCH  14  15
HETATM   15  C           1     -21.031  -3.697 -10.361  0.00  0.00    -0.020 C 
HETATM   16  C           1     -20.063  -4.872 -10.422  0.00  0.00     0.009 C 
HETATM   17  C           1     -22.057  -3.944  -9.263  0.00  0.00     0.009 C 
ENDBRANCH  14  15
ENDBRANCH   1  14
TORSDOF 6
ENDMDL
MODEL 6
REMARK VINA RESULT:      -5.6      8.843     10.104
REMARK  6 active torsions:
REMARK  status: ('A' for Active; 'I' for Inactive)
REMARK    1  A    between atoms: C_1  and  C_15 
REMARK    2  A    between atoms: N_6  and  C_13 
REMARK    3  A    between atoms: N_7  and  C_15 
REMARK       I    between atoms: N_7  and  C_17 
REMARK    4  A    between atoms: C_13  and  C_17 
REMARK    5  A    between atoms: C_13  and  C_14 
REMARK    6  A    between atoms: C_14  and  C_16 
ROOT
HETATM    1  C           1     -28.967  -6.914 -17.234  0.00  0.00     0.275 C 
ENDROOT
BRANCH   1   2
HETATM    2  N           1     -29.427  -8.340 -17.157  0.00  0.00    -0.066 N 
HETATM    3  H           1     -29.482  -8.741 -18.121  0.00  0.00     0.275 HD
HETATM    4  H           1     -28.750  -8.895 -16.588  0.00  0.00     0.275 HD
HETATM    5  H           1     -30.372  -8.377 -16.711  0.00  0.00     0.275 HD
ENDBRANCH   1   2
BRANCH   1   6
HETATM    6  C           1     -29.998  -6.019 -16.590  0.00  0.00     0.248 C 
HETATM    7  O           1     -29.797  -5.560 -15.490  0.00  0.00    -0.271 OA
HETATM    8  N           1     -31.160  -5.727 -17.251  0.00  0.00    -0.349 N 
HETATM    9  H           1     -31.328  -6.111 -18.172  0.00  0.00     0.163 HD
BRANCH   8  10
HETATM   10  C           1     -32.150  -4.866 -16.632  0.00  0.00     0.235 C 
BRANCH  10  11
HETATM   11  C           1     -32.135  -3.516 -17.306  0.00  0.00     0.191 C 
HETATM   12  O           1     -33.212  -2.945 -17.584  0.00  0.00    -0.647 OA
HETATM   13  O           1     -31.047  -2.969 -17.586  0.00  0.00    -0.647 OA
ENDBRANCH  10  11
ENDBRANCH   8  10
ENDBRANCH   1   6
BRANCH   1  14
HETATM   14  C           1     -28.787  -6.516 -18.693  0.00  0.00     0.046 C 
BRANCH  14  15
HETATM   15  C           1     -27.378  -5.979 -18.903  0.00  0.00    -0.020 C 
HETATM   16  C           1     -26.724  -6.712 -20.067  0.00  0.00     0.009 C 
HETATM   17  C           1     -26.556  -6.200 -17.640  0.00  0.00     0.009 C 
ENDBRANCH  14  15
ENDBRANCH   1  14
TORSDOF 6
ENDMDL
MODEL 7
REMARK VINA RESULT:      -5.5      3.320      5.793
REMARK  6 active torsions:
REMARK  status: ('A' for Active; 'I' for Inactive)
REMARK    1  A    between atoms: C_1  and  C_15 
REMARK    2  A    between atoms: N_6  and  C_13 
REMARK    3  A    between atoms: N_7  and  C_15 
REMARK       I    between atoms: N_7  and  C_17 
REMARK    4  A    between atoms: C_13  and  C_17 
REMARK    5  A    between atoms: C_13  and  C_14 
REMARK    6  A    between atoms: C_14  and  C_16 
ROOT
HETATM    1  C           1     -23.899  -4.407  -9.457  0.00  0.00     0.275 C 
ENDROOT
BRANCH   1   2
HETATM    2  N           1     -24.602  -3.132  -9.098  0.00  0.00    -0.066 N 
HETATM    3  H           1     -23.909  -2.350  -9.060  0.00  0.00     0.275 HD
HETATM    4  H           1     -25.327  -2.919  -9.819  0.00  0.00     0.275 HD
HETATM    5  H           1     -25.058  -3.237  -8.163  0.00  0.00     0.275 HD
ENDBRANCH   1   2
BRANCH   1   6
HETATM    6  C           1     -22.563  -4.458  -8.757  0.00  0.00     0.248 C 
HETATM    7  O           1     -21.564  -4.729  -9.381  0.00  0.00    -0.271 OA
HETATM    8  N           1     -22.482  -4.198  -7.416  0.00  0.00    -0.349 N 
HETATM    9  H           1     -23.319  -3.971  -6.893  0.00  0.00     0.163 HD
BRANCH   8  10
HETATM   10  C           1     -21.198  -4.246  -6.743  0.00  0.00     0.235 C 
BRANCH  10  11
HETATM   11  C           1     -21.041  -5.580  -6.054  0.00  0.00     0.191 C 
HETATM   12  O           1     -20.670  -6.581  -6.704  0.00  0.00    -0.647 OA
HETATM   13  O           1     -21.283  -5.683  -4.832  0.00  0.00    -0.647 OA
ENDBRANCH  10  11
ENDBRANCH   8  10
ENDBRANCH   1   6
BRANCH   1  14
HETATM   14  C           1     -23.687  -4.463 -10.964  0.00  0.00     0.046 C 
BRANCH  14  15
HETATM   15  C           1     -23.692  -3.050 -11.531  0.00  0.00    -0.020 C 
HETATM   16  C           1     -24.662  -2.978 -12.703  0.00  0.00     0.009 C 
HETATM   17  C           1     -22.292  -2.688 -12.008  0.00  0.00     0.009 C 
ENDBRANCH  14  15
ENDBRANCH   1  14
TORSDOF 6
ENDMDL
MODEL 8
REMARK VINA RESULT:      -5.5      1.903      2.517
REMARK  6 active torsions:
REMARK  status: ('A' for Active; 'I' for Inactive)
REMARK    1  A    between atoms: C_1  and  C_15 
REMARK    2  A    between atoms: N_6  and  C_13 
REMARK    3  A    between atoms: N_7  and  C_15 
REMARK       I    between atoms: N_7  and  C_17 
REMARK    4  A    between atoms: C_13  and  C_17 
REMARK    5  A    between atoms: C_13  and  C_14 
REMARK    6  A    between atoms: C_14  and  C_16 
ROOT
HETATM    1  C           1     -22.479  -4.331  -7.654  0.00  0.00     0.275 C 
ENDROOT
BRANCH   1   2
HETATM    2  N           1     -23.553  -4.588  -6.639  0.00  0.00    -0.066 N 
HETATM    3  H           1     -24.004  -3.683  -6.373  0.00  0.00     0.275 HD
HETATM    4  H           1     -24.271  -5.228  -7.045  0.00  0.00     0.275 HD
HETATM    5  H           1     -23.131  -5.028  -5.790  0.00  0.00     0.275 HD
ENDBRANCH   1   2
BRANCH   1   6
HETATM    6  C           1     -23.108  -4.127  -9.011  0.00  0.00     0.248 C 
HETATM    7  O           1     -24.178  -3.573  -9.103  0.00  0.00    -0.271 OA
HETATM    8  N           1     -22.467  -4.569 -10.136  0.00  0.00    -0.349 N 
HETATM    9  H           1     -21.571  -5.033 -10.059  0.00  0.00     0.163 HD
BRANCH   8  10
HETATM   10  C           1     -23.073  -4.373 -11.440  0.00  0.00     0.235 C 
BRANCH  10  11
HETATM   11  C           1     -22.616  -3.054 -12.013  0.00  0.00     0.191 C 
HETATM   12  O           1     -21.496  -2.592 -11.705  0.00  0.00    -0.647 OA
HETATM   13  O           1     -23.358  -2.423 -12.796  0.00  0.00    -0.647 OA
ENDBRANCH  10  11
ENDBRANCH   8  10
ENDBRANCH   1   6
BRANCH   1  14
HETATM   14  C           1     -21.534  -5.524  -7.705  0.00  0.00     0.046 C 
BRANCH  14  15
HETATM   15  C           1     -20.149  -5.096  -7.239  0.00  0.00    -0.020 C 
HETATM   16  C           1     -20.205  -4.714  -5.766  0.00  0.00     0.009 C 
HETATM   17  C           1     -19.686  -3.896  -8.055  0.00  0.00     0.009 C 
ENDBRANCH  14  15
ENDBRANCH   1  14
TORSDOF 6
ENDMDL
MODEL 9
REMARK VINA RESULT:      -5.3      3.421      4.965
REMARK  6 active torsions:
REMARK  status: ('A' for Active; 'I' for Inactive)
REMARK    1  A    between atoms: C_1  and  C_15 
REMARK    2  A    between atoms: N_6  and  C_13 
REMARK    3  A    between atoms: N_7  and  C_15 
REMARK       I    between atoms: N_7  and  C_17 
REMARK    4  A    between atoms: C_13  and  C_17 
REMARK    5  A    between atoms: C_13  and  C_14 
REMARK    6  A    between atoms: C_14  and  C_16 
ROOT
HETATM    1  C           1     -21.097  -5.743  -6.801  0.00  0.00     0.275 C 
ENDROOT
BRANCH   1   2
HETATM    2  N           1     -19.813  -6.209  -7.421  0.00  0.00    -0.066 N 
HETATM    3  H           1     -19.090  -5.459  -7.332  0.00  0.00     0.275 HD
HETATM    4  H           1     -19.483  -7.071  -6.931  0.00  0.00     0.275 HD
HETATM    5  H           1     -19.972  -6.421  -8.432  0.00  0.00     0.275 HD
ENDBRANCH   1   2
BRANCH   1   6
HETATM    6  C           1     -21.642  -4.578  -7.592  0.00  0.00     0.248 C 
HETATM    7  O           1     -21.584  -3.460  -7.139  0.00  0.00    -0.271 OA
HETATM    8  N           1     -22.202  -4.790  -8.823  0.00  0.00    -0.349 N 
HETATM    9  H           1     -22.251  -5.726  -9.203  0.00  0.00     0.163 HD
BRANCH   8  10
HETATM   10  C           1     -22.726  -3.671  -9.583  0.00  0.00     0.235 C 
BRANCH  10  11
HETATM   11  C           1     -24.226  -3.796  -9.695  0.00  0.00     0.191 C 
HETATM   12  O           1     -24.952  -2.795  -9.513  0.00  0.00    -0.647 OA
HETATM   13  O           1     -24.742  -4.901  -9.968  0.00  0.00    -0.647 OA
ENDBRANCH  10  11
ENDBRANCH   8  10
ENDBRANCH   1   6
BRANCH   1  14
HETATM   14  C           1     -20.838  -5.306  -5.365  0.00  0.00     0.046 C 
BRANCH  14  15
HETATM   15  C           1     -20.950  -6.510  -4.440  0.00  0.00    -0.020 C 
HETATM   16  C           1     -21.979  -7.484  -4.998  0.00  0.00     0.009 C 
HETATM   17  C           1     -21.387  -6.049  -3.056  0.00  0.00     0.009 C 
ENDBRANCH  14  15
ENDBRANCH   1  14
TORSDOF 6
ENDMDL
