MODEL 1
REMARK VINA RESULT:      -6.0      0.000      0.000
REMARK  8 active torsions:
REMARK  status: ('A' for Active; 'I' for Inactive)
REMARK    1  A    between atoms: C_1  and  C_2 
REMARK    2  A    between atoms: C_1  and  C_20 
REMARK    3  A    between atoms: C_1  and  N_17 
REMARK    4  A    between atoms: C_2  and  Se_3 
REMARK       I    between atoms: N_17  and  C_21 
REMARK    5  A    between atoms: C_18  and  C_23 
REMARK    6  A    between atoms: C_18  and  C_19 
REMARK    7  A    between atoms: C_21  and  C_23 
REMARK    8  A    between atoms: N_22  and  C_23 
ROOT
HETATM    1  C           1     -21.090  -5.696  -6.743  0.00  0.00     0.280 C 
ENDROOT
BRANCH   1   2
HETATM    2  C           1     -20.700  -5.128  -5.385  0.00  0.00     0.101 C 
BRANCH   2   3
HETATM    3  C           1     -21.090  -6.092  -4.308  0.00  0.00     0.028 A 
HETATM    4  N           1     -21.464  -5.734  -3.040  0.00  0.00    -0.355 N 
HETATM    5  C           1     -21.720  -6.863  -2.421  0.00  0.00     0.180 A 
ATOM      6  HN          1     -21.529  -4.790  -2.657  1.00  0.00     0.166 HD
HETATM    7  N           1     -21.526  -7.938  -3.242  0.00  0.00    -0.360 N 
HETATM    8  H           1     -21.663  -8.947  -2.987  0.00  0.00     0.166 HD
HETATM    9  C           1     -21.121  -7.457  -4.457  0.00  0.00     0.114 A 
ENDBRANCH   2   3
ENDBRANCH   1   2
BRANCH   1  10
HETATM   10  C           1     -21.611  -4.586  -7.623  0.00  0.00     0.249 C 
HETATM   11  O           1     -21.529  -3.438  -7.258  0.00  0.00    -0.271 OA
HETATM   12  N           1     -22.177  -4.880  -8.834  0.00  0.00    -0.345 N 
HETATM   13  H           1     -22.245  -5.843  -9.140  0.00  0.00     0.163 HD
BRANCH  12  14
HETATM   14  C           1     -22.677  -3.814  -9.679  0.00  0.00     0.185 C 
BRANCH  14  15
HETATM   15  C           1     -22.147  -3.997 -11.095  0.00  0.00     0.039 C 
BRANCH  15  16
HETATM   16 Se           1     -22.991  -2.698 -12.279  0.00  0.00     0.000 Se
HETATM   17  H           1     -21.874  -2.673 -13.237  0.00  0.00     0.000 HD
ENDBRANCH  15  16
ENDBRANCH  14  15
BRANCH  14  18
HETATM   18  C           1     -24.185  -3.853  -9.698  0.00  0.00     0.196 C 
HETATM   19  O           1     -24.841  -2.827  -9.418  0.00  0.00    -0.646 OA
HETATM   20  O           1     -24.779  -4.913  -9.993  0.00  0.00    -0.646 OA
ENDBRANCH  14  18
ENDBRANCH  12  14
ENDBRANCH   1  10
BRANCH   1  21
HETATM   21  N           1     -19.888  -6.322  -7.387  0.00  0.00    -0.066 N 
HETATM   22  H           1     -19.161  -5.588  -7.552  0.00  0.00     0.275 HD
HETATM   23  H           1     -20.166  -6.749  -8.299  0.00  0.00     0.275 HD
HETATM   24  H           1     -19.502  -7.062  -6.759  0.00  0.00     0.275 HD
ENDBRANCH   1  21
TORSDOF 8
ENDMDL
MODEL 2
REMARK VINA RESULT:      -5.7      3.515      6.583
REMARK  8 active torsions:
REMARK  status: ('A' for Active; 'I' for Inactive)
REMARK    1  A    between atoms: C_1  and  C_2 
REMARK    2  A    between atoms: C_1  and  C_20 
REMARK    3  A    between atoms: C_1  and  N_17 
REMARK    4  A    between atoms: C_2  and  Se_3 
REMARK       I    between atoms: N_17  and  C_21 
REMARK    5  A    between atoms: C_18  and  C_23 
REMARK    6  A    between atoms: C_18  and  C_19 
REMARK    7  A    between atoms: C_21  and  C_23 
REMARK    8  A    between atoms: N_22  and  C_23 
ROOT
HETATM    1  C           1     -21.398  -4.669  -6.843  0.00  0.00     0.280 C 
ENDROOT
BRANCH   1   2
HETATM    2  C           1     -21.577  -5.211  -8.255  0.00  0.00     0.101 C 
BRANCH   2   3
HETATM    3  C           1     -22.633  -4.421  -8.964  0.00  0.00     0.028 A 
HETATM    4  N           1     -23.809  -4.007  -8.396  0.00  0.00    -0.355 N 
HETATM    5  C           1     -24.441  -3.354  -9.344  0.00  0.00     0.180 A 
ATOM      6  HN          1     -24.126  -4.170  -7.440  1.00  0.00     0.166 HD
HETATM    7  N           1     -23.719  -3.331 -10.502  0.00  0.00    -0.360 N 
HETATM    8  H           1     -24.004  -2.874 -11.404  0.00  0.00     0.166 HD
HETATM    9  C           1     -22.555  -4.013 -10.273  0.00  0.00     0.114 A 
ENDBRANCH   2   3
ENDBRANCH   1   2
BRANCH   1  10
HETATM   10  C           1     -22.037  -5.615  -5.856  0.00  0.00     0.249 C 
HETATM   11  O           1     -23.238  -5.638  -5.733  0.00  0.00    -0.271 OA
HETATM   12  N           1     -21.256  -6.446  -5.099  0.00  0.00    -0.345 N 
HETATM   13  H           1     -20.248  -6.426  -5.202  0.00  0.00     0.163 HD
BRANCH  12  14
HETATM   14  C           1     -21.870  -7.355  -4.150  0.00  0.00     0.185 C 
BRANCH  14  15
HETATM   15  C           1     -21.236  -8.733  -4.284  0.00  0.00     0.039 C 
BRANCH  15  16
HETATM   16 Se           1     -19.472  -8.560  -5.097  0.00  0.00     0.000 Se
HETATM   17  H           1     -19.971  -8.664  -6.478  0.00  0.00     0.000 HD
ENDBRANCH  15  16
ENDBRANCH  14  15
BRANCH  14  18
HETATM   18  C           1     -21.656  -6.837  -2.749  0.00  0.00     0.196 C 
HETATM   19  O           1     -20.777  -7.348  -2.021  0.00  0.00    -0.646 OA
HETATM   20  O           1     -22.358  -5.898  -2.316  0.00  0.00    -0.646 OA
ENDBRANCH  14  18
ENDBRANCH  12  14
ENDBRANCH   1  10
BRANCH   1  21
HETATM   21  N           1     -19.935  -4.543  -6.538  0.00  0.00    -0.066 N 
HETATM   22  H           1     -19.779  -4.693  -5.515  0.00  0.00     0.275 HD
HETATM   23  H           1     -19.605  -3.589  -6.805  0.00  0.00     0.275 HD
HETATM   24  H           1     -19.403  -5.260  -7.080  0.00  0.00     0.275 HD
ENDBRANCH   1  21
TORSDOF 8
ENDMDL
MODEL 3
REMARK VINA RESULT:      -5.6     11.571     13.948
REMARK  8 active torsions:
REMARK  status: ('A' for Active; 'I' for Inactive)
REMARK    1  A    between atoms: C_1  and  C_2 
REMARK    2  A    between atoms: C_1  and  C_20 
REMARK    3  A    between atoms: C_1  and  N_17 
REMARK    4  A    between atoms: C_2  and  Se_3 
REMARK       I    between atoms: N_17  and  C_21 
REMARK    5  A    between atoms: C_18  and  C_23 
REMARK    6  A    between atoms: C_18  and  C_19 
REMARK    7  A    between atoms: C_21  and  C_23 
REMARK    8  A    between atoms: N_22  and  C_23 
ROOT
HETATM    1  C           1     -25.354  -6.745 -19.807  0.00  0.00     0.280 C 
ENDROOT
BRANCH   1   2
HETATM    2  C           1     -25.510  -7.895 -20.793  0.00  0.00     0.101 C 
BRANCH   2   3
HETATM    3  C           1     -24.195  -8.166 -21.456  0.00  0.00     0.028 A 
HETATM    4  N           1     -23.194  -8.930 -20.917  0.00  0.00    -0.355 N 
HETATM    5  C           1     -22.227  -8.914 -21.806  0.00  0.00     0.180 A 
ATOM      6  HN          1     -23.198  -9.409 -20.016  1.00  0.00     0.166 HD
HETATM    7  N           1     -22.567  -8.168 -22.899  0.00  0.00    -0.360 N 
HETATM    8  H           1     -21.969  -7.999 -23.746  0.00  0.00     0.166 HD
HETATM    9  C           1     -23.828  -7.681 -22.688  0.00  0.00     0.114 A 
ENDBRANCH   2   3
ENDBRANCH   1   2
BRANCH   1  10
HETATM   10  C           1     -26.700  -6.405 -19.214  0.00  0.00     0.249 C 
HETATM   11  O           1     -27.546  -5.881 -19.898  0.00  0.00    -0.271 OA
HETATM   12  N           1     -26.961  -6.689 -17.900  0.00  0.00    -0.345 N 
HETATM   13  H           1     -26.251  -7.129 -17.327  0.00  0.00     0.163 HD
BRANCH  12  14
HETATM   14  C           1     -28.254  -6.363 -17.330  0.00  0.00     0.185 C 
BRANCH  14  15
HETATM   15  C           1     -29.299  -7.341 -17.850  0.00  0.00     0.039 C 
BRANCH  15  16
HETATM   16 Se           1     -31.082  -6.640 -17.489  0.00  0.00     0.000 Se
HETATM   17  H           1     -31.723  -7.388 -18.583  0.00  0.00     0.000 HD
ENDBRANCH  15  16
ENDBRANCH  14  15
BRANCH  14  18
HETATM   18  C           1     -28.178  -6.460 -15.827  0.00  0.00     0.196 C 
HETATM   19  O           1     -27.607  -7.433 -15.291  0.00  0.00    -0.646 OA
HETATM   20  O           1     -28.687  -5.565 -15.117  0.00  0.00    -0.646 OA
ENDBRANCH  14  18
ENDBRANCH  12  14
ENDBRANCH   1  10
BRANCH   1  21
HETATM   21  N           1     -24.414  -7.150 -18.710  0.00  0.00    -0.066 N 
HETATM   22  H           1     -23.463  -7.315 -19.112  0.00  0.00     0.275 HD
HETATM   23  H           1     -24.761  -8.026 -18.261  0.00  0.00     0.275 HD
HETATM   24  H           1     -24.363  -6.389 -17.996  0.00  0.00     0.275 HD
ENDBRANCH   1  21
TORSDOF 8
ENDMDL
MODEL 4
REMARK VINA RESULT:      -5.5      3.754      6.890
REMARK  8 active torsions:
REMARK  status: ('A' for Active; 'I' for Inactive)
REMARK    1  A    between atoms: C_1  and  C_2 
REMARK    2  A    between atoms: C_1  and  C_20 
REMARK    3  A    between atoms: C_1  and  N_17 
REMARK    4  A    between atoms: C_2  and  Se_3 
REMARK       I    between atoms: N_17  and  C_21 
REMARK    5  A    between atoms: C_18  and  C_23 
REMARK    6  A    between atoms: C_18  and  C_19 
REMARK    7  A    between atoms: C_21  and  C_23 
REMARK    8  A    between atoms: N_22  and  C_23 
ROOT
HETATM    1  C           1     -21.407  -4.804  -7.700  0.00  0.00     0.280 C 
ENDROOT
BRANCH   1   2
HETATM    2  C           1     -20.361  -4.717  -8.805  0.00  0.00     0.101 C 
BRANCH   2   3
HETATM    3  C           1     -21.029  -4.367 -10.099  0.00  0.00     0.028 A 
HETATM    4  N           1     -22.338  -4.639 -10.398  0.00  0.00    -0.355 N 
HETATM    5  C           1     -22.521  -4.176 -11.613  0.00  0.00     0.180 A 
ATOM      6  HN          1     -23.025  -5.104  -9.803  1.00  0.00     0.166 HD
HETATM    7  N           1     -21.379  -3.615 -12.110  0.00  0.00    -0.360 N 
HETATM    8  H           1     -21.264  -3.175 -13.056  0.00  0.00     0.166 HD
HETATM    9  C           1     -20.413  -3.730 -11.148  0.00  0.00     0.114 A 
ENDBRANCH   2   3
ENDBRANCH   1   2
BRANCH   1  10
HETATM   10  C           1     -20.815  -5.506  -6.503  0.00  0.00     0.249 C 
HETATM   11  O           1     -20.094  -4.903  -5.745  0.00  0.00    -0.271 OA
HETATM   12  N           1     -21.094  -6.827  -6.276  0.00  0.00    -0.345 N 
HETATM   13  H           1     -21.699  -7.333  -6.912  0.00  0.00     0.163 HD
BRANCH  12  14
HETATM   14  C           1     -20.526  -7.502  -5.125  0.00  0.00     0.185 C 
BRANCH  14  15
HETATM   15  C           1     -21.616  -7.743  -4.089  0.00  0.00     0.039 C 
BRANCH  15  16
HETATM   16 Se           1     -21.567  -6.326  -2.752  0.00  0.00     0.000 Se
HETATM   17  H           1     -22.649  -6.900  -1.936  0.00  0.00     0.000 HD
ENDBRANCH  15  16
ENDBRANCH  14  15
BRANCH  14  18
HETATM   18  C           1     -19.940  -8.823  -5.556  0.00  0.00     0.196 C 
HETATM   19  O           1     -20.674  -9.831  -5.651  0.00  0.00    -0.646 OA
HETATM   20  O           1     -18.721  -8.911  -5.820  0.00  0.00    -0.646 OA
ENDBRANCH  14  18
ENDBRANCH  12  14
ENDBRANCH   1  10
BRANCH   1  21
HETATM   21  N           1     -21.836  -3.422  -7.307  0.00  0.00    -0.066 N 
HETATM   22  H           1     -22.873  -3.404  -7.177  0.00  0.00     0.275 HD
HETATM   23  H           1     -21.566  -2.747  -8.058  0.00  0.00     0.275 HD
HETATM   24  H           1     -21.368  -3.153  -6.413  0.00  0.00     0.275 HD
ENDBRANCH   1  21
TORSDOF 8
ENDMDL
MODEL 5
REMARK VINA RESULT:      -5.4      3.905      6.592
REMARK  8 active torsions:
REMARK  status: ('A' for Active; 'I' for Inactive)
REMARK    1  A    between atoms: C_1  and  C_2 
REMARK    2  A    between atoms: C_1  and  C_20 
REMARK    3  A    between atoms: C_1  and  N_17 
REMARK    4  A    between atoms: C_2  and  Se_3 
REMARK       I    between atoms: N_17  and  C_21 
REMARK    5  A    between atoms: C_18  and  C_23 
REMARK    6  A    between atoms: C_18  and  C_19 
REMARK    7  A    between atoms: C_21  and  C_23 
REMARK    8  A    between atoms: N_22  and  C_23 
ROOT
HETATM    1  C           1     -21.006  -4.191  -7.519  0.00  0.00     0.280 C 
ENDROOT
BRANCH   1   2
HETATM    2  C           1     -21.807  -5.124  -8.419  0.00  0.00     0.101 C 
BRANCH   2   3
HETATM    3  C           1     -22.856  -4.339  -9.144  0.00  0.00     0.028 A 
HETATM    4  N           1     -24.015  -3.879  -8.578  0.00  0.00    -0.355 N 
HETATM    5  C           1     -24.647  -3.250  -9.543  0.00  0.00     0.180 A 
ATOM      6  HN          1     -24.322  -3.998  -7.612  1.00  0.00     0.166 HD
HETATM    7  N           1     -23.940  -3.288 -10.710  0.00  0.00    -0.360 N 
HETATM    8  H           1     -24.227  -2.860 -11.625  0.00  0.00     0.166 HD
HETATM    9  C           1     -22.787  -3.984 -10.470  0.00  0.00     0.114 A 
ENDBRANCH   2   3
ENDBRANCH   1   2
BRANCH   1  10
HETATM   10  C           1     -20.617  -4.921  -6.257  0.00  0.00     0.249 C 
HETATM   11  O           1     -19.973  -4.356  -5.406  0.00  0.00    -0.271 OA
HETATM   12  N           1     -20.995  -6.225  -6.075  0.00  0.00    -0.345 N 
HETATM   13  H           1     -21.535  -6.699  -6.789  0.00  0.00     0.163 HD
BRANCH  12  14
HETATM   14  C           1     -20.622  -6.926  -4.862  0.00  0.00     0.185 C 
BRANCH  14  15
HETATM   15  C           1     -21.805  -6.948  -3.905  0.00  0.00     0.039 C 
BRANCH  15  16
HETATM   16 Se           1     -21.199  -7.496  -2.134  0.00  0.00     0.000 Se
HETATM   17  H           1     -21.069  -6.120  -1.627  0.00  0.00     0.000 HD
ENDBRANCH  15  16
ENDBRANCH  14  15
BRANCH  14  18
HETATM   18  C           1     -20.224  -8.341  -5.203  0.00  0.00     0.196 C 
HETATM   19  O           1     -19.090  -8.764  -4.892  0.00  0.00    -0.646 OA
HETATM   20  O           1     -21.029  -9.091  -5.797  0.00  0.00    -0.646 OA
ENDBRANCH  14  18
ENDBRANCH  12  14
ENDBRANCH   1  10
BRANCH   1  21
HETATM   21  N           1     -19.767  -3.745  -8.239  0.00  0.00    -0.066 N 
HETATM   22  H           1     -19.004  -3.576  -7.545  0.00  0.00     0.275 HD
HETATM   23  H           1     -19.968  -2.862  -8.760  0.00  0.00     0.275 HD
HETATM   24  H           1     -19.469  -4.486  -8.912  0.00  0.00     0.275 HD
ENDBRANCH   1  21
TORSDOF 8
ENDMDL
MODEL 6
REMARK VINA RESULT:      -5.1      4.431      7.026
REMARK  8 active torsions:
REMARK  status: ('A' for Active; 'I' for Inactive)
REMARK    1  A    between atoms: C_1  and  C_2 
REMARK    2  A    between atoms: C_1  and  C_20 
REMARK    3  A    between atoms: C_1  and  N_17 
REMARK    4  A    between atoms: C_2  and  Se_3 
REMARK       I    between atoms: N_17  and  C_21 
REMARK    5  A    between atoms: C_18  and  C_23 
REMARK    6  A    between atoms: C_18  and  C_19 
REMARK    7  A    between atoms: C_21  and  C_23 
REMARK    8  A    between atoms: N_22  and  C_23 
ROOT
HETATM    1  C           1     -21.789  -6.305  -5.922  0.00  0.00     0.280 C 
ENDROOT
BRANCH   1   2
HETATM    2  C           1     -21.312  -4.919  -6.337  0.00  0.00     0.101 C 
BRANCH   2   3
HETATM    3  C           1     -22.064  -4.474  -7.553  0.00  0.00     0.028 A 
HETATM    4  N           1     -23.415  -4.248  -7.593  0.00  0.00    -0.355 N 
HETATM    5  C           1     -23.669  -3.879  -8.828  0.00  0.00     0.180 A 
ATOM      6  HN          1     -24.082  -4.345  -6.827  1.00  0.00     0.166 HD
HETATM    7  N           1     -22.533  -3.859  -9.586  0.00  0.00    -0.360 N 
HETATM    8  H           1     -22.468  -3.598 -10.602  0.00  0.00     0.166 HD
HETATM    9  C           1     -21.495  -4.239  -8.781  0.00  0.00     0.114 A 
ENDBRANCH   2   3
ENDBRANCH   1   2
BRANCH   1  10
HETATM   10  C           1     -20.599  -7.218  -5.756  0.00  0.00     0.249 C 
HETATM   11  O           1     -19.653  -7.118  -6.499  0.00  0.00    -0.271 OA
HETATM   12  N           1     -20.593  -8.160  -4.763  0.00  0.00    -0.345 N 
HETATM   13  H           1     -21.387  -8.244  -4.140  0.00  0.00     0.163 HD
BRANCH  12  14
HETATM   14  C           1     -19.450  -9.038  -4.603  0.00  0.00     0.185 C 
BRANCH  14  15
HETATM   15  C           1     -19.041  -9.076  -3.136  0.00  0.00     0.039 C 
BRANCH  15  16
HETATM   16 Se           1     -20.439  -8.259  -2.050  0.00  0.00     0.000 Se
HETATM   17  H           1     -19.843  -6.914  -2.089  0.00  0.00     0.000 HD
ENDBRANCH  15  16
ENDBRANCH  14  15
BRANCH  14  18
HETATM   18  C           1     -19.816 -10.428  -5.059  0.00  0.00     0.196 C 
HETATM   19  O           1     -19.956 -10.669  -6.277  0.00  0.00    -0.646 OA
HETATM   20  O           1     -19.980 -11.339  -4.219  0.00  0.00    -0.646 OA
ENDBRANCH  14  18
ENDBRANCH  12  14
ENDBRANCH   1  10
BRANCH   1  21
HETATM   21  N           1     -22.531  -6.209  -4.622  0.00  0.00    -0.066 N 
HETATM   22  H           1     -22.049  -5.524  -3.997  0.00  0.00     0.275 HD
HETATM   23  H           1     -22.550  -7.148  -4.163  0.00  0.00     0.275 HD
HETATM   24  H           1     -23.510  -5.890  -4.802  0.00  0.00     0.275 HD
ENDBRANCH   1  21
TORSDOF 8
ENDMDL
MODEL 7
REMARK VINA RESULT:      -5.1     13.274     14.282
REMARK  8 active torsions:
REMARK  status: ('A' for Active; 'I' for Inactive)
REMARK    1  A    between atoms: C_1  and  C_2 
REMARK    2  A    between atoms: C_1  and  C_20 
REMARK    3  A    between atoms: C_1  and  N_17 
REMARK    4  A    between atoms: C_2  and  Se_3 
REMARK       I    between atoms: N_17  and  C_21 
REMARK    5  A    between atoms: C_18  and  C_23 
REMARK    6  A    between atoms: C_18  and  C_19 
REMARK    7  A    between atoms: C_21  and  C_23 
REMARK    8  A    between atoms: N_22  and  C_23 
ROOT
HETATM    1  C           1     -25.595  -6.860 -20.278  0.00  0.00     0.280 C 
ENDROOT
BRANCH   1   2
HETATM    2  C           1     -24.265  -7.393 -19.761  0.00  0.00     0.101 C 
BRANCH   2   3
HETATM    3  C           1     -23.522  -8.053 -20.880  0.00  0.00     0.028 A 
HETATM    4  N           1     -22.277  -8.613 -20.764  0.00  0.00    -0.355 N 
HETATM    5  C           1     -21.991  -9.075 -21.960  0.00  0.00     0.180 A 
ATOM      6  HN          1     -21.695  -8.662 -19.927  1.00  0.00     0.166 HD
HETATM    7  N           1     -23.004  -8.834 -22.844  0.00  0.00    -0.360 N 
HETATM    8  H           1     -23.021  -9.103 -23.858  0.00  0.00     0.166 HD
HETATM    9  C           1     -23.994  -8.178 -22.164  0.00  0.00     0.114 A 
ENDBRANCH   2   3
ENDBRANCH   1   2
BRANCH   1  10
HETATM   10  C           1     -26.532  -6.631 -19.117  0.00  0.00     0.249 C 
HETATM   11  O           1     -26.096  -6.260 -18.054  0.00  0.00    -0.271 OA
HETATM   12  N           1     -27.875  -6.845 -19.269  0.00  0.00    -0.345 N 
HETATM   13  H           1     -28.240  -7.156 -20.161  0.00  0.00     0.163 HD
BRANCH  12  14
HETATM   14  C           1     -28.776  -6.625 -18.154  0.00  0.00     0.185 C 
BRANCH  14  15
HETATM   15  C           1     -29.672  -5.431 -18.452  0.00  0.00     0.039 C 
BRANCH  15  16
HETATM   16 Se           1     -31.007  -5.252 -17.043  0.00  0.00     0.000 Se
HETATM   17  H           1     -31.930  -4.448 -17.861  0.00  0.00     0.000 HD
ENDBRANCH  15  16
ENDBRANCH  14  15
BRANCH  14  18
HETATM   18  C           1     -29.626  -7.854 -17.946  0.00  0.00     0.196 C 
HETATM   19  O           1     -29.554  -8.490 -16.873  0.00  0.00    -0.646 OA
HETATM   20  O           1     -30.404  -8.235 -18.847  0.00  0.00    -0.646 OA
ENDBRANCH  14  18
ENDBRANCH  12  14
ENDBRANCH   1  10
BRANCH   1  21
HETATM   21  N           1     -25.367  -5.564 -20.999  0.00  0.00    -0.066 N 
HETATM   22  H           1     -25.349  -4.780 -20.307  0.00  0.00     0.275 HD
HETATM   23  H           1     -26.140  -5.407 -21.685  0.00  0.00     0.275 HD
HETATM   24  H           1     -24.454  -5.603 -21.506  0.00  0.00     0.275 HD
ENDBRANCH   1  21
TORSDOF 8
ENDMDL
MODEL 8
REMARK VINA RESULT:      -5.0      5.328      8.262
REMARK  8 active torsions:
REMARK  status: ('A' for Active; 'I' for Inactive)
REMARK    1  A    between atoms: C_1  and  C_2 
REMARK    2  A    between atoms: C_1  and  C_20 
REMARK    3  A    between atoms: C_1  and  N_17 
REMARK    4  A    between atoms: C_2  and  Se_3 
REMARK       I    between atoms: N_17  and  C_21 
REMARK    5  A    between atoms: C_18  and  C_23 
REMARK    6  A    between atoms: C_18  and  C_19 
REMARK    7  A    between atoms: C_21  and  C_23 
REMARK    8  A    between atoms: N_22  and  C_23 
ROOT
HETATM    1  C           1     -20.926  -7.171  -3.438  0.00  0.00     0.280 C 
ENDROOT
BRANCH   1   2
HETATM    2  C           1     -21.889  -6.677  -4.511  0.00  0.00     0.101 C 
BRANCH   2   3
HETATM    3  C           1     -21.115  -6.026  -5.614  0.00  0.00     0.028 A 
HETATM    4  N           1     -21.040  -6.500  -6.898  0.00  0.00    -0.355 N 
HETATM    5  C           1     -20.273  -5.648  -7.538  0.00  0.00     0.180 A 
ATOM      6  HN          1     -21.485  -7.337  -7.276  1.00  0.00     0.166 HD
HETATM    7  N           1     -19.850  -4.642  -6.717  0.00  0.00    -0.360 N 
HETATM    8  H           1     -19.229  -3.839  -6.987  0.00  0.00     0.166 HD
HETATM    9  C           1     -20.383  -4.872  -5.478  0.00  0.00     0.114 A 
ENDBRANCH   2   3
ENDBRANCH   1   2
BRANCH   1  10
HETATM   10  C           1     -21.694  -7.475  -2.174  0.00  0.00     0.249 C 
HETATM   11  O           1     -22.272  -6.589  -1.591  0.00  0.00    -0.271 OA
HETATM   12  N           1     -21.735  -8.754  -1.689  0.00  0.00    -0.345 N 
HETATM   13  H           1     -21.250  -9.497  -2.178  0.00  0.00     0.163 HD
BRANCH  12  14
HETATM   14  C           1     -22.472  -9.047  -0.475  0.00  0.00     0.185 C 
BRANCH  14  15
HETATM   15  C           1     -23.262 -10.336  -0.659  0.00  0.00     0.039 C 
BRANCH  15  16
HETATM   16 Se           1     -22.751 -11.176  -2.342  0.00  0.00     0.000 Se
HETATM   17  H           1     -22.752  -9.917  -3.104  0.00  0.00     0.000 HD
ENDBRANCH  15  16
ENDBRANCH  14  15
BRANCH  14  18
HETATM   18  C           1     -21.506  -9.208   0.672  0.00  0.00     0.196 C 
HETATM   19  O           1     -21.299  -8.255   1.454  0.00  0.00    -0.646 OA
HETATM   20  O           1     -20.913 -10.295   0.842  0.00  0.00    -0.646 OA
ENDBRANCH  14  18
ENDBRANCH  12  14
ENDBRANCH   1  10
BRANCH   1  21
HETATM   21  N           1     -20.240  -8.416  -3.916  0.00  0.00    -0.066 N 
HETATM   22  H           1     -19.222  -8.220  -4.053  0.00  0.00     0.275 HD
HETATM   23  H           1     -20.663  -8.720  -4.822  0.00  0.00     0.275 HD
HETATM   24  H           1     -20.357  -9.173  -3.206  0.00  0.00     0.275 HD
ENDBRANCH   1  21
TORSDOF 8
ENDMDL
MODEL 9
REMARK VINA RESULT:      -5.0      4.347      6.987
REMARK  8 active torsions:
REMARK  status: ('A' for Active; 'I' for Inactive)
REMARK    1  A    between atoms: C_1  and  C_2 
REMARK    2  A    between atoms: C_1  and  C_20 
REMARK    3  A    between atoms: C_1  and  N_17 
REMARK    4  A    between atoms: C_2  and  Se_3 
REMARK       I    between atoms: N_17  and  C_21 
REMARK    5  A    between atoms: C_18  and  C_23 
REMARK    6  A    between atoms: C_18  and  C_19 
REMARK    7  A    between atoms: C_21  and  C_23 
REMARK    8  A    between atoms: N_22  and  C_23 
ROOT
HETATM    1  C           1     -21.057  -5.585  -5.802  0.00  0.00     0.280 C 
ENDROOT
BRANCH   1   2
HETATM    2  C           1     -20.942  -5.876  -7.293  0.00  0.00     0.101 C 
BRANCH   2   3
HETATM    3  C           1     -21.806  -4.921  -8.056  0.00  0.00     0.028 A 
HETATM    4  N           1     -21.546  -4.482  -9.328  0.00  0.00    -0.355 N 
HETATM    5  C           1     -22.533  -3.668  -9.623  0.00  0.00     0.180 A 
ATOM      6  HN          1     -20.753  -4.734  -9.920  1.00  0.00     0.166 HD
HETATM    7  N           1     -23.421  -3.565  -8.590  0.00  0.00    -0.360 N 
HETATM    8  H           1     -24.293  -2.979  -8.577  0.00  0.00     0.166 HD
HETATM    9  C           1     -22.966  -4.364  -7.577  0.00  0.00     0.114 A 
ENDBRANCH   2   3
ENDBRANCH   1   2
BRANCH   1  10
HETATM   10  C           1     -20.735  -6.834  -5.019  0.00  0.00     0.249 C 
HETATM   11  O           1     -21.003  -6.895  -3.843  0.00  0.00    -0.271 OA
HETATM   12  N           1     -20.138  -7.897  -5.641  0.00  0.00    -0.345 N 
HETATM   13  H           1     -19.913  -7.845  -6.627  0.00  0.00     0.163 HD
BRANCH  12  14
HETATM   14  C           1     -19.829  -9.098  -4.889  0.00  0.00     0.185 C 
BRANCH  14  15
HETATM   15  C           1     -20.819 -10.195  -5.255  0.00  0.00     0.039 C 
BRANCH  15  16
HETATM   16 Se           1     -21.996 -10.541  -3.740  0.00  0.00     0.000 Se
HETATM   17  H           1     -23.132 -10.969  -4.572  0.00  0.00     0.000 HD
ENDBRANCH  15  16
ENDBRANCH  14  15
BRANCH  14  18
HETATM   18  C           1     -18.429  -9.552  -5.221  0.00  0.00     0.196 C 
HETATM   19  O           1     -18.093  -9.721  -6.413  0.00  0.00    -0.646 OA
HETATM   20  O           1     -17.605  -9.758  -4.304  0.00  0.00    -0.646 OA
ENDBRANCH  14  18
ENDBRANCH  12  14
ENDBRANCH   1  10
BRANCH   1  21
HETATM   21  N           1     -20.090  -4.499  -5.429  0.00  0.00    -0.066 N 
HETATM   22  H           1     -20.280  -3.651  -6.010  0.00  0.00     0.275 HD
HETATM   23  H           1     -19.114  -4.829  -5.600  0.00  0.00     0.275 HD
HETATM   24  H           1     -20.206  -4.262  -4.418  0.00  0.00     0.275 HD
ENDBRANCH   1  21
TORSDOF 8
ENDMDL
