MODEL 1
REMARK VINA RESULT:      -6.7      0.000      0.000
REMARK  10 active torsions:
REMARK  status: ('A' for Active; 'I' for Inactive)
REMARK    1  A    between atoms: C_7  and  C_19 
REMARK    2  A    between atoms: C_8  and  O_12 
REMARK    3  A    between atoms: N_9  and  C_18 
REMARK       I    between atoms: N_9  and  C_23 
REMARK    4  A    between atoms: C_10  and  C_20 
REMARK    5  A    between atoms: C_10  and  S_22 
REMARK    6  A    between atoms: C_15  and  C_23 
REMARK    7  A    between atoms: C_15  and  C_20 
REMARK    8  A    between atoms: C_15  and  N_26 
REMARK    9  A    between atoms: C_17  and  C_18 
REMARK   10  A    between atoms: C_18  and  C_19 
ROOT
HETATM    1  N           1     -21.003  -5.222  -5.144  0.00  0.00    -0.344 N 
HETATM    2  H           1     -20.773  -4.357  -4.671  0.00  0.00     0.163 HD
HETATM    3  C           1     -21.293  -6.343  -4.416  0.00  0.00     0.249 C 
HETATM    4  O           1     -21.567  -7.376  -4.980  0.00  0.00    -0.271 OA
ENDROOT
BRANCH   1   5
HETATM    5  C           1     -21.023  -5.271  -6.593  0.00  0.00     0.189 C 
BRANCH   5   6
HETATM    6  C           1     -19.632  -5.555  -7.105  0.00  0.00     0.197 C 
HETATM    7  O           1     -18.825  -4.616  -7.277  0.00  0.00    -0.646 OA
HETATM    8  O           1     -19.287  -6.730  -7.358  0.00  0.00    -0.646 OA
ENDBRANCH   5   6
BRANCH   5   9
HETATM    9  C           1     -21.504  -3.933  -7.140  0.00  0.00     0.074 C 
BRANCH   9  10
HETATM   10  C           1     -22.064  -4.128  -8.513  0.00  0.00    -0.056 A 
HETATM   11  C           1     -21.217  -4.117  -9.621  0.00  0.00     0.010 A 
HETATM   12  C           1     -21.739  -4.297 -10.902  0.00  0.00     0.037 A 
HETATM   13  C           1     -23.110  -4.489 -11.075  0.00  0.00     0.065 A 
HETATM   14  C           1     -23.958  -4.499  -9.968  0.00  0.00     0.037 A 
HETATM   15  C           1     -23.436  -4.319  -8.687  0.00  0.00     0.010 A 
BRANCH  13  16
HETATM   16  O           1     -23.617  -4.664 -12.319  0.00  0.00    -0.361 OA
HETATM   17  H           1     -24.551  -4.918 -12.230  0.00  0.00     0.217 HD
ENDBRANCH  13  16
ENDBRANCH   9  10
ENDBRANCH   5   9
ENDBRANCH   1   5
BRANCH   3  18
HETATM   18  C           1     -21.272  -6.290  -2.907  0.00  0.00     0.275 C 
BRANCH  18  19
HETATM   19  C           1     -20.930  -7.668  -2.356  0.00  0.00     0.053 C 
BRANCH  19  20
HETATM   20  C           1     -21.444  -7.786  -0.927  0.00  0.00     0.076 C 
BRANCH  20  21
HETATM   21  S           1     -22.306  -9.369  -0.721  0.00  0.00    -0.173 SA
HETATM   22  C           1     -21.877 -10.044  -2.351  0.00  0.00     0.089 C 
ENDBRANCH  20  21
ENDBRANCH  19  20
ENDBRANCH  18  19
BRANCH  18  23
HETATM   23  N           1     -22.620  -5.871  -2.404  0.00  0.00    -0.066 N 
HETATM   24  H           1     -22.626  -4.838  -2.245  0.00  0.00     0.275 HD
HETATM   25  H           1     -23.349  -6.119  -3.109  0.00  0.00     0.275 HD
HETATM   26  H           1     -22.824  -6.362  -1.504  0.00  0.00     0.275 HD
ENDBRANCH  18  23
ENDBRANCH   3  18
TORSDOF 10
ENDMDL
MODEL 2
REMARK VINA RESULT:      -6.6      1.388      1.917
REMARK  10 active torsions:
REMARK  status: ('A' for Active; 'I' for Inactive)
REMARK    1  A    between atoms: C_7  and  C_19 
REMARK    2  A    between atoms: C_8  and  O_12 
REMARK    3  A    between atoms: N_9  and  C_18 
REMARK       I    between atoms: N_9  and  C_23 
REMARK    4  A    between atoms: C_10  and  C_20 
REMARK    5  A    between atoms: C_10  and  S_22 
REMARK    6  A    between atoms: C_15  and  C_23 
REMARK    7  A    between atoms: C_15  and  C_20 
REMARK    8  A    between atoms: C_15  and  N_26 
REMARK    9  A    between atoms: C_17  and  C_18 
REMARK   10  A    between atoms: C_18  and  C_19 
ROOT
HETATM    1  N           1     -21.653  -5.544  -5.910  0.00  0.00    -0.344 N 
HETATM    2  H           1     -22.150  -4.934  -5.274  0.00  0.00     0.163 HD
HETATM    3  C           1     -21.537  -6.879  -5.630  0.00  0.00     0.249 C 
HETATM    4  O           1     -20.943  -7.607  -6.389  0.00  0.00    -0.271 OA
ENDROOT
BRANCH   1   5
HETATM    5  C           1     -21.063  -5.003  -7.119  0.00  0.00     0.189 C 
BRANCH   5   6
HETATM    6  C           1     -19.639  -4.587  -6.840  0.00  0.00     0.197 C 
HETATM    7  O           1     -19.245  -4.456  -5.661  0.00  0.00    -0.646 OA
HETATM    8  O           1     -18.853  -4.374  -7.789  0.00  0.00    -0.646 OA
ENDBRANCH   5   6
BRANCH   5   9
HETATM    9  C           1     -21.865  -3.793  -7.578  0.00  0.00     0.074 C 
BRANCH   9  10
HETATM   10  C           1     -22.354  -4.018  -8.974  0.00  0.00    -0.056 A 
HETATM   11  C           1     -23.723  -4.115  -9.227  0.00  0.00     0.010 A 
HETATM   12  C           1     -24.179  -4.324 -10.528  0.00  0.00     0.037 A 
HETATM   13  C           1     -23.266  -4.437 -11.578  0.00  0.00     0.065 A 
HETATM   14  C           1     -21.898  -4.341 -11.324  0.00  0.00     0.037 A 
HETATM   15  C           1     -21.441  -4.131 -10.023  0.00  0.00     0.010 A 
BRANCH  13  16
HETATM   16  O           1     -23.709  -4.642 -12.841  0.00  0.00    -0.361 OA
HETATM   17  H           1     -23.366  -3.924 -13.400  0.00  0.00     0.217 HD
ENDBRANCH  13  16
ENDBRANCH   9  10
ENDBRANCH   5   9
ENDBRANCH   1   5
BRANCH   3  18
HETATM   18  C           1     -22.152  -7.441  -4.371  0.00  0.00     0.275 C 
BRANCH  18  19
HETATM   19  C           1     -21.784  -6.556  -3.188  0.00  0.00     0.053 C 
BRANCH  19  20
HETATM   20  C           1     -21.226  -7.417  -2.062  0.00  0.00     0.076 C 
BRANCH  20  21
HETATM   21  S           1     -22.308  -7.296  -0.612  0.00  0.00    -0.173 SA
HETATM   22  C           1     -21.361  -8.433   0.440  0.00  0.00     0.089 C 
ENDBRANCH  20  21
ENDBRANCH  19  20
ENDBRANCH  18  19
BRANCH  18  23
HETATM   23  N           1     -21.631  -8.828  -4.139  0.00  0.00    -0.066 N 
HETATM   24  H           1     -20.586  -8.811  -4.135  0.00  0.00     0.275 HD
HETATM   25  H           1     -21.977  -9.181  -3.218  0.00  0.00     0.275 HD
HETATM   26  H           1     -21.966  -9.458  -4.902  0.00  0.00     0.275 HD
ENDBRANCH  18  23
ENDBRANCH   3  18
TORSDOF 10
ENDMDL
MODEL 3
REMARK VINA RESULT:      -6.3     14.140     17.295
REMARK  10 active torsions:
REMARK  status: ('A' for Active; 'I' for Inactive)
REMARK    1  A    between atoms: C_7  and  C_19 
REMARK    2  A    between atoms: C_8  and  O_12 
REMARK    3  A    between atoms: N_9  and  C_18 
REMARK       I    between atoms: N_9  and  C_23 
REMARK    4  A    between atoms: C_10  and  C_20 
REMARK    5  A    between atoms: C_10  and  S_22 
REMARK    6  A    between atoms: C_15  and  C_23 
REMARK    7  A    between atoms: C_15  and  C_20 
REMARK    8  A    between atoms: C_15  and  N_26 
REMARK    9  A    between atoms: C_17  and  C_18 
REMARK   10  A    between atoms: C_18  and  C_19 
ROOT
HETATM    1  N           1     -36.078  -0.109 -13.043  0.00  0.00    -0.344 N 
HETATM    2  H           1     -35.308   0.513 -13.251  0.00  0.00     0.163 HD
HETATM    3  C           1     -37.070  -0.304 -13.965  0.00  0.00     0.249 C 
HETATM    4  O           1     -37.990  -1.046 -13.715  0.00  0.00    -0.271 OA
ENDROOT
BRANCH   1   5
HETATM    5  C           1     -36.130  -0.793 -11.765  0.00  0.00     0.189 C 
BRANCH   5   6
HETATM    6  C           1     -36.855   0.072 -10.762  0.00  0.00     0.197 C 
HETATM    7  O           1     -36.237   0.964 -10.143  0.00  0.00    -0.646 OA
HETATM    8  O           1     -38.075  -0.105 -10.551  0.00  0.00    -0.646 OA
ENDBRANCH   5   6
BRANCH   5   9
HETATM    9  C           1     -34.714  -1.061 -11.275  0.00  0.00     0.074 C 
BRANCH   9  10
HETATM   10  C           1     -34.464  -2.537 -11.253  0.00  0.00    -0.056 A 
HETATM   11  C           1     -33.213  -3.038 -11.614  0.00  0.00     0.010 A 
HETATM   12  C           1     -32.980  -4.413 -11.594  0.00  0.00     0.037 A 
HETATM   13  C           1     -33.998  -5.287 -11.212  0.00  0.00     0.065 A 
HETATM   14  C           1     -35.249  -4.786 -10.852  0.00  0.00     0.037 A 
HETATM   15  C           1     -35.482  -3.411 -10.872  0.00  0.00     0.010 A 
BRANCH  13  16
HETATM   16  O           1     -33.772  -6.623 -11.194  0.00  0.00    -0.361 OA
HETATM   17  H           1     -32.810  -6.765 -11.200  0.00  0.00     0.217 HD
ENDBRANCH  13  16
ENDBRANCH   9  10
ENDBRANCH   5   9
ENDBRANCH   1   5
BRANCH   3  18
HETATM   18  C           1     -37.015   0.408 -15.295  0.00  0.00     0.275 C 
BRANCH  18  19
HETATM   19  C           1     -36.917  -0.618 -16.416  0.00  0.00     0.053 C 
BRANCH  19  20
HETATM   20  C           1     -35.454  -0.953 -16.673  0.00  0.00     0.076 C 
BRANCH  20  21
HETATM   21  S           1     -35.101  -2.629 -16.074  0.00  0.00    -0.173 SA
HETATM   22  C           1     -33.768  -2.987 -17.253  0.00  0.00     0.089 C 
ENDBRANCH  20  21
ENDBRANCH  19  20
ENDBRANCH  18  19
BRANCH  18  23
HETATM   23  N           1     -35.813   1.303 -15.331  0.00  0.00    -0.066 N 
HETATM   24  H           1     -35.033   0.820 -15.831  0.00  0.00     0.275 HD
HETATM   25  H           1     -36.052   2.188 -15.832  0.00  0.00     0.275 HD
HETATM   26  H           1     -35.514   1.526 -14.354  0.00  0.00     0.275 HD
ENDBRANCH  18  23
ENDBRANCH   3  18
TORSDOF 10
ENDMDL
MODEL 4
REMARK VINA RESULT:      -6.3      3.394      7.616
REMARK  10 active torsions:
REMARK  status: ('A' for Active; 'I' for Inactive)
REMARK    1  A    between atoms: C_7  and  C_19 
REMARK    2  A    between atoms: C_8  and  O_12 
REMARK    3  A    between atoms: N_9  and  C_18 
REMARK       I    between atoms: N_9  and  C_23 
REMARK    4  A    between atoms: C_10  and  C_20 
REMARK    5  A    between atoms: C_10  and  S_22 
REMARK    6  A    between atoms: C_15  and  C_23 
REMARK    7  A    between atoms: C_15  and  C_20 
REMARK    8  A    between atoms: C_15  and  N_26 
REMARK    9  A    between atoms: C_17  and  C_18 
REMARK   10  A    between atoms: C_18  and  C_19 
ROOT
HETATM    1  N           1     -20.359  -6.730  -6.208  0.00  0.00    -0.344 N 
HETATM    2  H           1     -20.422  -7.203  -7.101  0.00  0.00     0.163 HD
HETATM    3  C           1     -20.455  -5.366  -6.148  0.00  0.00     0.249 C 
HETATM    4  O           1     -20.379  -4.801  -5.083  0.00  0.00    -0.271 OA
ENDROOT
BRANCH   1   5
HETATM    5  C           1     -20.165  -7.498  -4.994  0.00  0.00     0.189 C 
BRANCH   5   6
HETATM    6  C           1     -19.103  -8.545  -5.226  0.00  0.00     0.197 C 
HETATM    7  O           1     -18.762  -9.307  -4.295  0.00  0.00    -0.646 OA
HETATM    8  O           1     -18.563  -8.649  -6.348  0.00  0.00    -0.646 OA
ENDBRANCH   5   6
BRANCH   5   9
HETATM    9  C           1     -21.473  -8.177  -4.610  0.00  0.00     0.074 C 
BRANCH   9  10
HETATM   10  C           1     -21.692  -8.043  -3.135  0.00  0.00    -0.056 A 
HETATM   11  C           1     -21.941  -6.789  -2.579  0.00  0.00     0.010 A 
HETATM   12  C           1     -22.144  -6.663  -1.204  0.00  0.00     0.037 A 
HETATM   13  C           1     -22.098  -7.792  -0.386  0.00  0.00     0.065 A 
HETATM   14  C           1     -21.848  -9.046  -0.943  0.00  0.00     0.037 A 
HETATM   15  C           1     -21.645  -9.172  -2.318  0.00  0.00     0.010 A 
BRANCH  13  16
HETATM   16  O           1     -22.295  -7.670   0.948  0.00  0.00    -0.361 OA
HETATM   17  H           1     -22.957  -8.330   1.216  0.00  0.00     0.217 HD
ENDBRANCH  13  16
ENDBRANCH   9  10
ENDBRANCH   5   9
ENDBRANCH   1   5
BRANCH   3  18
HETATM   18  C           1     -20.656  -4.567  -7.413  0.00  0.00     0.275 C 
BRANCH  18  19
HETATM   19  C           1     -22.146  -4.427  -7.693  0.00  0.00     0.053 C 
BRANCH  19  20
HETATM   20  C           1     -22.349  -3.746  -9.040  0.00  0.00     0.076 C 
BRANCH  20  21
HETATM   21  S           1     -24.119  -3.690  -9.432  0.00  0.00    -0.173 SA
HETATM   22  C           1     -23.923  -3.267 -11.186  0.00  0.00     0.089 C 
ENDBRANCH  20  21
ENDBRANCH  19  20
ENDBRANCH  18  19
BRANCH  18  23
HETATM   23  N           1     -19.996  -5.273  -8.559  0.00  0.00    -0.066 N 
HETATM   24  H           1     -19.602  -4.568  -9.222  0.00  0.00     0.275 HD
HETATM   25  H           1     -19.226  -5.880  -8.198  0.00  0.00     0.275 HD
HETATM   26  H           1     -20.701  -5.863  -9.057  0.00  0.00     0.275 HD
ENDBRANCH  18  23
ENDBRANCH   3  18
TORSDOF 10
ENDMDL
MODEL 5
REMARK VINA RESULT:      -6.2     13.537     15.627
REMARK  10 active torsions:
REMARK  status: ('A' for Active; 'I' for Inactive)
REMARK    1  A    between atoms: C_7  and  C_19 
REMARK    2  A    between atoms: C_8  and  O_12 
REMARK    3  A    between atoms: N_9  and  C_18 
REMARK       I    between atoms: N_9  and  C_23 
REMARK    4  A    between atoms: C_10  and  C_20 
REMARK    5  A    between atoms: C_10  and  S_22 
REMARK    6  A    between atoms: C_15  and  C_23 
REMARK    7  A    between atoms: C_15  and  C_20 
REMARK    8  A    between atoms: C_15  and  N_26 
REMARK    9  A    between atoms: C_17  and  C_18 
REMARK   10  A    between atoms: C_18  and  C_19 
ROOT
HETATM    1  N           1     -33.516  -3.812 -14.375  0.00  0.00    -0.344 N 
HETATM    2  H           1     -32.638  -3.313 -14.440  0.00  0.00     0.163 HD
HETATM    3  C           1     -34.007  -4.479 -15.464  0.00  0.00     0.249 C 
HETATM    4  O           1     -35.055  -5.075 -15.386  0.00  0.00    -0.271 OA
ENDROOT
BRANCH   1   5
HETATM    5  C           1     -34.252  -3.820 -13.126  0.00  0.00     0.189 C 
BRANCH   5   6
HETATM    6  C           1     -34.997  -2.516 -12.974  0.00  0.00     0.197 C 
HETATM    7  O           1     -34.871  -1.619 -13.836  0.00  0.00    -0.646 OA
HETATM    8  O           1     -35.741  -2.333 -11.986  0.00  0.00    -0.646 OA
ENDBRANCH   5   6
BRANCH   5   9
HETATM    9  C           1     -33.281  -3.989 -11.965  0.00  0.00     0.074 C 
BRANCH   9  10
HETATM   10  C           1     -33.594  -5.256 -11.232  0.00  0.00    -0.056 A 
HETATM   11  C           1     -32.679  -6.308 -11.235  0.00  0.00     0.010 A 
HETATM   12  C           1     -32.970  -7.489 -10.552  0.00  0.00     0.037 A 
HETATM   13  C           1     -34.179  -7.618  -9.866  0.00  0.00     0.065 A 
HETATM   14  C           1     -35.095  -6.566  -9.865  0.00  0.00     0.037 A 
HETATM   15  C           1     -34.803  -5.385 -10.547  0.00  0.00     0.010 A 
BRANCH  13  16
HETATM   16  O           1     -34.462  -8.765  -9.204  0.00  0.00    -0.361 OA
HETATM   17  H           1     -35.360  -9.042  -9.455  0.00  0.00     0.217 HD
ENDBRANCH  13  16
ENDBRANCH   9  10
ENDBRANCH   5   9
ENDBRANCH   1   5
BRANCH   3  18
HETATM   18  C           1     -33.239  -4.470 -16.764  0.00  0.00     0.275 C 
BRANCH  18  19
HETATM   19  C           1     -31.800  -4.899 -16.506  0.00  0.00     0.053 C 
BRANCH  19  20
HETATM   20  C           1     -31.541  -6.240 -17.179  0.00  0.00     0.076 C 
BRANCH  20  21
HETATM   21  S           1     -29.790  -6.360 -17.639  0.00  0.00    -0.173 SA
HETATM   22  C           1     -29.943  -7.885 -18.612  0.00  0.00     0.089 C 
ENDBRANCH  20  21
ENDBRANCH  19  20
ENDBRANCH  18  19
BRANCH  18  23
HETATM   23  N           1     -33.253  -3.087 -17.342  0.00  0.00    -0.066 N 
HETATM   24  H           1     -33.772  -3.093 -18.248  0.00  0.00     0.275 HD
HETATM   25  H           1     -33.723  -2.435 -16.675  0.00  0.00     0.275 HD
HETATM   26  H           1     -32.270  -2.769 -17.506  0.00  0.00     0.275 HD
ENDBRANCH  18  23
ENDBRANCH   3  18
TORSDOF 10
ENDMDL
MODEL 6
REMARK VINA RESULT:      -6.0      2.037      2.879
REMARK  10 active torsions:
REMARK  status: ('A' for Active; 'I' for Inactive)
REMARK    1  A    between atoms: C_7  and  C_19 
REMARK    2  A    between atoms: C_8  and  O_12 
REMARK    3  A    between atoms: N_9  and  C_18 
REMARK       I    between atoms: N_9  and  C_23 
REMARK    4  A    between atoms: C_10  and  C_20 
REMARK    5  A    between atoms: C_10  and  S_22 
REMARK    6  A    between atoms: C_15  and  C_23 
REMARK    7  A    between atoms: C_15  and  C_20 
REMARK    8  A    between atoms: C_15  and  N_26 
REMARK    9  A    between atoms: C_17  and  C_18 
REMARK   10  A    between atoms: C_18  and  C_19 
ROOT
HETATM    1  N           1     -21.035  -7.374  -3.202  0.00  0.00    -0.344 N 
HETATM    2  H           1     -20.342  -8.077  -2.979  0.00  0.00     0.163 HD
HETATM    3  C           1     -21.821  -6.849  -2.213  0.00  0.00     0.249 C 
HETATM    4  O           1     -22.648  -6.010  -2.480  0.00  0.00    -0.271 OA
ENDROOT
BRANCH   1   5
HETATM    5  C           1     -21.193  -6.923  -4.571  0.00  0.00     0.189 C 
BRANCH   5   6
HETATM    6  C           1     -20.651  -7.972  -5.511  0.00  0.00     0.197 C 
HETATM    7  O           1     -21.436  -8.689  -6.168  0.00  0.00    -0.646 OA
HETATM    8  O           1     -19.416  -8.123  -5.633  0.00  0.00    -0.646 OA
ENDBRANCH   5   6
BRANCH   5   9
HETATM    9  C           1     -20.429  -5.620  -4.768  0.00  0.00     0.074 C 
BRANCH   9  10
HETATM   10  C           1     -20.663  -5.108  -6.155  0.00  0.00    -0.056 A 
HETATM   11  C           1     -19.579  -4.771  -6.966  0.00  0.00     0.010 A 
HETATM   12  C           1     -19.796  -4.294  -8.258  0.00  0.00     0.037 A 
HETATM   13  C           1     -21.098  -4.154  -8.740  0.00  0.00     0.065 A 
HETATM   14  C           1     -22.182  -4.491  -7.929  0.00  0.00     0.037 A 
HETATM   15  C           1     -21.965  -4.968  -6.636  0.00  0.00     0.010 A 
BRANCH  13  16
HETATM   16  O           1     -21.309  -3.690  -9.995  0.00  0.00    -0.361 OA
HETATM   17  H           1     -21.908  -2.926  -9.937  0.00  0.00     0.217 HD
ENDBRANCH  13  16
ENDBRANCH   9  10
ENDBRANCH   5   9
ENDBRANCH   1   5
BRANCH   3  18
HETATM   18  C           1     -21.655  -7.319  -0.788  0.00  0.00     0.275 C 
BRANCH  18  19
HETATM   19  C           1     -20.815  -8.589  -0.767  0.00  0.00     0.053 C 
BRANCH  19  20
HETATM   20  C           1     -21.636  -9.732  -0.184  0.00  0.00     0.076 C 
BRANCH  20  21
HETATM   21  S           1     -21.956 -10.968  -1.473  0.00  0.00    -0.173 SA
HETATM   22  C           1     -23.737 -11.127  -1.160  0.00  0.00     0.089 C 
ENDBRANCH  20  21
ENDBRANCH  19  20
ENDBRANCH  18  19
BRANCH  18  23
HETATM   23  N           1     -23.004  -7.602  -0.197  0.00  0.00    -0.066 N 
HETATM   24  H           1     -23.743  -7.158  -0.787  0.00  0.00     0.275 HD
HETATM   25  H           1     -23.159  -8.634  -0.161  0.00  0.00     0.275 HD
HETATM   26  H           1     -23.049  -7.208   0.771  0.00  0.00     0.275 HD
ENDBRANCH  18  23
ENDBRANCH   3  18
TORSDOF 10
ENDMDL
MODEL 7
REMARK VINA RESULT:      -6.0      3.123      7.671
REMARK  10 active torsions:
REMARK  status: ('A' for Active; 'I' for Inactive)
REMARK    1  A    between atoms: C_7  and  C_19 
REMARK    2  A    between atoms: C_8  and  O_12 
REMARK    3  A    between atoms: N_9  and  C_18 
REMARK       I    between atoms: N_9  and  C_23 
REMARK    4  A    between atoms: C_10  and  C_20 
REMARK    5  A    between atoms: C_10  and  S_22 
REMARK    6  A    between atoms: C_15  and  C_23 
REMARK    7  A    between atoms: C_15  and  C_20 
REMARK    8  A    between atoms: C_15  and  N_26 
REMARK    9  A    between atoms: C_17  and  C_18 
REMARK   10  A    between atoms: C_18  and  C_19 
ROOT
HETATM    1  N           1     -20.723  -7.908  -4.452  0.00  0.00    -0.344 N 
HETATM    2  H           1     -21.536  -7.672  -3.897  0.00  0.00     0.163 HD
HETATM    3  C           1     -20.455  -7.217  -5.602  0.00  0.00     0.249 C 
HETATM    4  O           1     -19.485  -7.499  -6.264  0.00  0.00    -0.271 OA
ENDROOT
BRANCH   1   5
HETATM    5  C           1     -19.844  -8.980  -4.027  0.00  0.00     0.189 C 
BRANCH   5   6
HETATM    6  C           1     -20.594 -10.289  -4.065  0.00  0.00     0.197 C 
HETATM    7  O           1     -21.789 -10.315  -4.430  0.00  0.00    -0.646 OA
HETATM    8  O           1     -20.019 -11.348  -3.732  0.00  0.00    -0.646 OA
ENDBRANCH   5   6
BRANCH   5   9
HETATM    9  C           1     -19.363  -8.710  -2.607  0.00  0.00     0.074 C 
BRANCH   9  10
HETATM   10  C           1     -20.540  -8.428  -1.727  0.00  0.00    -0.056 A 
HETATM   11  C           1     -21.196  -7.200  -1.812  0.00  0.00     0.010 A 
HETATM   12  C           1     -22.293  -6.936  -0.991  0.00  0.00     0.037 A 
HETATM   13  C           1     -22.733  -7.901  -0.085  0.00  0.00     0.065 A 
HETATM   14  C           1     -22.076  -9.128   0.001  0.00  0.00     0.037 A 
HETATM   15  C           1     -20.979  -9.392  -0.819  0.00  0.00     0.010 A 
BRANCH  13  16
HETATM   16  O           1     -23.798  -7.645   0.713  0.00  0.00    -0.361 OA
HETATM   17  H           1     -23.504  -7.050   1.424  0.00  0.00     0.217 HD
ENDBRANCH  13  16
ENDBRANCH   9  10
ENDBRANCH   5   9
ENDBRANCH   1   5
BRANCH   3  18
HETATM   18  C           1     -21.370  -6.101  -6.043  0.00  0.00     0.275 C 
BRANCH  18  19
HETATM   19  C           1     -20.629  -4.773  -5.960  0.00  0.00     0.053 C 
BRANCH  19  20
HETATM   20  C           1     -21.168  -3.823  -7.021  0.00  0.00     0.076 C 
BRANCH  20  21
HETATM   21  S           1     -21.508  -4.746  -8.545  0.00  0.00    -0.173 SA
HETATM   22  C           1     -22.964  -3.782  -9.041  0.00  0.00     0.089 C 
ENDBRANCH  20  21
ENDBRANCH  19  20
ENDBRANCH  18  19
BRANCH  18  23
HETATM   23  N           1     -22.572  -6.059  -5.147  0.00  0.00    -0.066 N 
HETATM   24  H           1     -22.992  -5.102  -5.172  0.00  0.00     0.275 HD
HETATM   25  H           1     -23.276  -6.757  -5.476  0.00  0.00     0.275 HD
HETATM   26  H           1     -22.285  -6.287  -4.168  0.00  0.00     0.275 HD
ENDBRANCH  18  23
ENDBRANCH   3  18
TORSDOF 10
ENDMDL
MODEL 8
REMARK VINA RESULT:      -6.0      4.041      8.973
REMARK  10 active torsions:
REMARK  status: ('A' for Active; 'I' for Inactive)
REMARK    1  A    between atoms: C_7  and  C_19 
REMARK    2  A    between atoms: C_8  and  O_12 
REMARK    3  A    between atoms: N_9  and  C_18 
REMARK       I    between atoms: N_9  and  C_23 
REMARK    4  A    between atoms: C_10  and  C_20 
REMARK    5  A    between atoms: C_10  and  S_22 
REMARK    6  A    between atoms: C_15  and  C_23 
REMARK    7  A    between atoms: C_15  and  C_20 
REMARK    8  A    between atoms: C_15  and  N_26 
REMARK    9  A    between atoms: C_17  and  C_18 
REMARK   10  A    between atoms: C_18  and  C_19 
ROOT
HETATM    1  N           1     -20.820  -7.964  -2.435  0.00  0.00    -0.344 N 
HETATM    2  H           1     -20.032  -7.379  -2.188  0.00  0.00     0.163 HD
HETATM    3  C           1     -20.975  -8.395  -3.725  0.00  0.00     0.249 C 
HETATM    4  O           1     -21.916  -9.093  -4.020  0.00  0.00    -0.271 OA
ENDROOT
BRANCH   1   5
HETATM    5  C           1     -21.785  -8.344  -1.422  0.00  0.00     0.189 C 
BRANCH   5   6
HETATM    6  C           1     -22.480  -7.110  -0.902  0.00  0.00     0.197 C 
HETATM    7  O           1     -22.389  -6.030  -1.527  0.00  0.00    -0.646 OA
HETATM    8  O           1     -23.146  -7.166   0.154  0.00  0.00    -0.646 OA
ENDBRANCH   5   6
BRANCH   5   9
HETATM    9  C           1     -21.067  -9.045  -0.276  0.00  0.00     0.074 C 
BRANCH   9  10
HETATM   10  C           1     -21.751 -10.342   0.023  0.00  0.00    -0.056 A 
HETATM   11  C           1     -21.066 -11.353   0.697  0.00  0.00     0.010 A 
HETATM   12  C           1     -21.703 -12.562   0.976  0.00  0.00     0.037 A 
HETATM   13  C           1     -23.026 -12.761   0.579  0.00  0.00     0.065 A 
HETATM   14  C           1     -23.710 -11.751  -0.096  0.00  0.00     0.037 A 
HETATM   15  C           1     -23.074 -10.541  -0.374  0.00  0.00     0.010 A 
BRANCH  13  16
HETATM   16  O           1     -23.644 -13.936   0.849  0.00  0.00    -0.361 OA
HETATM   17  H           1     -23.494 -14.534   0.097  0.00  0.00     0.217 HD
ENDBRANCH  13  16
ENDBRANCH   9  10
ENDBRANCH   5   9
ENDBRANCH   1   5
BRANCH   3  18
HETATM   18  C           1     -19.970  -7.999  -4.779  0.00  0.00     0.275 C 
BRANCH  18  19
HETATM   19  C           1     -20.630  -7.062  -5.782  0.00  0.00     0.053 C 
BRANCH  19  20
HETATM   20  C           1     -20.748  -5.669  -5.177  0.00  0.00     0.076 C 
BRANCH  20  21
HETATM   21  S           1     -20.769  -4.431  -6.502  0.00  0.00    -0.173 SA
HETATM   22  C           1     -20.138  -5.524  -7.807  0.00  0.00     0.089 C 
ENDBRANCH  20  21
ENDBRANCH  19  20
ENDBRANCH  18  19
BRANCH  18  23
HETATM   23  N           1     -19.481  -9.226  -5.488  0.00  0.00    -0.066 N 
HETATM   24  H           1     -20.298  -9.800  -5.794  0.00  0.00     0.275 HD
HETATM   25  H           1     -18.920  -8.946  -6.323  0.00  0.00     0.275 HD
HETATM   26  H           1     -18.884  -9.788  -4.840  0.00  0.00     0.275 HD
ENDBRANCH  18  23
ENDBRANCH   3  18
TORSDOF 10
ENDMDL
MODEL 9
REMARK VINA RESULT:      -5.8      5.549      8.440
REMARK  10 active torsions:
REMARK  status: ('A' for Active; 'I' for Inactive)
REMARK    1  A    between atoms: C_7  and  C_19 
REMARK    2  A    between atoms: C_8  and  O_12 
REMARK    3  A    between atoms: N_9  and  C_18 
REMARK       I    between atoms: N_9  and  C_23 
REMARK    4  A    between atoms: C_10  and  C_20 
REMARK    5  A    between atoms: C_10  and  S_22 
REMARK    6  A    between atoms: C_15  and  C_23 
REMARK    7  A    between atoms: C_15  and  C_20 
REMARK    8  A    between atoms: C_15  and  N_26 
REMARK    9  A    between atoms: C_17  and  C_18 
REMARK   10  A    between atoms: C_18  and  C_19 
ROOT
HETATM    1  N           1     -20.450  -8.310  -2.760  0.00  0.00    -0.344 N 
HETATM    2  H           1     -19.587  -7.828  -2.539  0.00  0.00     0.163 HD
HETATM    3  C           1     -20.444  -9.351  -3.648  0.00  0.00     0.249 C 
HETATM    4  O           1     -21.474  -9.925  -3.913  0.00  0.00    -0.271 OA
ENDROOT
BRANCH   1   5
HETATM    5  C           1     -21.691  -7.894  -2.136  0.00  0.00     0.189 C 
BRANCH   5   6
HETATM    6  C           1     -21.965  -6.450  -2.477  0.00  0.00     0.197 C 
HETATM    7  O           1     -22.378  -5.667  -1.594  0.00  0.00    -0.646 OA
HETATM    8  O           1     -21.781  -6.036  -3.642  0.00  0.00    -0.646 OA
ENDBRANCH   5   6
BRANCH   5   9
HETATM    9  C           1     -21.575  -8.048  -0.625  0.00  0.00     0.074 C 
BRANCH   9  10
HETATM   10  C           1     -21.935  -9.447  -0.236  0.00  0.00    -0.056 A 
HETATM   11  C           1     -20.972 -10.283   0.329  0.00  0.00     0.010 A 
HETATM   12  C           1     -21.306 -11.588   0.692  0.00  0.00     0.037 A 
HETATM   13  C           1     -22.605 -12.057   0.489  0.00  0.00     0.065 A 
HETATM   14  C           1     -23.567 -11.221  -0.077  0.00  0.00     0.037 A 
HETATM   15  C           1     -23.233  -9.916  -0.440  0.00  0.00     0.010 A 
BRANCH  13  16
HETATM   16  O           1     -22.930 -13.324   0.840  0.00  0.00    -0.361 OA
HETATM   17  H           1     -23.864 -13.331   1.112  0.00  0.00     0.217 HD
ENDBRANCH  13  16
ENDBRANCH   9  10
ENDBRANCH   5   9
ENDBRANCH   1   5
BRANCH   3  18
HETATM   18  C           1     -19.152  -9.782  -4.298  0.00  0.00     0.275 C 
BRANCH  18  19
HETATM   19  C           1     -17.984  -9.439  -3.382  0.00  0.00     0.053 C 
BRANCH  19  20
HETATM   20  C           1     -17.727 -10.599  -2.429  0.00  0.00     0.076 C 
BRANCH  20  21
HETATM   21  S           1     -15.941 -10.882  -2.287  0.00  0.00    -0.173 SA
HETATM   22  C           1     -15.605 -10.941  -4.070  0.00  0.00     0.089 C 
ENDBRANCH  20  21
ENDBRANCH  19  20
ENDBRANCH  18  19
BRANCH  18  23
HETATM   23  N           1     -18.988  -9.067  -5.605  0.00  0.00    -0.066 N 
HETATM   24  H           1     -18.352  -8.249  -5.477  0.00  0.00     0.275 HD
HETATM   25  H           1     -18.578  -9.720  -6.310  0.00  0.00     0.275 HD
HETATM   26  H           1     -19.921  -8.734  -5.939  0.00  0.00     0.275 HD
ENDBRANCH  18  23
ENDBRANCH   3  18
TORSDOF 10
ENDMDL
