MODEL 1
REMARK VINA RESULT:      -5.4      0.000      0.000
REMARK  8 active torsions:
REMARK  status: ('A' for Active; 'I' for Inactive)
REMARK    1  A    between atoms: N_1  and  C_8 
REMARK       I    between atoms: N_1  and  C_14 
REMARK    2  A    between atoms: N_6  and  C_13 
REMARK    3  A    between atoms: C_8  and  C_16 
REMARK    4  A    between atoms: C_8  and  C_18 
REMARK    5  A    between atoms: C_12  and  C_13 
REMARK    6  A    between atoms: C_12  and  S_15 
REMARK    7  A    between atoms: C_13  and  C_14 
REMARK    8  A    between atoms: C_16  and  O_20 
ROOT
HETATM    1  N           1     -22.125  -4.788  -9.067  0.00  0.00    -0.343 N 
HETATM    2  O           1     -21.688  -3.420  -7.356  0.00  0.00    -0.271 OA
HETATM    3  H           1     -22.121  -5.731  -9.433  0.00  0.00     0.163 HD
HETATM    4  C           1     -21.683  -4.547  -7.793  0.00  0.00     0.249 C 
ENDROOT
BRANCH   1   5
HETATM    5  C           1     -22.599  -3.692  -9.889  0.00  0.00     0.214 C 
BRANCH   5   6
HETATM    6  C           1     -21.834  -3.679 -11.206  0.00  0.00     0.147 C 
HETATM    7  C           1     -20.426  -4.215 -10.980  0.00  0.00     0.042 C 
BRANCH   6   8
HETATM    8  O           1     -22.498  -4.488 -12.139  0.00  0.00    -0.393 OA
HETATM    9  H           1     -23.385  -4.174 -12.191  0.00  0.00     0.210 HD
ENDBRANCH   6   8
ENDBRANCH   5   6
BRANCH   5  10
HETATM   10  C           1     -24.072  -3.870 -10.164  0.00  0.00     0.199 C 
HETATM   11  O           1     -24.731  -2.934 -10.665  0.00  0.00    -0.646 OA
HETATM   12  O           1     -24.632  -4.953  -9.892  0.00  0.00    -0.646 OA
ENDBRANCH   5  10
ENDBRANCH   1   5
BRANCH   4  13
HETATM   13  C           1     -21.190  -5.687  -6.937  0.00  0.00     0.283 C 
BRANCH  13  14
HETATM   14  N           1     -19.936  -6.253  -7.534  0.00  0.00    -0.066 N 
HETATM   15  H           1     -19.881  -5.989  -8.544  0.00  0.00     0.275 HD
HETATM   16  H           1     -19.947  -7.294  -7.445  0.00  0.00     0.275 HD
HETATM   17  H           1     -19.106  -5.869  -7.029  0.00  0.00     0.275 HD
ENDBRANCH  13  14
BRANCH  13  18
HETATM   18  C           1     -20.898  -5.178  -5.532  0.00  0.00     0.113 C 
BRANCH  18  19
HETATM   19  S           1     -21.516  -6.372  -4.313  0.00  0.00    -0.180 SA
HETATM   20  H           1     -22.712  -5.783  -4.132  0.00  0.00     0.101 HD
ENDBRANCH  18  19
ENDBRANCH  13  18
ENDBRANCH   4  13
TORSDOF 8
ENDMDL
MODEL 2
REMARK VINA RESULT:      -5.1     10.370     11.940
REMARK  8 active torsions:
REMARK  status: ('A' for Active; 'I' for Inactive)
REMARK    1  A    between atoms: N_1  and  C_8 
REMARK       I    between atoms: N_1  and  C_14 
REMARK    2  A    between atoms: N_6  and  C_13 
REMARK    3  A    between atoms: C_8  and  C_16 
REMARK    4  A    between atoms: C_8  and  C_18 
REMARK    5  A    between atoms: C_12  and  C_13 
REMARK    6  A    between atoms: C_12  and  S_15 
REMARK    7  A    between atoms: C_13  and  C_14 
REMARK    8  A    between atoms: C_16  and  O_20 
ROOT
HETATM    1  N           1     -27.598  -6.812 -17.695  0.00  0.00    -0.343 N 
HETATM    2  O           1     -28.118  -5.398 -19.344  0.00  0.00    -0.271 OA
HETATM    3  H           1     -26.931  -7.464 -17.303  0.00  0.00     0.163 HD
HETATM    4  C           1     -27.322  -6.177 -18.876  0.00  0.00     0.249 C 
ENDROOT
BRANCH   1   5
HETATM    5  C           1     -28.847  -6.550 -17.006  0.00  0.00     0.214 C 
BRANCH   5   6
HETATM    6  C           1     -29.850  -7.645 -17.341  0.00  0.00     0.147 C 
HETATM    7  C           1     -31.225  -7.026 -17.555  0.00  0.00     0.042 C 
BRANCH   6   8
HETATM    8  O           1     -29.447  -8.305 -18.511  0.00  0.00    -0.393 OA
HETATM    9  H           1     -29.055  -9.120 -18.245  0.00  0.00     0.210 HD
ENDBRANCH   6   8
ENDBRANCH   5   6
BRANCH   5  10
HETATM   10  C           1     -28.604  -6.527 -15.517  0.00  0.00     0.199 C 
HETATM   11  O           1     -27.932  -7.433 -14.979  0.00  0.00    -0.646 OA
HETATM   12  O           1     -29.075  -5.601 -14.822  0.00  0.00    -0.646 OA
ENDBRANCH   5  10
ENDBRANCH   1   5
BRANCH   4  13
HETATM   13  C           1     -26.022  -6.449 -19.593  0.00  0.00     0.283 C 
BRANCH  13  14
HETATM   14  N           1     -25.025  -7.009 -18.622  0.00  0.00    -0.066 N 
HETATM   15  H           1     -24.185  -7.348 -19.144  0.00  0.00     0.275 HD
HETATM   16  H           1     -25.457  -7.805 -18.100  0.00  0.00     0.275 HD
HETATM   17  H           1     -24.738  -6.264 -17.949  0.00  0.00     0.275 HD
ENDBRANCH  13  14
BRANCH  13  18
HETATM   18  C           1     -26.260  -7.454 -20.712  0.00  0.00     0.113 C 
BRANCH  18  19
HETATM   19  S           1     -24.674  -7.905 -21.471  0.00  0.00    -0.180 SA
HETATM   20  H           1     -24.914  -9.227 -21.525  0.00  0.00     0.101 HD
ENDBRANCH  18  19
ENDBRANCH  13  18
ENDBRANCH   4  13
TORSDOF 8
ENDMDL
MODEL 3
REMARK VINA RESULT:      -4.8      2.051      2.214
REMARK  8 active torsions:
REMARK  status: ('A' for Active; 'I' for Inactive)
REMARK    1  A    between atoms: N_1  and  C_8 
REMARK       I    between atoms: N_1  and  C_14 
REMARK    2  A    between atoms: N_6  and  C_13 
REMARK    3  A    between atoms: C_8  and  C_16 
REMARK    4  A    between atoms: C_8  and  C_18 
REMARK    5  A    between atoms: C_12  and  C_13 
REMARK    6  A    between atoms: C_12  and  S_15 
REMARK    7  A    between atoms: C_13  and  C_14 
REMARK    8  A    between atoms: C_16  and  O_20 
ROOT
HETATM    1  N           1     -22.467  -3.726  -9.956  0.00  0.00    -0.343 N 
HETATM    2  O           1     -24.317  -3.144  -8.848  0.00  0.00    -0.271 OA
HETATM    3  H           1     -21.555  -4.163  -9.932  0.00  0.00     0.163 HD
HETATM    4  C           1     -23.228  -3.666  -8.819  0.00  0.00     0.249 C 
ENDROOT
BRANCH   1   5
HETATM    5  C           1     -22.969  -3.162 -11.194  0.00  0.00     0.214 C 
BRANCH   5   6
HETATM    6  C           1     -21.798  -2.797 -12.096  0.00  0.00     0.147 C 
HETATM    7  C           1     -20.491  -3.157 -11.401  0.00  0.00     0.042 C 
BRANCH   6   8
HETATM    8  O           1     -21.898  -3.506 -13.301  0.00  0.00    -0.393 OA
HETATM    9  H           1     -22.473  -4.235 -13.143  0.00  0.00     0.210 HD
ENDBRANCH   6   8
ENDBRANCH   5   6
BRANCH   5  10
HETATM   10  C           1     -23.844  -4.176 -11.890  0.00  0.00     0.199 C 
HETATM   11  O           1     -24.743  -3.795 -12.669  0.00  0.00    -0.646 OA
HETATM   12  O           1     -23.667  -5.397 -11.688  0.00  0.00    -0.646 OA
ENDBRANCH   5  10
ENDBRANCH   1   5
BRANCH   4  13
HETATM   13  C           1     -22.706  -4.253  -7.530  0.00  0.00     0.283 C 
BRANCH  13  14
HETATM   14  N           1     -23.846  -4.840  -6.752  0.00  0.00    -0.066 N 
HETATM   15  H           1     -23.949  -4.328  -5.846  0.00  0.00     0.275 HD
HETATM   16  H           1     -23.655  -5.850  -6.563  0.00  0.00     0.275 HD
HETATM   17  H           1     -24.729  -4.749  -7.304  0.00  0.00     0.275 HD
ENDBRANCH  13  14
BRANCH  13  18
HETATM   18  C           1     -21.691  -5.345  -7.844  0.00  0.00     0.113 C 
BRANCH  18  19
HETATM   19  S           1     -20.874  -5.872  -6.311  0.00  0.00    -0.180 SA
HETATM   20  H           1     -21.518  -7.049  -6.206  0.00  0.00     0.101 HD
ENDBRANCH  18  19
ENDBRANCH  13  18
ENDBRANCH   4  13
TORSDOF 8
ENDMDL
MODEL 4
REMARK VINA RESULT:      -4.8      3.352      5.168
REMARK  8 active torsions:
REMARK  status: ('A' for Active; 'I' for Inactive)
REMARK    1  A    between atoms: N_1  and  C_8 
REMARK       I    between atoms: N_1  and  C_14 
REMARK    2  A    between atoms: N_6  and  C_13 
REMARK    3  A    between atoms: C_8  and  C_16 
REMARK    4  A    between atoms: C_8  and  C_18 
REMARK    5  A    between atoms: C_12  and  C_13 
REMARK    6  A    between atoms: C_12  and  S_15 
REMARK    7  A    between atoms: C_13  and  C_14 
REMARK    8  A    between atoms: C_16  and  O_20 
ROOT
HETATM    1  N           1     -21.364  -4.149  -9.443  0.00  0.00    -0.343 N 
HETATM    2  O           1     -23.351  -4.736 -10.278  0.00  0.00    -0.271 OA
HETATM    3  H           1     -20.523  -3.594  -9.539  0.00  0.00     0.163 HD
HETATM    4  C           1     -22.347  -4.073 -10.393  0.00  0.00     0.249 C 
ENDROOT
BRANCH   1   5
HETATM    5  C           1     -21.528  -5.024  -8.298  0.00  0.00     0.214 C 
BRANCH   5   6
HETATM    6  C           1     -20.164  -5.530  -7.847  0.00  0.00     0.147 C 
HETATM    7  C           1     -19.134  -4.420  -8.006  0.00  0.00     0.042 C 
BRANCH   6   8
HETATM    8  O           1     -20.232  -5.917  -6.501  0.00  0.00    -0.393 OA
HETATM    9  H           1     -19.526  -5.482  -6.056  0.00  0.00     0.210 HD
ENDBRANCH   6   8
ENDBRANCH   5   6
BRANCH   5  10
HETATM   10  C           1     -22.180  -4.261  -7.171  0.00  0.00     0.199 C 
HETATM   11  O           1     -21.694  -3.175  -6.789  0.00  0.00    -0.646 OA
HETATM   12  O           1     -23.207  -4.715  -6.622  0.00  0.00    -0.646 OA
ENDBRANCH   5  10
ENDBRANCH   1   5
BRANCH   4  13
HETATM   13  C           1     -22.176  -3.163 -11.584  0.00  0.00     0.283 C 
BRANCH  13  14
HETATM   14  N           1     -21.326  -3.844 -12.615  0.00  0.00    -0.066 N 
HETATM   15  H           1     -20.471  -3.269 -12.796  0.00  0.00     0.275 HD
HETATM   16  H           1     -21.870  -3.948 -13.501  0.00  0.00     0.275 HD
HETATM   17  H           1     -21.042  -4.787 -12.266  0.00  0.00     0.275 HD
ENDBRANCH  13  14
BRANCH  13  18
HETATM   18  C           1     -23.541  -2.846 -12.181  0.00  0.00     0.113 C 
BRANCH  18  19
HETATM   19  S           1     -23.378  -2.601 -13.972  0.00  0.00    -0.180 SA
HETATM   20  H           1     -22.988  -3.858 -14.251  0.00  0.00     0.101 HD
ENDBRANCH  18  19
ENDBRANCH  13  18
ENDBRANCH   4  13
TORSDOF 8
ENDMDL
MODEL 5
REMARK VINA RESULT:      -4.6      1.904      2.634
REMARK  8 active torsions:
REMARK  status: ('A' for Active; 'I' for Inactive)
REMARK    1  A    between atoms: N_1  and  C_8 
REMARK       I    between atoms: N_1  and  C_14 
REMARK    2  A    between atoms: N_6  and  C_13 
REMARK    3  A    between atoms: C_8  and  C_16 
REMARK    4  A    between atoms: C_8  and  C_18 
REMARK    5  A    between atoms: C_12  and  C_13 
REMARK    6  A    between atoms: C_12  and  S_15 
REMARK    7  A    between atoms: C_13  and  C_14 
REMARK    8  A    between atoms: C_16  and  O_20 
ROOT
HETATM    1  N           1     -22.495  -4.177  -9.399  0.00  0.00    -0.343 N 
HETATM    2  O           1     -20.805  -5.403  -8.607  0.00  0.00    -0.271 OA
HETATM    3  H           1     -23.271  -3.558  -9.203  0.00  0.00     0.163 HD
HETATM    4  C           1     -21.732  -4.664  -8.372  0.00  0.00     0.249 C 
ENDROOT
BRANCH   1   5
HETATM    5  C           1     -22.191  -4.547 -10.768  0.00  0.00     0.214 C 
BRANCH   5   6
HETATM    6  C           1     -23.455  -4.452 -11.611  0.00  0.00     0.147 C 
HETATM    7  C           1     -24.403  -3.434 -10.991  0.00  0.00     0.042 C 
BRANCH   6   8
HETATM    8  O           1     -23.119  -4.048 -12.911  0.00  0.00    -0.393 OA
HETATM    9  H           1     -23.001  -4.832 -13.420  0.00  0.00     0.210 HD
ENDBRANCH   6   8
ENDBRANCH   5   6
BRANCH   5  10
HETATM   10  C           1     -21.144  -3.611 -11.321  0.00  0.00     0.199 C 
HETATM   11  O           1     -21.435  -2.420 -11.561  0.00  0.00    -0.646 OA
HETATM   12  O           1     -19.986  -4.028 -11.538  0.00  0.00    -0.646 OA
ENDBRANCH   5  10
ENDBRANCH   1   5
BRANCH   4  13
HETATM   13  C           1     -22.048  -4.279  -6.948  0.00  0.00     0.283 C 
BRANCH  13  14
HETATM   14  N           1     -23.480  -4.611  -6.648  0.00  0.00    -0.066 N 
HETATM   15  H           1     -23.725  -5.526  -7.089  0.00  0.00     0.275 HD
HETATM   16  H           1     -24.099  -3.861  -7.031  0.00  0.00     0.275 HD
HETATM   17  H           1     -23.612  -4.678  -5.613  0.00  0.00     0.275 HD
ENDBRANCH  13  14
BRANCH  13  18
HETATM   18  C           1     -21.140  -5.049  -5.999  0.00  0.00     0.113 C 
BRANCH  18  19
HETATM   19  S           1     -22.080  -6.387  -5.211  0.00  0.00    -0.180 SA
HETATM   20  H           1     -21.456  -6.315  -4.021  0.00  0.00     0.101 HD
ENDBRANCH  18  19
ENDBRANCH  13  18
ENDBRANCH   4  13
TORSDOF 8
ENDMDL
MODEL 6
REMARK VINA RESULT:      -4.6     18.641     19.746
REMARK  8 active torsions:
REMARK  status: ('A' for Active; 'I' for Inactive)
REMARK    1  A    between atoms: N_1  and  C_8 
REMARK       I    between atoms: N_1  and  C_14 
REMARK    2  A    between atoms: N_6  and  C_13 
REMARK    3  A    between atoms: C_8  and  C_16 
REMARK    4  A    between atoms: C_8  and  C_18 
REMARK    5  A    between atoms: C_12  and  C_13 
REMARK    6  A    between atoms: C_12  and  S_15 
REMARK    7  A    between atoms: C_13  and  C_14 
REMARK    8  A    between atoms: C_16  and  O_20 
ROOT
HETATM    1  N           1     -12.224   6.712 -20.593  0.00  0.00    -0.343 N 
HETATM    2  O           1     -11.791   6.134 -22.706  0.00  0.00    -0.271 OA
HETATM    3  H           1     -12.885   6.731 -19.828  0.00  0.00     0.163 HD
HETATM    4  C           1     -12.581   6.157 -21.792  0.00  0.00     0.249 C 
ENDROOT
BRANCH   1   5
HETATM    5  C           1     -10.897   7.271 -20.419  0.00  0.00     0.214 C 
BRANCH   5   6
HETATM    6  C           1     -10.997   8.583 -19.653  0.00  0.00     0.147 C 
HETATM    7  C           1     -12.462   8.919 -19.410  0.00  0.00     0.042 C 
BRANCH   6   8
HETATM    8  O           1     -10.335   8.457 -18.423  0.00  0.00    -0.393 OA
HETATM    9  H           1      -9.422   8.327 -18.615  0.00  0.00     0.210 HD
ENDBRANCH   6   8
ENDBRANCH   5   6
BRANCH   5  10
HETATM   10  C           1     -10.040   6.299 -19.645  0.00  0.00     0.199 C 
HETATM   11  O           1     -10.531   5.650 -18.697  0.00  0.00    -0.646 OA
HETATM   12  O           1      -8.839   6.145 -19.953  0.00  0.00    -0.646 OA
ENDBRANCH   5  10
ENDBRANCH   1   5
BRANCH   4  13
HETATM   13  C           1     -13.962   5.575 -21.973  0.00  0.00     0.283 C 
BRANCH  13  14
HETATM   14  N           1     -14.755   6.450 -22.899  0.00  0.00    -0.066 N 
HETATM   15  H           1     -14.781   7.424 -22.520  0.00  0.00     0.275 HD
HETATM   16  H           1     -15.728   6.079 -22.979  0.00  0.00     0.275 HD
HETATM   17  H           1     -14.305   6.457 -23.842  0.00  0.00     0.275 HD
ENDBRANCH  13  14
BRANCH  13  18
HETATM   18  C           1     -13.850   4.178 -22.568  0.00  0.00     0.113 C 
BRANCH  18  19
HETATM   19  S           1     -13.186   3.038 -21.321  0.00  0.00    -0.180 SA
HETATM   20  H           1     -12.000   2.843 -21.925  0.00  0.00     0.101 HD
ENDBRANCH  18  19
ENDBRANCH  13  18
ENDBRANCH   4  13
TORSDOF 8
ENDMDL
MODEL 7
REMARK VINA RESULT:      -4.6     17.775     19.035
REMARK  8 active torsions:
REMARK  status: ('A' for Active; 'I' for Inactive)
REMARK    1  A    between atoms: N_1  and  C_8 
REMARK       I    between atoms: N_1  and  C_14 
REMARK    2  A    between atoms: N_6  and  C_13 
REMARK    3  A    between atoms: C_8  and  C_16 
REMARK    4  A    between atoms: C_8  and  C_18 
REMARK    5  A    between atoms: C_12  and  C_13 
REMARK    6  A    between atoms: C_12  and  S_15 
REMARK    7  A    between atoms: C_13  and  C_14 
REMARK    8  A    between atoms: C_16  and  O_20 
ROOT
HETATM    1  N           1     -12.003   5.404 -20.693  0.00  0.00    -0.343 N 
HETATM    2  O           1     -12.220   7.478 -21.493  0.00  0.00    -0.271 OA
HETATM    3  H           1     -11.526   4.774 -20.062  0.00  0.00     0.163 HD
HETATM    4  C           1     -11.650   6.726 -20.739  0.00  0.00     0.249 C 
ENDROOT
BRANCH   1   5
HETATM    5  C           1     -13.062   4.907 -21.551  0.00  0.00     0.214 C 
BRANCH   5   6
HETATM    6  C           1     -12.744   3.479 -21.973  0.00  0.00     0.147 C 
HETATM    7  C           1     -11.782   2.856 -20.970  0.00  0.00     0.042 C 
BRANCH   6   8
HETATM    8  O           1     -13.928   2.730 -22.014  0.00  0.00    -0.393 OA
HETATM    9  H           1     -14.634   3.340 -22.148  0.00  0.00     0.210 HD
ENDBRANCH   6   8
ENDBRANCH   5   6
BRANCH   5  10
HETATM   10  C           1     -14.370   4.930 -20.799  0.00  0.00     0.199 C 
HETATM   11  O           1     -14.404   4.603 -19.593  0.00  0.00    -0.646 OA
HETATM   12  O           1     -15.419   5.278 -21.382  0.00  0.00    -0.646 OA
ENDBRANCH   5  10
ENDBRANCH   1   5
BRANCH   4  13
HETATM   13  C           1     -10.548   7.243 -19.846  0.00  0.00     0.283 C 
BRANCH  13  14
HETATM   14  N           1      -9.263   6.546 -20.185  0.00  0.00    -0.066 N 
HETATM   15  H           1      -8.492   6.933 -19.595  0.00  0.00     0.275 HD
HETATM   16  H           1      -9.041   6.698 -21.194  0.00  0.00     0.275 HD
HETATM   17  H           1      -9.363   5.523 -19.999  0.00  0.00     0.275 HD
ENDBRANCH  13  14
BRANCH  13  18
HETATM   18  C           1     -10.383   8.742 -20.060  0.00  0.00     0.113 C 
BRANCH  18  19
HETATM   19  S           1      -9.029   9.043 -21.231  0.00  0.00    -0.180 SA
HETATM   20  H           1      -8.807  10.318 -20.865  0.00  0.00     0.101 HD
ENDBRANCH  18  19
ENDBRANCH  13  18
ENDBRANCH   4  13
TORSDOF 8
ENDMDL
MODEL 8
REMARK VINA RESULT:      -4.6      3.159      5.129
REMARK  8 active torsions:
REMARK  status: ('A' for Active; 'I' for Inactive)
REMARK    1  A    between atoms: N_1  and  C_8 
REMARK       I    between atoms: N_1  and  C_14 
REMARK    2  A    between atoms: N_6  and  C_13 
REMARK    3  A    between atoms: C_8  and  C_16 
REMARK    4  A    between atoms: C_8  and  C_18 
REMARK    5  A    between atoms: C_12  and  C_13 
REMARK    6  A    between atoms: C_12  and  S_15 
REMARK    7  A    between atoms: C_13  and  C_14 
REMARK    8  A    between atoms: C_16  and  O_20 
ROOT
HETATM    1  N           1     -22.624  -4.716  -8.191  0.00  0.00    -0.343 N 
HETATM    2  O           1     -21.747  -4.761 -10.244  0.00  0.00    -0.271 OA
HETATM    3  H           1     -23.423  -4.514  -7.604  0.00  0.00     0.163 HD
HETATM    4  C           1     -22.701  -4.519  -9.543  0.00  0.00     0.249 C 
ENDROOT
BRANCH   1   5
HETATM    5  C           1     -21.398  -5.215  -7.600  0.00  0.00     0.214 C 
BRANCH   5   6
HETATM    6  C           1     -20.580  -4.047  -7.066  0.00  0.00     0.147 C 
HETATM    7  C           1     -19.376  -3.816  -7.970  0.00  0.00     0.042 C 
BRANCH   6   8
HETATM    8  O           1     -21.376  -2.892  -7.043  0.00  0.00    -0.393 OA
HETATM    9  H           1     -21.758  -2.841  -6.183  0.00  0.00     0.210 HD
ENDBRANCH   6   8
ENDBRANCH   5   6
BRANCH   5  10
HETATM   10  C           1     -21.732  -6.155  -6.467  0.00  0.00     0.199 C 
HETATM   11  O           1     -21.197  -7.284  -6.414  0.00  0.00    -0.646 OA
HETATM   12  O           1     -22.541  -5.804  -5.582  0.00  0.00    -0.646 OA
ENDBRANCH   5  10
ENDBRANCH   1   5
BRANCH   4  13
HETATM   13  C           1     -23.977  -4.000 -10.159  0.00  0.00     0.283 C 
BRANCH  13  14
HETATM   14  N           1     -24.809  -3.340  -9.099  0.00  0.00    -0.066 N 
HETATM   15  H           1     -24.188  -2.796  -8.458  0.00  0.00     0.275 HD
HETATM   16  H           1     -25.321  -4.070  -8.554  0.00  0.00     0.275 HD
HETATM   17  H           1     -25.496  -2.693  -9.548  0.00  0.00     0.275 HD
ENDBRANCH  13  14
BRANCH  13  18
HETATM   18  C           1     -23.642  -2.986 -11.245  0.00  0.00     0.113 C 
BRANCH  18  19
HETATM   19  S           1     -24.052  -3.680 -12.871  0.00  0.00    -0.180 SA
HETATM   20  H           1     -23.030  -3.107 -13.531  0.00  0.00     0.101 HD
ENDBRANCH  18  19
ENDBRANCH  13  18
ENDBRANCH   4  13
TORSDOF 8
ENDMDL
MODEL 9
REMARK VINA RESULT:      -4.4      3.133      5.444
REMARK  8 active torsions:
REMARK  status: ('A' for Active; 'I' for Inactive)
REMARK    1  A    between atoms: N_1  and  C_8 
REMARK       I    between atoms: N_1  and  C_14 
REMARK    2  A    between atoms: N_6  and  C_13 
REMARK    3  A    between atoms: C_8  and  C_16 
REMARK    4  A    between atoms: C_8  and  C_18 
REMARK    5  A    between atoms: C_12  and  C_13 
REMARK    6  A    between atoms: C_12  and  S_15 
REMARK    7  A    between atoms: C_13  and  C_14 
REMARK    8  A    between atoms: C_16  and  O_20 
ROOT
HETATM    1  N           1     -22.279  -4.856  -8.124  0.00  0.00    -0.343 N 
HETATM    2  O           1     -21.982  -3.333  -9.730  0.00  0.00    -0.271 OA
HETATM    3  H           1     -22.801  -5.652  -7.784  0.00  0.00     0.163 HD
HETATM    4  C           1     -22.606  -4.284  -9.324  0.00  0.00     0.249 C 
ENDROOT
BRANCH   1   5
HETATM    5  C           1     -21.183  -4.319  -7.340  0.00  0.00     0.214 C 
BRANCH   5   6
HETATM    6  C           1     -21.385  -4.678  -5.874  0.00  0.00     0.147 C 
HETATM    7  C           1     -22.206  -5.957  -5.774  0.00  0.00     0.042 C 
BRANCH   6   8
HETATM    8  O           1     -20.136  -4.875  -5.266  0.00  0.00    -0.393 OA
HETATM    9  H           1     -19.883  -4.050  -4.888  0.00  0.00     0.210 HD
ENDBRANCH   6   8
ENDBRANCH   5   6
BRANCH   5  10
HETATM   10  C           1     -19.881  -4.905  -7.828  0.00  0.00     0.199 C 
HETATM   11  O           1     -19.795  -6.130  -8.059  0.00  0.00    -0.646 OA
HETATM   12  O           1     -18.890  -4.164  -8.003  0.00  0.00    -0.646 OA
ENDBRANCH   5  10
ENDBRANCH   1   5
BRANCH   4  13
HETATM   13  C           1     -23.746  -4.843 -10.140  0.00  0.00     0.283 C 
BRANCH  13  14
HETATM   14  N           1     -25.013  -4.122  -9.786  0.00  0.00    -0.066 N 
HETATM   15  H           1     -24.810  -3.105  -9.658  0.00  0.00     0.275 HD
HETATM   16  H           1     -25.401  -4.516  -8.899  0.00  0.00     0.275 HD
HETATM   17  H           1     -25.709  -4.243 -10.556  0.00  0.00     0.275 HD
ENDBRANCH  13  14
BRANCH  13  18
HETATM   18  C           1     -23.451  -4.653 -11.622  0.00  0.00     0.113 C 
BRANCH  18  19
HETATM   19  S           1     -24.346  -3.198 -12.237  0.00  0.00    -0.180 SA
HETATM   20  H           1     -24.604  -3.698 -13.459  0.00  0.00     0.101 HD
ENDBRANCH  18  19
ENDBRANCH  13  18
ENDBRANCH   4  13
TORSDOF 8
ENDMDL
