MODEL 1
REMARK VINA RESULT:      -5.3      0.000      0.000
REMARK  9 active torsions:
REMARK  status: ('A' for Active; 'I' for Inactive)
REMARK    1  A    between atoms: C_1  and  C_2 
REMARK    2  A    between atoms: C_2  and  C_3 
REMARK    3  A    between atoms: C_2  and  N_12 
REMARK    4  A    between atoms: C_3  and  C_15 
REMARK    5  A    between atoms: S_4  and  C_15 
REMARK    6  A    between atoms: N_7  and  C_10 
REMARK    7  A    between atoms: S_8  and  C_9 
REMARK    8  A    between atoms: C_9  and  C_10 
REMARK    9  A    between atoms: C_10  and  C_11 
REMARK       I    between atoms: C_11  and  N_12 
ROOT
HETATM    1  C           1     -21.605  -4.615  -7.584  0.00  0.00     0.249 C 
HETATM    2  N           1     -22.184  -4.904  -8.791  0.00  0.00    -0.345 N 
HETATM    3  O           1     -21.514  -3.467  -7.218  0.00  0.00    -0.271 OA
HETATM    4  H           1     -22.260  -5.866  -9.098  0.00  0.00     0.163 HD
ENDROOT
BRANCH   1   5
HETATM    5  C           1     -21.082  -5.729  -6.711  0.00  0.00     0.283 C 
BRANCH   5   6
HETATM    6  N           1     -19.859  -6.325  -7.342  0.00  0.00    -0.066 N 
HETATM    7  H           1     -19.067  -6.296  -6.662  0.00  0.00     0.275 HD
HETATM    8  H           1     -20.053  -7.317  -7.608  0.00  0.00     0.275 HD
HETATM    9  H           1     -19.606  -5.777  -8.195  0.00  0.00     0.275 HD
ENDBRANCH   5   6
BRANCH   5  10
HETATM   10  C           1     -20.726  -5.174  -5.338  0.00  0.00     0.113 C 
BRANCH  10  11
HETATM   11  S           1     -21.374  -6.280  -4.053  0.00  0.00    -0.180 SA
HETATM   12  H           1     -20.780  -5.656  -3.020  0.00  0.00     0.101 HD
ENDBRANCH  10  11
ENDBRANCH   5  10
ENDBRANCH   1   5
BRANCH   2  13
HETATM   13  C           1     -22.686  -3.833  -9.630  0.00  0.00     0.186 C 
BRANCH  13  14
HETATM   14  C           1     -24.195  -3.857  -9.626  0.00  0.00     0.196 C 
HETATM   15  O           1     -24.835  -2.811  -9.390  0.00  0.00    -0.646 OA
HETATM   16  O           1     -24.803  -4.924  -9.857  0.00  0.00    -0.646 OA
ENDBRANCH  13  14
BRANCH  13  17
HETATM   17  C           1     -22.179  -4.025 -11.053  0.00  0.00     0.046 C 
BRANCH  17  18
HETATM   18  C           1     -22.191  -2.687 -11.781  0.00  0.00     0.076 C 
BRANCH  18  19
HETATM   19  S           1     -22.897  -2.905 -13.439  0.00  0.00    -0.173 SA
HETATM   20  C           1     -24.634  -2.926 -12.914  0.00  0.00     0.089 C 
ENDBRANCH  18  19
ENDBRANCH  17  18
ENDBRANCH  13  17
ENDBRANCH   2  13
TORSDOF 9
ENDMDL
MODEL 2
REMARK VINA RESULT:      -5.1     13.363     15.363
REMARK  9 active torsions:
REMARK  status: ('A' for Active; 'I' for Inactive)
REMARK    1  A    between atoms: C_1  and  C_2 
REMARK    2  A    between atoms: C_2  and  C_3 
REMARK    3  A    between atoms: C_2  and  N_12 
REMARK    4  A    between atoms: C_3  and  C_15 
REMARK    5  A    between atoms: S_4  and  C_15 
REMARK    6  A    between atoms: N_7  and  C_10 
REMARK    7  A    between atoms: S_8  and  C_9 
REMARK    8  A    between atoms: C_9  and  C_10 
REMARK    9  A    between atoms: C_10  and  C_11 
REMARK       I    between atoms: C_11  and  N_12 
ROOT
HETATM    1  C           1     -36.750  -0.181 -13.417  0.00  0.00     0.249 C 
HETATM    2  N           1     -36.052  -0.185 -12.239  0.00  0.00    -0.345 N 
HETATM    3  O           1     -37.837  -0.704 -13.478  0.00  0.00    -0.271 OA
HETATM    4  H           1     -35.141   0.253 -12.188  0.00  0.00     0.163 HD
ENDROOT
BRANCH   1   5
HETATM    5  C           1     -36.161   0.479 -14.640  0.00  0.00     0.283 C 
BRANCH   5   6
HETATM    6  N           1     -34.670   0.323 -14.622  0.00  0.00    -0.066 N 
HETATM    7  H           1     -34.414  -0.623 -14.986  0.00  0.00     0.275 HD
HETATM    8  H           1     -34.235   1.057 -15.226  0.00  0.00     0.275 HD
HETATM    9  H           1     -34.321   0.425 -13.642  0.00  0.00     0.275 HD
ENDBRANCH   5   6
BRANCH   5  10
HETATM   10  C           1     -36.726  -0.176 -15.893  0.00  0.00     0.113 C 
BRANCH  10  11
HETATM   11  S           1     -35.505  -1.334 -16.573  0.00  0.00    -0.180 SA
HETATM   12  H           1     -35.600  -0.907 -17.845  0.00  0.00     0.101 HD
ENDBRANCH  10  11
ENDBRANCH   5  10
ENDBRANCH   1   5
BRANCH   2  13
HETATM   13  C           1     -36.617  -0.820 -11.064  0.00  0.00     0.186 C 
BRANCH  13  14
HETATM   14  C           1     -36.978   0.236 -10.048  0.00  0.00     0.196 C 
HETATM   15  O           1     -36.249   0.415  -9.049  0.00  0.00    -0.646 OA
HETATM   16  O           1     -38.004   0.930 -10.206  0.00  0.00    -0.646 OA
ENDBRANCH  13  14
BRANCH  13  17
HETATM   17  C           1     -35.595  -1.776 -10.463  0.00  0.00     0.046 C 
BRANCH  17  18
HETATM   18  C           1     -34.354  -1.812 -11.345  0.00  0.00     0.076 C 
BRANCH  18  19
HETATM   19  S           1     -33.510  -3.405 -11.138  0.00  0.00    -0.173 SA
HETATM   20  C           1     -34.971  -4.443 -11.425  0.00  0.00     0.089 C 
ENDBRANCH  18  19
ENDBRANCH  17  18
ENDBRANCH  13  17
ENDBRANCH   2  13
TORSDOF 9
ENDMDL
MODEL 3
REMARK VINA RESULT:      -4.8     12.486     14.109
REMARK  9 active torsions:
REMARK  status: ('A' for Active; 'I' for Inactive)
REMARK    1  A    between atoms: C_1  and  C_2 
REMARK    2  A    between atoms: C_2  and  C_3 
REMARK    3  A    between atoms: C_2  and  N_12 
REMARK    4  A    between atoms: C_3  and  C_15 
REMARK    5  A    between atoms: S_4  and  C_15 
REMARK    6  A    between atoms: N_7  and  C_10 
REMARK    7  A    between atoms: S_8  and  C_9 
REMARK    8  A    between atoms: C_9  and  C_10 
REMARK    9  A    between atoms: C_10  and  C_11 
REMARK       I    between atoms: C_11  and  N_12 
ROOT
HETATM    1  C           1     -34.589  -2.827 -13.110  0.00  0.00     0.249 C 
HETATM    2  N           1     -35.164  -1.735 -12.517  0.00  0.00    -0.345 N 
HETATM    3  O           1     -34.681  -2.984 -14.305  0.00  0.00    -0.271 OA
HETATM    4  H           1     -35.088  -1.604 -11.517  0.00  0.00     0.163 HD
ENDROOT
BRANCH   1   5
HETATM    5  C           1     -33.839  -3.833 -12.273  0.00  0.00     0.283 C 
BRANCH   5   6
HETATM    6  N           1     -33.508  -3.226 -10.941  0.00  0.00    -0.066 N 
HETATM    7  H           1     -32.587  -3.593 -10.611  0.00  0.00     0.275 HD
HETATM    8  H           1     -33.456  -2.187 -11.035  0.00  0.00     0.275 HD
HETATM    9  H           1     -34.250  -3.478 -10.250  0.00  0.00     0.275 HD
ENDBRANCH   5   6
BRANCH   5  10
HETATM   10  C           1     -34.704  -5.069 -12.067  0.00  0.00     0.113 C 
BRANCH  10  11
HETATM   11  S           1     -33.992  -6.093 -10.749  0.00  0.00    -0.180 SA
HETATM   12  H           1     -33.766  -5.082  -9.892  0.00  0.00     0.101 HD
ENDBRANCH  10  11
ENDBRANCH   5  10
ENDBRANCH   1   5
BRANCH   2  13
HETATM   13  C           1     -35.886  -0.768 -13.323  0.00  0.00     0.186 C 
BRANCH  13  14
HETATM   14  C           1     -34.933   0.304 -13.793  0.00  0.00     0.196 C 
HETATM   15  O           1     -34.533   1.177 -12.994  0.00  0.00    -0.646 OA
HETATM   16  O           1     -34.545   0.317 -14.980  0.00  0.00    -0.646 OA
ENDBRANCH  13  14
BRANCH  13  17
HETATM   17  C           1     -36.990  -0.136 -12.486  0.00  0.00     0.046 C 
BRANCH  17  18
HETATM   18  C           1     -36.936  -0.692 -11.070  0.00  0.00     0.076 C 
BRANCH  18  19
HETATM   19  S           1     -38.075   0.242 -10.009  0.00  0.00    -0.173 SA
HETATM   20  C           1     -37.260  -0.162  -8.438  0.00  0.00     0.089 C 
ENDBRANCH  18  19
ENDBRANCH  17  18
ENDBRANCH  13  17
ENDBRANCH   2  13
TORSDOF 9
ENDMDL
MODEL 4
REMARK VINA RESULT:      -4.8     12.112     13.771
REMARK  9 active torsions:
REMARK  status: ('A' for Active; 'I' for Inactive)
REMARK    1  A    between atoms: C_1  and  C_2 
REMARK    2  A    between atoms: C_2  and  C_3 
REMARK    3  A    between atoms: C_2  and  N_12 
REMARK    4  A    between atoms: C_3  and  C_15 
REMARK    5  A    between atoms: S_4  and  C_15 
REMARK    6  A    between atoms: N_7  and  C_10 
REMARK    7  A    between atoms: S_8  and  C_9 
REMARK    8  A    between atoms: C_9  and  C_10 
REMARK    9  A    between atoms: C_10  and  C_11 
REMARK       I    between atoms: C_11  and  N_12 
ROOT
HETATM    1  C           1     -34.957  -1.562 -11.435  0.00  0.00     0.249 C 
HETATM    2  N           1     -35.238  -2.868 -11.735  0.00  0.00    -0.345 N 
HETATM    3  O           1     -33.918  -1.278 -10.887  0.00  0.00    -0.271 OA
HETATM    4  H           1     -36.108  -3.106 -12.194  0.00  0.00     0.163 HD
ENDROOT
BRANCH   1   5
HETATM    5  C           1     -35.943  -0.477 -11.791  0.00  0.00     0.283 C 
BRANCH   5   6
HETATM    6  N           1     -36.236   0.350 -10.574  0.00  0.00    -0.066 N 
HETATM    7  H           1     -36.931  -0.149  -9.974  0.00  0.00     0.275 HD
HETATM    8  H           1     -35.355   0.500 -10.034  0.00  0.00     0.275 HD
HETATM    9  H           1     -36.629   1.273 -10.867  0.00  0.00     0.275 HD
ENDBRANCH   5   6
BRANCH   5  10
HETATM   10  C           1     -35.352   0.412 -12.878  0.00  0.00     0.113 C 
BRANCH  10  11
HETATM   11  S           1     -36.243   0.137 -14.435  0.00  0.00    -0.180 SA
HETATM   12  H           1     -35.152  -0.126 -15.176  0.00  0.00     0.101 HD
ENDBRANCH  10  11
ENDBRANCH   5  10
ENDBRANCH   1   5
BRANCH   2  13
HETATM   13  C           1     -34.290  -3.911 -11.392  0.00  0.00     0.186 C 
BRANCH  13  14
HETATM   14  C           1     -33.290  -4.067 -12.512  0.00  0.00     0.196 C 
HETATM   15  O           1     -33.654  -3.924 -13.699  0.00  0.00    -0.646 OA
HETATM   16  O           1     -32.099  -4.340 -12.252  0.00  0.00    -0.646 OA
ENDBRANCH  13  14
BRANCH  13  17
HETATM   17  C           1     -35.034  -5.224 -11.187  0.00  0.00     0.046 C 
BRANCH  17  18
HETATM   18  C           1     -34.070  -6.275 -10.653  0.00  0.00     0.076 C 
BRANCH  18  19
HETATM   19  S           1     -34.993  -7.517  -9.704  0.00  0.00    -0.173 SA
HETATM   20  C           1     -33.801  -8.867  -9.932  0.00  0.00     0.089 C 
ENDBRANCH  18  19
ENDBRANCH  17  18
ENDBRANCH  13  17
ENDBRANCH   2  13
TORSDOF 9
ENDMDL
MODEL 5
REMARK VINA RESULT:      -4.7      2.141      6.818
REMARK  9 active torsions:
REMARK  status: ('A' for Active; 'I' for Inactive)
REMARK    1  A    between atoms: C_1  and  C_2 
REMARK    2  A    between atoms: C_2  and  C_3 
REMARK    3  A    between atoms: C_2  and  N_12 
REMARK    4  A    between atoms: C_3  and  C_15 
REMARK    5  A    between atoms: S_4  and  C_15 
REMARK    6  A    between atoms: N_7  and  C_10 
REMARK    7  A    between atoms: S_8  and  C_9 
REMARK    8  A    between atoms: C_9  and  C_10 
REMARK    9  A    between atoms: C_10  and  C_11 
REMARK       I    between atoms: C_11  and  N_12 
ROOT
HETATM    1  C           1     -22.417  -4.178  -8.141  0.00  0.00     0.249 C 
HETATM    2  N           1     -22.252  -5.299  -7.373  0.00  0.00    -0.345 N 
HETATM    3  O           1     -21.819  -3.164  -7.867  0.00  0.00    -0.271 OA
HETATM    4  H           1     -22.752  -6.148  -7.602  0.00  0.00     0.163 HD
ENDROOT
BRANCH   1   5
HETATM    5  C           1     -23.344  -4.209  -9.332  0.00  0.00     0.283 C 
BRANCH   5   6
HETATM    6  N           1     -24.610  -3.479  -8.997  0.00  0.00    -0.066 N 
HETATM    7  H           1     -25.213  -4.084  -8.395  0.00  0.00     0.275 HD
HETATM    8  H           1     -24.380  -2.598  -8.484  0.00  0.00     0.275 HD
HETATM    9  H           1     -25.121  -3.246  -9.878  0.00  0.00     0.275 HD
ENDBRANCH   5   6
BRANCH   5  10
HETATM   10  C           1     -22.668  -3.536 -10.519  0.00  0.00     0.113 C 
BRANCH  10  11
HETATM   11  S           1     -23.906  -3.180 -11.798  0.00  0.00    -0.180 SA
HETATM   12  H           1     -23.029  -3.039 -12.807  0.00  0.00     0.101 HD
ENDBRANCH  10  11
ENDBRANCH   5  10
ENDBRANCH   1   5
BRANCH   2  13
HETATM   13  C           1     -21.361  -5.270  -6.228  0.00  0.00     0.186 C 
BRANCH  13  14
HETATM   14  C           1     -19.957  -5.595  -6.676  0.00  0.00     0.196 C 
HETATM   15  O           1     -19.655  -6.769  -6.980  0.00  0.00    -0.646 OA
HETATM   16  O           1     -19.098  -4.691  -6.744  0.00  0.00    -0.646 OA
ENDBRANCH  13  14
BRANCH  13  17
HETATM   17  C           1     -21.819  -6.298  -5.203  0.00  0.00     0.046 C 
BRANCH  17  18
HETATM   18  C           1     -21.160  -6.007  -3.862  0.00  0.00     0.076 C 
BRANCH  18  19
HETATM   19  S           1     -21.381  -7.429  -2.756  0.00  0.00    -0.173 SA
HETATM   20  C           1     -22.304  -6.539  -1.471  0.00  0.00     0.089 C 
ENDBRANCH  18  19
ENDBRANCH  17  18
ENDBRANCH  13  17
ENDBRANCH   2  13
TORSDOF 9
ENDMDL
MODEL 6
REMARK VINA RESULT:      -4.7      3.323      4.563
REMARK  9 active torsions:
REMARK  status: ('A' for Active; 'I' for Inactive)
REMARK    1  A    between atoms: C_1  and  C_2 
REMARK    2  A    between atoms: C_2  and  C_3 
REMARK    3  A    between atoms: C_2  and  N_12 
REMARK    4  A    between atoms: C_3  and  C_15 
REMARK    5  A    between atoms: S_4  and  C_15 
REMARK    6  A    between atoms: N_7  and  C_10 
REMARK    7  A    between atoms: S_8  and  C_9 
REMARK    8  A    between atoms: C_9  and  C_10 
REMARK    9  A    between atoms: C_10  and  C_11 
REMARK       I    between atoms: C_11  and  N_12 
ROOT
HETATM    1  C           1     -21.423  -6.393  -4.314  0.00  0.00     0.249 C 
HETATM    2  N           1     -20.996  -5.337  -5.074  0.00  0.00    -0.345 N 
HETATM    3  O           1     -21.940  -7.349  -4.843  0.00  0.00    -0.271 OA
HETATM    4  H           1     -20.564  -4.537  -4.631  0.00  0.00     0.163 HD
ENDROOT
BRANCH   1   5
HETATM    5  C           1     -21.249  -6.363  -2.815  0.00  0.00     0.283 C 
BRANCH   5   6
HETATM    6  N           1     -22.515  -5.878  -2.175  0.00  0.00    -0.066 N 
HETATM    7  H           1     -22.375  -4.906  -1.818  0.00  0.00     0.275 HD
HETATM    8  H           1     -23.286  -5.882  -2.880  0.00  0.00     0.275 HD
HETATM    9  H           1     -22.766  -6.507  -1.379  0.00  0.00     0.275 HD
ENDBRANCH   5   6
BRANCH   5  10
HETATM   10  C           1     -20.930  -7.765  -2.313  0.00  0.00     0.113 C 
BRANCH  10  11
HETATM   11  S           1     -21.794  -8.056  -0.743  0.00  0.00    -0.180 SA
HETATM   12  H           1     -20.819  -7.569   0.045  0.00  0.00     0.101 HD
ENDBRANCH  10  11
ENDBRANCH   5  10
ENDBRANCH   1   5
BRANCH   2  13
HETATM   13  C           1     -21.165  -5.366  -6.514  0.00  0.00     0.186 C 
BRANCH  13  14
HETATM   14  C           1     -19.831  -5.629  -7.171  0.00  0.00     0.196 C 
HETATM   15  O           1     -19.190  -4.686  -7.682  0.00  0.00    -0.646 OA
HETATM   16  O           1     -19.369  -6.789  -7.201  0.00  0.00    -0.646 OA
ENDBRANCH  13  14
BRANCH  13  17
HETATM   17  C           1     -21.709  -4.024  -6.988  0.00  0.00     0.046 C 
BRANCH  17  18
HETATM   18  C           1     -22.875  -4.256  -7.938  0.00  0.00     0.076 C 
BRANCH  18  19
HETATM   19  S           1     -22.298  -4.108  -9.653  0.00  0.00    -0.173 SA
HETATM   20  C           1     -23.754  -4.874 -10.420  0.00  0.00     0.089 C 
ENDBRANCH  18  19
ENDBRANCH  17  18
ENDBRANCH  13  17
ENDBRANCH   2  13
TORSDOF 9
ENDMDL
MODEL 7
REMARK VINA RESULT:      -4.6     12.548     14.804
REMARK  9 active torsions:
REMARK  status: ('A' for Active; 'I' for Inactive)
REMARK    1  A    between atoms: C_1  and  C_2 
REMARK    2  A    between atoms: C_2  and  C_3 
REMARK    3  A    between atoms: C_2  and  N_12 
REMARK    4  A    between atoms: C_3  and  C_15 
REMARK    5  A    between atoms: S_4  and  C_15 
REMARK    6  A    between atoms: N_7  and  C_10 
REMARK    7  A    between atoms: S_8  and  C_9 
REMARK    8  A    between atoms: C_9  and  C_10 
REMARK    9  A    between atoms: C_10  and  C_11 
REMARK       I    between atoms: C_11  and  N_12 
ROOT
HETATM    1  C           1     -35.740  -0.942 -14.134  0.00  0.00     0.249 C 
HETATM    2  N           1     -34.695  -1.649 -13.603  0.00  0.00    -0.345 N 
HETATM    3  O           1     -36.836  -1.012 -13.630  0.00  0.00    -0.271 OA
HETATM    4  H           1     -33.778  -1.591 -14.026  0.00  0.00     0.163 HD
ENDROOT
BRANCH   1   5
HETATM    5  C           1     -35.524  -0.074 -15.350  0.00  0.00     0.283 C 
BRANCH   5   6
HETATM    6  N           1     -36.691  -0.220 -16.281  0.00  0.00    -0.066 N 
HETATM    7  H           1     -37.376   0.549 -16.104  0.00  0.00     0.275 HD
HETATM    8  H           1     -36.356  -0.167 -17.270  0.00  0.00     0.275 HD
HETATM    9  H           1     -37.154  -1.142 -16.117  0.00  0.00     0.275 HD
ENDBRANCH   5   6
BRANCH   5  10
HETATM   10  C           1     -35.395   1.381 -14.920  0.00  0.00     0.113 C 
BRANCH  10  11
HETATM   11  S           1     -36.171   2.450 -16.164  0.00  0.00    -0.180 SA
HETATM   12  H           1     -37.263   1.685 -16.345  0.00  0.00     0.101 HD
ENDBRANCH  10  11
ENDBRANCH   5  10
ENDBRANCH   1   5
BRANCH   2  13
HETATM   13  C           1     -34.904  -2.483 -12.435  0.00  0.00     0.186 C 
BRANCH  13  14
HETATM   14  C           1     -34.523  -1.713 -11.194  0.00  0.00     0.196 C 
HETATM   15  O           1     -33.354  -1.772 -10.757  0.00  0.00    -0.646 OA
HETATM   16  O           1     -35.377  -1.017 -10.605  0.00  0.00    -0.646 OA
ENDBRANCH  13  14
BRANCH  13  17
HETATM   17  C           1     -34.040  -3.732 -12.543  0.00  0.00     0.046 C 
BRANCH  17  18
HETATM   18  C           1     -34.823  -4.937 -12.039  0.00  0.00     0.076 C 
BRANCH  18  19
HETATM   19  S           1     -34.118  -5.502 -10.465  0.00  0.00    -0.173 SA
HETATM   20  C           1     -34.761  -7.197 -10.556  0.00  0.00     0.089 C 
ENDBRANCH  18  19
ENDBRANCH  17  18
ENDBRANCH  13  17
ENDBRANCH   2  13
TORSDOF 9
ENDMDL
MODEL 8
REMARK VINA RESULT:      -4.6      2.446      3.141
REMARK  9 active torsions:
REMARK  status: ('A' for Active; 'I' for Inactive)
REMARK    1  A    between atoms: C_1  and  C_2 
REMARK    2  A    between atoms: C_2  and  C_3 
REMARK    3  A    between atoms: C_2  and  N_12 
REMARK    4  A    between atoms: C_3  and  C_15 
REMARK    5  A    between atoms: S_4  and  C_15 
REMARK    6  A    between atoms: N_7  and  C_10 
REMARK    7  A    between atoms: S_8  and  C_9 
REMARK    8  A    between atoms: C_9  and  C_10 
REMARK    9  A    between atoms: C_10  and  C_11 
REMARK       I    between atoms: C_11  and  N_12 
ROOT
HETATM    1  C           1     -21.290  -5.968  -6.412  0.00  0.00     0.249 C 
HETATM    2  N           1     -21.710  -4.836  -7.058  0.00  0.00    -0.345 N 
HETATM    3  O           1     -20.911  -6.922  -7.048  0.00  0.00    -0.271 OA
HETATM    4  H           1     -22.029  -4.037  -6.525  0.00  0.00     0.163 HD
ENDROOT
BRANCH   1   5
HETATM    5  C           1     -21.301  -6.023  -4.904  0.00  0.00     0.283 C 
BRANCH   5   6
HETATM    6  N           1     -22.706  -6.229  -4.422  0.00  0.00    -0.066 N 
HETATM    7  H           1     -22.769  -5.972  -3.411  0.00  0.00     0.275 HD
HETATM    8  H           1     -23.356  -5.628  -4.975  0.00  0.00     0.275 HD
HETATM    9  H           1     -22.971  -7.233  -4.541  0.00  0.00     0.275 HD
ENDBRANCH   5   6
BRANCH   5  10
HETATM   10  C           1     -20.427  -7.178  -4.431  0.00  0.00     0.113 C 
BRANCH  10  11
HETATM   11  S           1     -21.481  -8.544  -3.870  0.00  0.00    -0.180 SA
HETATM   12  H           1     -22.407  -8.413  -4.837  0.00  0.00     0.101 HD
ENDBRANCH  10  11
ENDBRANCH   5  10
ENDBRANCH   1   5
BRANCH   2  13
HETATM   13  C           1     -21.701  -4.783  -8.508  0.00  0.00     0.186 C 
BRANCH  13  14
HETATM   14  C           1     -20.323  -4.396  -8.986  0.00  0.00     0.196 C 
HETATM   15  O           1     -19.600  -3.660  -8.281  0.00  0.00    -0.646 OA
HETATM   16  O           1     -19.905  -4.813 -10.088  0.00  0.00    -0.646 OA
ENDBRANCH  13  14
BRANCH  13  17
HETATM   17  C           1     -22.713  -3.750  -8.984  0.00  0.00     0.046 C 
BRANCH  17  18
HETATM   18  C           1     -23.768  -4.432  -9.845  0.00  0.00     0.076 C 
BRANCH  18  19
HETATM   19  S           1     -24.180  -3.366 -11.255  0.00  0.00    -0.173 SA
HETATM   20  C           1     -22.470  -2.944 -11.691  0.00  0.00     0.089 C 
ENDBRANCH  18  19
ENDBRANCH  17  18
ENDBRANCH  13  17
ENDBRANCH   2  13
TORSDOF 9
ENDMDL
MODEL 9
REMARK VINA RESULT:      -4.6      9.182     11.522
REMARK  9 active torsions:
REMARK  status: ('A' for Active; 'I' for Inactive)
REMARK    1  A    between atoms: C_1  and  C_2 
REMARK    2  A    between atoms: C_2  and  C_3 
REMARK    3  A    between atoms: C_2  and  N_12 
REMARK    4  A    between atoms: C_3  and  C_15 
REMARK    5  A    between atoms: S_4  and  C_15 
REMARK    6  A    between atoms: N_7  and  C_10 
REMARK    7  A    between atoms: S_8  and  C_9 
REMARK    8  A    between atoms: C_9  and  C_10 
REMARK    9  A    between atoms: C_10  and  C_11 
REMARK       I    between atoms: C_11  and  N_12 
ROOT
HETATM    1  C           1     -26.496  -6.423 -19.370  0.00  0.00     0.249 C 
HETATM    2  N           1     -25.927  -6.732 -18.163  0.00  0.00    -0.345 N 
HETATM    3  O           1     -27.520  -5.782 -19.409  0.00  0.00    -0.271 OA
HETATM    4  H           1     -25.070  -7.269 -18.130  0.00  0.00     0.163 HD
ENDROOT
BRANCH   1   5
HETATM    5  C           1     -25.845  -6.883 -20.651  0.00  0.00     0.283 C 
BRANCH   5   6
HETATM    6  N           1     -25.395  -5.688 -21.438  0.00  0.00    -0.066 N 
HETATM    7  H           1     -24.613  -5.963 -22.074  0.00  0.00     0.275 HD
HETATM    8  H           1     -26.194  -5.325 -22.006  0.00  0.00     0.275 HD
HETATM    9  H           1     -25.065  -4.943 -20.783  0.00  0.00     0.275 HD
ENDBRANCH   5   6
BRANCH   5  10
HETATM   10  C           1     -24.641  -7.757 -20.324  0.00  0.00     0.113 C 
BRANCH  10  11
HETATM   11  S           1     -23.759  -8.169 -21.855  0.00  0.00    -0.180 SA
HETATM   12  H           1     -24.378  -7.255 -22.624  0.00  0.00     0.101 HD
ENDBRANCH  10  11
ENDBRANCH   5  10
ENDBRANCH   1   5
BRANCH   2  13
HETATM   13  C           1     -26.554  -6.290 -16.932  0.00  0.00     0.186 C 
BRANCH  13  14
HETATM   14  C           1     -25.563  -6.397 -15.798  0.00  0.00     0.196 C 
HETATM   15  O           1     -25.353  -7.503 -15.255  0.00  0.00    -0.646 OA
HETATM   16  O           1     -24.954  -5.380 -15.404  0.00  0.00    -0.646 OA
ENDBRANCH  13  14
BRANCH  13  17
HETATM   17  C           1     -27.763  -7.168 -16.635  0.00  0.00     0.046 C 
BRANCH  17  18
HETATM   18  C           1     -28.819  -6.349 -15.905  0.00  0.00     0.076 C 
BRANCH  18  19
HETATM   19  S           1     -30.294  -6.193 -16.951  0.00  0.00    -0.173 SA
HETATM   20  C           1     -29.974  -7.663 -17.967  0.00  0.00     0.089 C 
ENDBRANCH  18  19
ENDBRANCH  17  18
ENDBRANCH  13  17
ENDBRANCH   2  13
TORSDOF 9
ENDMDL
