MODEL 1
REMARK VINA RESULT:      -6.3      0.000      0.000
REMARK  6 active torsions:
REMARK  status: ('A' for Active; 'I' for Inactive)
REMARK    1  A    between atoms: N_1  and  C_12 
REMARK    2  A    between atoms: C_5  and  C_6 
REMARK    3  A    between atoms: C_5  and  N_18 
REMARK       I    between atoms: C_11  and  N_18 
REMARK    4  A    between atoms: C_11  and  C_12 
REMARK    5  A    between atoms: C_12  and  C_13 
REMARK    6  A    between atoms: C_13  and  C_14 
ROOT
HETATM    1  O           1     -23.284  -5.113 -11.479  0.00  0.00    -0.271 OA
HETATM    2  H           1     -21.624  -2.819 -12.829  0.00  0.00     0.163 HD
HETATM    3  C           1     -22.355  -4.364 -11.660  0.00  0.00     0.249 C 
HETATM    4  N           1     -22.403  -3.448 -12.677  0.00  0.00    -0.345 N 
ENDROOT
BRANCH   3   5
HETATM    5  C           1     -21.140  -4.437 -10.767  0.00  0.00     0.275 C 
BRANCH   5   6
HETATM    6  N           1     -20.033  -3.619 -11.362  0.00  0.00    -0.066 N 
HETATM    7  H           1     -20.058  -3.703 -12.403  0.00  0.00     0.275 HD
HETATM    8  H           1     -20.155  -2.617 -11.090  0.00  0.00     0.275 HD
HETATM    9  H           1     -19.114  -3.967 -11.007  0.00  0.00     0.275 HD
ENDBRANCH   5   6
BRANCH   5  10
HETATM   10  C           1     -21.490  -3.890  -9.389  0.00  0.00     0.046 C 
BRANCH  10  11
HETATM   11  C           1     -20.957  -4.832  -8.318  0.00  0.00    -0.020 C 
HETATM   12  C           1     -19.554  -4.399  -7.912  0.00  0.00     0.009 C 
HETATM   13  C           1     -21.873  -4.788  -7.103  0.00  0.00     0.009 C 
ENDBRANCH  10  11
ENDBRANCH   5  10
ENDBRANCH   3   5
BRANCH   4  14
HETATM   14  C           1     -23.570  -3.377 -13.535  0.00  0.00     0.181 C 
HETATM   15  C           1     -24.748  -2.823 -12.745  0.00  0.00     0.043 C 
BRANCH  14  16
HETATM   16  C           1     -23.277  -2.472 -14.706  0.00  0.00     0.196 C 
HETATM   17  O           1     -23.958  -1.439 -14.883  0.00  0.00    -0.646 OA
HETATM   18  O           1     -22.354  -2.756 -15.500  0.00  0.00    -0.646 OA
ENDBRANCH  14  16
ENDBRANCH   4  14
TORSDOF 6
ENDMDL
MODEL 2
REMARK VINA RESULT:      -6.2      3.373      4.812
REMARK  6 active torsions:
REMARK  status: ('A' for Active; 'I' for Inactive)
REMARK    1  A    between atoms: N_1  and  C_12 
REMARK    2  A    between atoms: C_5  and  C_6 
REMARK    3  A    between atoms: C_5  and  N_18 
REMARK       I    between atoms: C_11  and  N_18 
REMARK    4  A    between atoms: C_11  and  C_12 
REMARK    5  A    between atoms: C_12  and  C_13 
REMARK    6  A    between atoms: C_13  and  C_14 
ROOT
HETATM    1  O           1     -21.335  -3.543  -7.062  0.00  0.00    -0.271 OA
HETATM    2  H           1     -22.486  -5.721  -9.003  0.00  0.00     0.163 HD
HETATM    3  C           1     -21.569  -4.647  -7.490  0.00  0.00     0.249 C 
HETATM    4  N           1     -22.290  -4.796  -8.644  0.00  0.00    -0.345 N 
ENDROOT
BRANCH   3   5
HETATM    5  C           1     -21.066  -5.865  -6.753  0.00  0.00     0.275 C 
BRANCH   5   6
HETATM    6  N           1     -19.755  -6.298  -7.341  0.00  0.00    -0.066 N 
HETATM    7  H           1     -19.017  -6.275  -6.601  0.00  0.00     0.275 HD
HETATM    8  H           1     -19.845  -7.270  -7.714  0.00  0.00     0.275 HD
HETATM    9  H           1     -19.490  -5.650  -8.117  0.00  0.00     0.275 HD
ENDBRANCH   5   6
BRANCH   5  10
HETATM   10  C           1     -20.874  -5.524  -5.281  0.00  0.00     0.046 C 
BRANCH  10  11
HETATM   11  C           1     -21.812  -6.375  -4.436  0.00  0.00    -0.020 C 
HETATM   12  C           1     -21.653  -7.841  -4.819  0.00  0.00     0.009 C 
HETATM   13  C           1     -21.471  -6.196  -2.963  0.00  0.00     0.009 C 
ENDBRANCH  10  11
ENDBRANCH   5  10
ENDBRANCH   3   5
BRANCH   4  14
HETATM   14  C           1     -22.774  -3.626  -9.353  0.00  0.00     0.181 C 
HETATM   15  C           1     -21.997  -3.463 -10.653  0.00  0.00     0.043 C 
BRANCH  14  16
HETATM   16  C           1     -24.241  -3.796  -9.659  0.00  0.00     0.196 C 
HETATM   17  O           1     -24.683  -4.914 -10.000  0.00  0.00    -0.646 OA
HETATM   18  O           1     -25.015  -2.818  -9.573  0.00  0.00    -0.646 OA
ENDBRANCH  14  16
ENDBRANCH   4  14
TORSDOF 6
ENDMDL
MODEL 3
REMARK VINA RESULT:      -5.7      2.336      3.013
REMARK  6 active torsions:
REMARK  status: ('A' for Active; 'I' for Inactive)
REMARK    1  A    between atoms: N_1  and  C_12 
REMARK    2  A    between atoms: C_5  and  C_6 
REMARK    3  A    between atoms: C_5  and  N_18 
REMARK       I    between atoms: C_11  and  N_18 
REMARK    4  A    between atoms: C_11  and  C_12 
REMARK    5  A    between atoms: C_12  and  C_13 
REMARK    6  A    between atoms: C_13  and  C_14 
ROOT
HETATM    1  O           1     -24.477  -3.245  -9.051  0.00  0.00    -0.271 OA
HETATM    2  H           1     -21.699  -3.852 -10.376  0.00  0.00     0.163 HD
HETATM    3  C           1     -23.326  -3.603  -9.120  0.00  0.00     0.249 C 
HETATM    4  N           1     -22.664  -3.552 -10.317  0.00  0.00    -0.345 N 
ENDROOT
BRANCH   3   5
HETATM    5  C           1     -22.616  -4.106  -7.887  0.00  0.00     0.275 C 
BRANCH   5   6
HETATM    6  N           1     -23.629  -4.531  -6.866  0.00  0.00    -0.066 N 
HETATM    7  H           1     -23.627  -3.855  -6.069  0.00  0.00     0.275 HD
HETATM    8  H           1     -24.578  -4.551  -7.303  0.00  0.00     0.275 HD
HETATM    9  H           1     -23.389  -5.485  -6.512  0.00  0.00     0.275 HD
ENDBRANCH   5   6
BRANCH   5  10
HETATM   10  C           1     -21.739  -5.295  -8.256  0.00  0.00     0.046 C 
BRANCH  10  11
HETATM   11  C           1     -20.341  -5.091  -7.687  0.00  0.00    -0.020 C 
HETATM   12  C           1     -19.727  -3.832  -8.286  0.00  0.00     0.009 C 
HETATM   13  C           1     -20.426  -4.943  -6.174  0.00  0.00     0.009 C 
ENDBRANCH  10  11
ENDBRANCH   5  10
ENDBRANCH   3   5
BRANCH   4  14
HETATM   14  C           1     -23.346  -3.068 -11.503  0.00  0.00     0.181 C 
HETATM   15  C           1     -22.384  -2.228 -12.333  0.00  0.00     0.043 C 
BRANCH  14  16
HETATM   16  C           1     -23.824  -4.242 -12.321  0.00  0.00     0.196 C 
HETATM   17  O           1     -24.354  -4.053 -13.437  0.00  0.00    -0.646 OA
HETATM   18  O           1     -23.691  -5.406 -11.882  0.00  0.00    -0.646 OA
ENDBRANCH  14  16
ENDBRANCH   4  14
TORSDOF 6
ENDMDL
MODEL 4
REMARK VINA RESULT:      -5.7      3.712      7.114
REMARK  6 active torsions:
REMARK  status: ('A' for Active; 'I' for Inactive)
REMARK    1  A    between atoms: N_1  and  C_12 
REMARK    2  A    between atoms: C_5  and  C_6 
REMARK    3  A    between atoms: C_5  and  N_18 
REMARK       I    between atoms: C_11  and  N_18 
REMARK    4  A    between atoms: C_11  and  C_12 
REMARK    5  A    between atoms: C_12  and  C_13 
REMARK    6  A    between atoms: C_13  and  C_14 
ROOT
HETATM    1  O           1     -20.448  -4.633  -8.879  0.00  0.00    -0.271 OA
HETATM    2  H           1     -22.531  -5.638  -6.760  0.00  0.00     0.163 HD
HETATM    3  C           1     -21.532  -4.865  -8.400  0.00  0.00     0.249 C 
HETATM    4  N           1     -21.623  -5.443  -7.162  0.00  0.00    -0.345 N 
ENDROOT
BRANCH   3   5
HETATM    5  C           1     -22.786  -4.518  -9.164  0.00  0.00     0.275 C 
BRANCH   5   6
HETATM    6  N           1     -23.825  -4.005  -8.212  0.00  0.00    -0.066 N 
HETATM    7  H           1     -23.357  -3.543  -7.400  0.00  0.00     0.275 HD
HETATM    8  H           1     -24.435  -3.312  -8.703  0.00  0.00     0.275 HD
HETATM    9  H           1     -24.409  -4.801  -7.870  0.00  0.00     0.275 HD
ENDBRANCH   5   6
BRANCH   5  10
HETATM   10  C           1     -22.471  -3.445 -10.197  0.00  0.00     0.046 C 
BRANCH  10  11
HETATM   11  C           1     -23.063  -3.844 -11.542  0.00  0.00    -0.020 C 
HETATM   12  C           1     -24.438  -3.207 -11.701  0.00  0.00     0.009 C 
HETATM   13  C           1     -22.149  -3.363 -12.661  0.00  0.00     0.009 C 
ENDBRANCH  10  11
ENDBRANCH   5  10
ENDBRANCH   3   5
BRANCH   4  14
HETATM   14  C           1     -20.418  -5.777  -6.427  0.00  0.00     0.181 C 
HETATM   15  C           1     -20.143  -4.698  -5.387  0.00  0.00     0.043 C 
BRANCH  14  16
HETATM   16  C           1     -20.602  -7.106  -5.738  0.00  0.00     0.196 C 
HETATM   17  O           1     -19.686  -7.956  -5.764  0.00  0.00    -0.646 OA
HETATM   18  O           1     -21.671  -7.357  -5.139  0.00  0.00    -0.646 OA
ENDBRANCH  14  16
ENDBRANCH   4  14
TORSDOF 6
ENDMDL
MODEL 5
REMARK VINA RESULT:      -5.5      2.850      4.219
REMARK  6 active torsions:
REMARK  status: ('A' for Active; 'I' for Inactive)
REMARK    1  A    between atoms: N_1  and  C_12 
REMARK    2  A    between atoms: C_5  and  C_6 
REMARK    3  A    between atoms: C_5  and  N_18 
REMARK       I    between atoms: C_11  and  N_18 
REMARK    4  A    between atoms: C_11  and  C_12 
REMARK    5  A    between atoms: C_12  and  C_13 
REMARK    6  A    between atoms: C_13  and  C_14 
ROOT
HETATM    1  O           1     -22.765  -4.005  -7.620  0.00  0.00    -0.271 OA
HETATM    2  H           1     -21.063  -5.297  -9.917  0.00  0.00     0.163 HD
HETATM    3  C           1     -21.965  -4.747  -8.137  0.00  0.00     0.249 C 
HETATM    4  N           1     -21.734  -4.676  -9.484  0.00  0.00    -0.345 N 
ENDROOT
BRANCH   3   5
HETATM    5  C           1     -21.217  -5.754  -7.296  0.00  0.00     0.275 C 
BRANCH   5   6
HETATM    6  N           1     -19.751  -5.443  -7.330  0.00  0.00    -0.066 N 
HETATM    7  H           1     -19.332  -5.634  -6.392  0.00  0.00     0.275 HD
HETATM    8  H           1     -19.284  -6.042  -8.049  0.00  0.00     0.275 HD
HETATM    9  H           1     -19.613  -4.436  -7.574  0.00  0.00     0.275 HD
ENDBRANCH   5   6
BRANCH   5  10
HETATM   10  C           1     -21.717  -5.687  -5.859  0.00  0.00     0.046 C 
BRANCH  10  11
HETATM   11  C           1     -20.882  -6.615  -4.987  0.00  0.00    -0.020 C 
HETATM   12  C           1     -21.225  -6.379  -3.521  0.00  0.00     0.009 C 
HETATM   13  C           1     -21.186  -8.062  -5.352  0.00  0.00     0.009 C 
ENDBRANCH  10  11
ENDBRANCH   5  10
ENDBRANCH   3   5
BRANCH   4  14
HETATM   14  C           1     -22.452  -3.708 -10.292  0.00  0.00     0.181 C 
HETATM   15  C           1     -21.644  -3.395 -11.545  0.00  0.00     0.043 C 
BRANCH  14  16
HETATM   16  C           1     -23.792  -4.278 -10.686  0.00  0.00     0.196 C 
HETATM   17  O           1     -23.880  -5.468 -11.060  0.00  0.00    -0.646 OA
HETATM   18  O           1     -24.815  -3.561 -10.638  0.00  0.00    -0.646 OA
ENDBRANCH  14  16
ENDBRANCH   4  14
TORSDOF 6
ENDMDL
MODEL 6
REMARK VINA RESULT:      -5.5      6.519      8.951
REMARK  6 active torsions:
REMARK  status: ('A' for Active; 'I' for Inactive)
REMARK    1  A    between atoms: N_1  and  C_12 
REMARK    2  A    between atoms: C_5  and  C_6 
REMARK    3  A    between atoms: C_5  and  N_18 
REMARK       I    between atoms: C_11  and  N_18 
REMARK    4  A    between atoms: C_11  and  C_12 
REMARK    5  A    between atoms: C_12  and  C_13 
REMARK    6  A    between atoms: C_13  and  C_14 
ROOT
HETATM    1  O           1     -21.595  -8.096  -4.260  0.00  0.00    -0.271 OA
HETATM    2  H           1     -21.358  -4.971  -4.128  0.00  0.00     0.163 HD
HETATM    3  C           1     -21.500  -7.002  -3.757  0.00  0.00     0.249 C 
HETATM    4  N           1     -21.437  -5.887  -4.549  0.00  0.00    -0.345 N 
ENDROOT
BRANCH   3   5
HETATM    5  C           1     -21.452  -6.863  -2.255  0.00  0.00     0.275 C 
BRANCH   5   6
HETATM    6  N           1     -22.323  -5.718  -1.831  0.00  0.00    -0.066 N 
HETATM    7  H           1     -21.724  -4.927  -1.502  0.00  0.00     0.275 HD
HETATM    8  H           1     -22.903  -5.402  -2.641  0.00  0.00     0.275 HD
HETATM    9  H           1     -22.950  -6.026  -1.053  0.00  0.00     0.275 HD
ENDBRANCH   5   6
BRANCH   5  10
HETATM   10  C           1     -21.954  -8.148  -1.609  0.00  0.00     0.046 C 
BRANCH  10  11
HETATM   11  C           1     -21.842  -8.034  -0.095  0.00  0.00    -0.020 C 
HETATM   12  C           1     -23.235  -8.066   0.522  0.00  0.00     0.009 C 
HETATM   13  C           1     -21.022  -9.199   0.441  0.00  0.00     0.009 C 
ENDBRANCH  10  11
ENDBRANCH   5  10
ENDBRANCH   3   5
BRANCH   4  14
HETATM   14  C           1     -21.484  -6.020  -5.993  0.00  0.00     0.181 C 
HETATM   15  C           1     -22.352  -4.913  -6.577  0.00  0.00     0.043 C 
BRANCH  14  16
HETATM   16  C           1     -20.086  -5.913  -6.552  0.00  0.00     0.196 C 
HETATM   17  O           1     -19.533  -4.796  -6.644  0.00  0.00    -0.646 OA
HETATM   18  O           1     -19.481  -6.942  -6.924  0.00  0.00    -0.646 OA
ENDBRANCH  14  16
ENDBRANCH   4  14
TORSDOF 6
ENDMDL
MODEL 7
REMARK VINA RESULT:      -5.5      4.846      7.842
REMARK  6 active torsions:
REMARK  status: ('A' for Active; 'I' for Inactive)
REMARK    1  A    between atoms: N_1  and  C_12 
REMARK    2  A    between atoms: C_5  and  C_6 
REMARK    3  A    between atoms: C_5  and  N_18 
REMARK       I    between atoms: C_11  and  N_18 
REMARK    4  A    between atoms: C_11  and  C_12 
REMARK    5  A    between atoms: C_12  and  C_13 
REMARK    6  A    between atoms: C_13  and  C_14 
ROOT
HETATM    1  O           1     -20.450  -4.610  -6.464  0.00  0.00    -0.271 OA
HETATM    2  H           1     -22.741  -6.613  -5.702  0.00  0.00     0.163 HD
HETATM    3  C           1     -21.514  -5.175  -6.546  0.00  0.00     0.249 C 
HETATM    4  N           1     -21.849  -6.140  -5.634  0.00  0.00    -0.345 N 
ENDROOT
BRANCH   3   5
HETATM    5  C           1     -22.476  -4.817  -7.652  0.00  0.00     0.275 C 
BRANCH   5   6
HETATM    6  N           1     -23.756  -4.309  -7.057  0.00  0.00    -0.066 N 
HETATM    7  H           1     -23.539  -3.666  -6.262  0.00  0.00     0.275 HD
HETATM    8  H           1     -24.298  -3.792  -7.786  0.00  0.00     0.275 HD
HETATM    9  H           1     -24.322  -5.115  -6.708  0.00  0.00     0.275 HD
ENDBRANCH   5   6
BRANCH   5  10
HETATM   10  C           1     -21.861  -3.736  -8.530  0.00  0.00     0.046 C 
BRANCH  10  11
HETATM   11  C           1     -21.609  -4.295  -9.924  0.00  0.00    -0.020 C 
HETATM   12  C           1     -22.075  -3.287 -10.968  0.00  0.00     0.009 C 
HETATM   13  C           1     -20.119  -4.557 -10.103  0.00  0.00     0.009 C 
ENDBRANCH  10  11
ENDBRANCH   5  10
ENDBRANCH   3   5
BRANCH   4  14
HETATM   14  C           1     -20.925  -6.484  -4.570  0.00  0.00     0.181 C 
HETATM   15  C           1     -21.619  -6.325  -3.224  0.00  0.00     0.043 C 
BRANCH  14  16
HETATM   16  C           1     -20.475  -7.914  -4.739  0.00  0.00     0.196 C 
HETATM   17  O           1     -20.841  -8.571  -5.738  0.00  0.00    -0.646 OA
HETATM   18  O           1     -19.736  -8.443  -3.880  0.00  0.00    -0.646 OA
ENDBRANCH  14  16
ENDBRANCH   4  14
TORSDOF 6
ENDMDL
MODEL 8
REMARK VINA RESULT:      -5.4      7.278      9.909
REMARK  6 active torsions:
REMARK  status: ('A' for Active; 'I' for Inactive)
REMARK    1  A    between atoms: N_1  and  C_12 
REMARK    2  A    between atoms: C_5  and  C_6 
REMARK    3  A    between atoms: C_5  and  N_18 
REMARK       I    between atoms: C_11  and  N_18 
REMARK    4  A    between atoms: C_11  and  C_12 
REMARK    5  A    between atoms: C_12  and  C_13 
REMARK    6  A    between atoms: C_13  and  C_14 
ROOT
HETATM    1  O           1     -22.612  -5.946  -2.495  0.00  0.00    -0.271 OA
HETATM    2  H           1     -20.302  -7.696  -3.697  0.00  0.00     0.163 HD
HETATM    3  C           1     -21.747  -6.788  -2.525  0.00  0.00     0.249 C 
HETATM    4  N           1     -21.027  -6.990  -3.672  0.00  0.00    -0.345 N 
ENDROOT
BRANCH   3   5
HETATM    5  C           1     -21.457  -7.617  -1.297  0.00  0.00     0.275 C 
BRANCH   5   6
HETATM    6  N           1     -22.285  -7.117  -0.150  0.00  0.00    -0.066 N 
HETATM    7  H           1     -22.428  -6.087  -0.247  0.00  0.00     0.275 HD
HETATM    8  H           1     -23.211  -7.600  -0.153  0.00  0.00     0.275 HD
HETATM    9  H           1     -21.790  -7.316   0.749  0.00  0.00     0.275 HD
ENDBRANCH   5   6
BRANCH   5  10
HETATM   10  C           1     -21.804  -9.074  -1.575  0.00  0.00     0.046 C 
BRANCH  10  11
HETATM   11  C           1     -22.350  -9.717  -0.308  0.00  0.00    -0.020 C 
HETATM   12  C           1     -23.549 -10.590  -0.658  0.00  0.00     0.009 C 
HETATM   13  C           1     -21.268 -10.575   0.332  0.00  0.00     0.009 C 
ENDBRANCH  10  11
ENDBRANCH   5  10
ENDBRANCH   3   5
BRANCH   4  14
HETATM   14  C           1     -21.305  -6.194  -4.852  0.00  0.00     0.181 C 
HETATM   15  C           1     -20.326  -5.029  -4.919  0.00  0.00     0.043 C 
BRANCH  14  16
HETATM   16  C           1     -21.153  -7.052  -6.084  0.00  0.00     0.196 C 
HETATM   17  O           1     -20.899  -6.522  -7.187  0.00  0.00    -0.646 OA
HETATM   18  O           1     -21.280  -8.293  -6.001  0.00  0.00    -0.646 OA
ENDBRANCH  14  16
ENDBRANCH   4  14
TORSDOF 6
ENDMDL
MODEL 9
REMARK VINA RESULT:      -5.3      9.301     11.733
REMARK  6 active torsions:
REMARK  status: ('A' for Active; 'I' for Inactive)
REMARK    1  A    between atoms: N_1  and  C_12 
REMARK    2  A    between atoms: C_5  and  C_6 
REMARK    3  A    between atoms: C_5  and  N_18 
REMARK       I    between atoms: C_11  and  N_18 
REMARK    4  A    between atoms: C_11  and  C_12 
REMARK    5  A    between atoms: C_12  and  C_13 
REMARK    6  A    between atoms: C_13  and  C_14 
ROOT
HETATM    1  O           1     -19.907  -9.661  -1.606  0.00  0.00    -0.271 OA
HETATM    2  H           1     -22.713  -8.260  -1.682  0.00  0.00     0.163 HD
HETATM    3  C           1     -21.034  -9.396  -1.262  0.00  0.00     0.249 C 
HETATM    4  N           1     -21.769  -8.483  -1.970  0.00  0.00    -0.345 N 
ENDROOT
BRANCH   3   5
HETATM    5  C           1     -21.633 -10.070  -0.052  0.00  0.00     0.275 C 
BRANCH   5   6
HETATM    6  N           1     -20.978  -9.543   1.190  0.00  0.00    -0.066 N 
HETATM    7  H           1     -20.888 -10.312   1.891  0.00  0.00     0.275 HD
HETATM    8  H           1     -20.029  -9.174   0.953  0.00  0.00     0.275 HD
HETATM    9  H           1     -21.560  -8.773   1.591  0.00  0.00     0.275 HD
ENDBRANCH   5   6
BRANCH   5  10
HETATM   10  C           1     -23.127  -9.783   0.002  0.00  0.00     0.046 C 
BRANCH  10  11
HETATM   11  C           1     -23.902 -11.078  -0.203  0.00  0.00    -0.020 C 
HETATM   12  C           1     -23.905 -11.440  -1.683  0.00  0.00     0.009 C 
HETATM   13  C           1     -23.240 -12.196   0.591  0.00  0.00     0.009 C 
ENDBRANCH  10  11
ENDBRANCH   5  10
ENDBRANCH   3   5
BRANCH   4  14
HETATM   14  C           1     -21.194  -7.834  -3.133  0.00  0.00     0.181 C 
HETATM   15  C           1     -21.589  -8.601  -4.388  0.00  0.00     0.043 C 
BRANCH  14  16
HETATM   16  C           1     -21.708  -6.419  -3.224  0.00  0.00     0.196 C 
HETATM   17  O           1     -21.488  -5.738  -4.249  0.00  0.00    -0.646 OA
HETATM   18  O           1     -22.355  -5.927  -2.273  0.00  0.00    -0.646 OA
ENDBRANCH  14  16
ENDBRANCH   4  14
TORSDOF 6
ENDMDL
