MODEL 1
REMARK VINA RESULT:      -5.7      0.000      0.000
REMARK  8 active torsions:
REMARK  status: ('A' for Active; 'I' for Inactive)
REMARK       I    between atoms: C_2  and  N_3 
REMARK    1  A    between atoms: C_2  and  C_18 
REMARK    2  A    between atoms: N_3  and  C_14 
REMARK    3  A    between atoms: Se_6  and  C_20 
REMARK    4  A    between atoms: C_9  and  C_18 
REMARK    5  A    between atoms: C_9  and  C_13 
REMARK    6  A    between atoms: N_11  and  C_18 
REMARK    7  A    between atoms: C_14  and  C_20 
REMARK    8  A    between atoms: C_14  and  C_17 
ROOT
HETATM    1  C           1     -34.448  -2.388 -12.437  0.00  0.00     0.249 C 
HETATM    2  N           1     -35.094  -1.183 -12.376  0.00  0.00    -0.345 N 
HETATM    3  H           1     -35.057  -0.632 -11.528  0.00  0.00     0.163 HD
HETATM    4  O           1     -34.491  -3.047 -13.449  0.00  0.00    -0.271 OA
ENDROOT
BRANCH   1   5
HETATM    5  C           1     -33.680  -2.894 -11.241  0.00  0.00     0.284 C 
BRANCH   5   6
HETATM    6  C           1     -34.365  -4.137 -10.686  0.00  0.00     0.155 C 
BRANCH   6   7
HETATM    7  C           1     -33.580  -5.363 -11.081  0.00  0.00     0.175 C 
HETATM    8  O           1     -34.019  -6.502 -10.810  0.00  0.00    -0.648 OA
HETATM    9  O           1     -32.489  -5.239 -11.679  0.00  0.00    -0.648 OA
ENDBRANCH   6   7
ENDBRANCH   5   6
BRANCH   5  10
HETATM   10  N           1     -33.645  -1.830 -10.183  0.00  0.00    -0.066 N 
HETATM   11  H           1     -33.373  -2.258  -9.269  0.00  0.00     0.275 HD
HETATM   12  H           1     -34.592  -1.395 -10.098  0.00  0.00     0.275 HD
HETATM   13  H           1     -32.947  -1.099 -10.447  0.00  0.00     0.275 HD
ENDBRANCH   5  10
ENDBRANCH   1   5
BRANCH   2  14
HETATM   14  C           1     -35.831  -0.698 -13.526  0.00  0.00     0.185 C 
BRANCH  14  15
HETATM   15  C           1     -37.153  -0.097 -13.064  0.00  0.00     0.039 C 
BRANCH  15  16
HETATM   16 Se           1     -37.219  -0.089 -11.116  0.00  0.00     0.000 Se
HETATM   17  H           1     -38.548  -0.717 -11.043  0.00  0.00     0.000 HD
ENDBRANCH  15  16
ENDBRANCH  14  15
BRANCH  14  18
HETATM   18  C           1     -35.020   0.359 -14.234  0.00  0.00     0.196 C 
HETATM   19  O           1     -34.755   1.435 -13.657  0.00  0.00    -0.646 OA
HETATM   20  O           1     -34.612   0.158 -15.399  0.00  0.00    -0.646 OA
ENDBRANCH  14  18
ENDBRANCH   2  14
TORSDOF 8
ENDMDL
MODEL 2
REMARK VINA RESULT:      -5.6     11.870     13.711
REMARK  8 active torsions:
REMARK  status: ('A' for Active; 'I' for Inactive)
REMARK       I    between atoms: C_2  and  N_3 
REMARK    1  A    between atoms: C_2  and  C_18 
REMARK    2  A    between atoms: N_3  and  C_14 
REMARK    3  A    between atoms: Se_6  and  C_20 
REMARK    4  A    between atoms: C_9  and  C_18 
REMARK    5  A    between atoms: C_9  and  C_13 
REMARK    6  A    between atoms: N_11  and  C_18 
REMARK    7  A    between atoms: C_14  and  C_20 
REMARK    8  A    between atoms: C_14  and  C_17 
ROOT
HETATM    1  C           1     -22.648  -3.965 -10.555  0.00  0.00     0.249 C 
HETATM    2  N           1     -21.564  -3.995  -9.721  0.00  0.00    -0.345 N 
HETATM    3  H           1     -20.762  -3.407  -9.910  0.00  0.00     0.163 HD
HETATM    4  O           1     -23.606  -4.665 -10.329  0.00  0.00    -0.271 OA
ENDROOT
BRANCH   1   5
HETATM    5  C           1     -22.647  -3.056 -11.760  0.00  0.00     0.284 C 
BRANCH   5   6
HETATM    6  C           1     -24.050  -2.996 -12.353  0.00  0.00     0.155 C 
BRANCH   6   7
HETATM    7  C           1     -23.956  -2.828 -13.849  0.00  0.00     0.175 C 
HETATM    8  O           1     -24.008  -3.829 -14.596  0.00  0.00    -0.648 OA
HETATM    9  O           1     -23.826  -1.687 -14.342  0.00  0.00    -0.648 OA
ENDBRANCH   6   7
ENDBRANCH   5   6
BRANCH   5  10
HETATM   10  N           1     -21.693  -3.588 -12.787  0.00  0.00    -0.066 N 
HETATM   11  H           1     -21.747  -4.632 -12.805  0.00  0.00     0.275 HD
HETATM   12  H           1     -20.720  -3.293 -12.544  0.00  0.00     0.275 HD
HETATM   13  H           1     -21.947  -3.210 -13.728  0.00  0.00     0.275 HD
ENDBRANCH   5  10
ENDBRANCH   1   5
BRANCH   2  14
HETATM   14  C           1     -21.565  -4.869  -8.564  0.00  0.00     0.185 C 
BRANCH  14  15
HETATM   15  C           1     -20.139  -5.309  -8.259  0.00  0.00     0.039 C 
BRANCH  15  16
HETATM   16 Se           1     -20.108  -6.303  -6.583  0.00  0.00     0.000 Se
HETATM   17  H           1     -21.551  -6.588  -6.592  0.00  0.00     0.000 HD
ENDBRANCH  15  16
ENDBRANCH  14  15
BRANCH  14  18
HETATM   18  C           1     -22.128  -4.129  -7.375  0.00  0.00     0.196 C 
HETATM   19  O           1     -21.527  -3.133  -6.918  0.00  0.00    -0.646 OA
HETATM   20  O           1     -23.194  -4.512  -6.847  0.00  0.00    -0.646 OA
ENDBRANCH  14  18
ENDBRANCH   2  14
TORSDOF 8
ENDMDL
MODEL 3
REMARK VINA RESULT:      -5.5      2.776      5.725
REMARK  8 active torsions:
REMARK  status: ('A' for Active; 'I' for Inactive)
REMARK       I    between atoms: C_2  and  N_3 
REMARK    1  A    between atoms: C_2  and  C_18 
REMARK    2  A    between atoms: N_3  and  C_14 
REMARK    3  A    between atoms: Se_6  and  C_20 
REMARK    4  A    between atoms: C_9  and  C_18 
REMARK    5  A    between atoms: C_9  and  C_13 
REMARK    6  A    between atoms: N_11  and  C_18 
REMARK    7  A    between atoms: C_14  and  C_20 
REMARK    8  A    between atoms: C_14  and  C_17 
ROOT
HETATM    1  C           1     -36.004  -1.106 -12.675  0.00  0.00     0.249 C 
HETATM    2  N           1     -35.009  -2.029 -12.849  0.00  0.00    -0.345 N 
HETATM    3  H           1     -34.445  -2.015 -13.689  0.00  0.00     0.163 HD
HETATM    4  O           1     -36.676  -1.122 -11.672  0.00  0.00    -0.271 OA
ENDROOT
BRANCH   1   5
HETATM    5  C           1     -36.262  -0.067 -13.739  0.00  0.00     0.284 C 
BRANCH   5   6
HETATM    6  C           1     -37.676  -0.234 -14.281  0.00  0.00     0.155 C 
BRANCH   6   7
HETATM    7  C           1     -37.683   0.038 -15.764  0.00  0.00     0.175 C 
HETATM    8  O           1     -37.681  -0.914 -16.575  0.00  0.00    -0.648 OA
HETATM    9  O           1     -37.688   1.216 -16.183  0.00  0.00    -0.648 OA
ENDBRANCH   6   7
ENDBRANCH   5   6
BRANCH   5  10
HETATM   10  N           1     -35.276  -0.240 -14.857  0.00  0.00    -0.066 N 
HETATM   11  H           1     -34.395  -0.659 -14.481  0.00  0.00     0.275 HD
HETATM   12  H           1     -35.067   0.691 -15.282  0.00  0.00     0.275 HD
HETATM   13  H           1     -35.680  -0.873 -15.583  0.00  0.00     0.275 HD
ENDBRANCH   5  10
ENDBRANCH   1   5
BRANCH   2  14
HETATM   14  C           1     -34.761  -3.027 -11.826  0.00  0.00     0.185 C 
BRANCH  14  15
HETATM   15  C           1     -34.560  -4.387 -12.484  0.00  0.00     0.039 C 
BRANCH  15  16
HETATM   16 Se           1     -34.496  -5.770 -11.112  0.00  0.00     0.000 Se
HETATM   17  H           1     -33.150  -6.237 -11.483  0.00  0.00     0.000 HD
ENDBRANCH  15  16
ENDBRANCH  14  15
BRANCH  14  18
HETATM   18  C           1     -33.522  -2.656 -11.050  0.00  0.00     0.196 C 
HETATM   19  O           1     -33.597  -1.839 -10.107  0.00  0.00    -0.646 OA
HETATM   20  O           1     -32.420  -3.165 -11.350  0.00  0.00    -0.646 OA
ENDBRANCH  14  18
ENDBRANCH   2  14
TORSDOF 8
ENDMDL
MODEL 4
REMARK VINA RESULT:      -5.5     12.254     13.823
REMARK  8 active torsions:
REMARK  status: ('A' for Active; 'I' for Inactive)
REMARK       I    between atoms: C_2  and  N_3 
REMARK    1  A    between atoms: C_2  and  C_18 
REMARK    2  A    between atoms: N_3  and  C_14 
REMARK    3  A    between atoms: Se_6  and  C_20 
REMARK    4  A    between atoms: C_9  and  C_18 
REMARK    5  A    between atoms: C_9  and  C_13 
REMARK    6  A    between atoms: N_11  and  C_18 
REMARK    7  A    between atoms: C_14  and  C_20 
REMARK    8  A    between atoms: C_14  and  C_17 
ROOT
HETATM    1  C           1     -21.581  -4.349  -7.480  0.00  0.00     0.249 C 
HETATM    2  N           1     -22.148  -4.762  -8.656  0.00  0.00    -0.345 N 
HETATM    3  H           1     -22.213  -5.749  -8.868  0.00  0.00     0.163 HD
HETATM    4  O           1     -21.503  -3.171  -7.227  0.00  0.00    -0.271 OA
ENDROOT
BRANCH   1   5
HETATM    5  C           1     -21.052  -5.368  -6.500  0.00  0.00     0.284 C 
BRANCH   5   6
HETATM    6  C           1     -22.214  -5.974  -5.722  0.00  0.00     0.155 C 
BRANCH   6   7
HETATM    7  C           1     -21.713  -6.505  -4.402  0.00  0.00     0.175 C 
HETATM    8  O           1     -20.884  -7.441  -4.378  0.00  0.00    -0.648 OA
HETATM    9  O           1     -22.127  -6.009  -3.332  0.00  0.00    -0.648 OA
ENDBRANCH   6   7
ENDBRANCH   5   6
BRANCH   5  10
HETATM   10  N           1     -20.107  -4.700  -5.546  0.00  0.00    -0.066 N 
HETATM   11  H           1     -20.557  -3.841  -5.155  0.00  0.00     0.275 HD
HETATM   12  H           1     -19.231  -4.437  -6.053  0.00  0.00     0.275 HD
HETATM   13  H           1     -19.875  -5.358  -4.767  0.00  0.00     0.275 HD
ENDBRANCH   5  10
ENDBRANCH   1   5
BRANCH   2  14
HETATM   14  C           1     -22.655  -3.783  -9.598  0.00  0.00     0.185 C 
BRANCH  14  15
HETATM   15  C           1     -22.085  -4.068 -10.982  0.00  0.00     0.039 C 
BRANCH  15  16
HETATM   16 Se           1     -22.796  -2.777 -12.257  0.00  0.00     0.000 Se
HETATM   17  H           1     -23.308  -3.799 -13.183  0.00  0.00     0.000 HD
ENDBRANCH  15  16
ENDBRANCH  14  15
BRANCH  14  18
HETATM   18  C           1     -24.161  -3.866  -9.647  0.00  0.00     0.196 C 
HETATM   19  O           1     -24.717  -4.944  -9.948  0.00  0.00    -0.646 OA
HETATM   20  O           1     -24.852  -2.857  -9.388  0.00  0.00    -0.646 OA
ENDBRANCH  14  18
ENDBRANCH   2  14
TORSDOF 8
ENDMDL
MODEL 5
REMARK VINA RESULT:      -5.3      3.840      5.631
REMARK  8 active torsions:
REMARK  status: ('A' for Active; 'I' for Inactive)
REMARK       I    between atoms: C_2  and  N_3 
REMARK    1  A    between atoms: C_2  and  C_18 
REMARK    2  A    between atoms: N_3  and  C_14 
REMARK    3  A    between atoms: Se_6  and  C_20 
REMARK    4  A    between atoms: C_9  and  C_18 
REMARK    5  A    between atoms: C_9  and  C_13 
REMARK    6  A    between atoms: N_11  and  C_18 
REMARK    7  A    between atoms: C_14  and  C_20 
REMARK    8  A    between atoms: C_14  and  C_17 
ROOT
HETATM    1  C           1     -36.864  -0.159 -13.067  0.00  0.00     0.249 C 
HETATM    2  N           1     -36.200  -0.327 -11.883  0.00  0.00    -0.345 N 
HETATM    3  H           1     -35.211  -0.117 -11.822  0.00  0.00     0.163 HD
HETATM    4  O           1     -38.044  -0.407 -13.140  0.00  0.00    -0.271 OA
ENDROOT
BRANCH   1   5
HETATM    5  C           1     -36.122   0.338 -14.283  0.00  0.00     0.284 C 
BRANCH   5   6
HETATM    6  C           1     -37.116   0.626 -15.402  0.00  0.00     0.155 C 
BRANCH   6   7
HETATM    7  C           1     -37.193  -0.565 -16.326  0.00  0.00     0.175 C 
HETATM    8  O           1     -36.376  -0.682 -17.264  0.00  0.00    -0.648 OA
HETATM    9  O           1     -38.075  -1.433 -16.152  0.00  0.00    -0.648 OA
ENDBRANCH   6   7
ENDBRANCH   5   6
BRANCH   5  10
HETATM   10  N           1     -35.148  -0.708 -14.738  0.00  0.00    -0.066 N 
HETATM   11  H           1     -34.979  -1.386 -13.961  0.00  0.00     0.275 HD
HETATM   12  H           1     -34.248  -0.251 -15.006  0.00  0.00     0.275 HD
HETATM   13  H           1     -35.541  -1.215 -15.563  0.00  0.00     0.275 HD
ENDBRANCH   5  10
ENDBRANCH   1   5
BRANCH   2  14
HETATM   14  C           1     -36.913  -0.805 -10.714  0.00  0.00     0.185 C 
BRANCH  14  15
HETATM   15  C           1     -36.199  -2.026 -10.149  0.00  0.00     0.039 C 
BRANCH  15  16
HETATM   16 Se           1     -34.440  -2.192 -10.972  0.00  0.00     0.000 Se
HETATM   17  H           1     -33.980  -0.866 -10.529  0.00  0.00     0.000 HD
ENDBRANCH  15  16
ENDBRANCH  14  15
BRANCH  14  18
HETATM   18  C           1     -36.952   0.283  -9.669  0.00  0.00     0.196 C 
HETATM   19  O           1     -36.189   0.228  -8.681  0.00  0.00    -0.646 OA
HETATM   20  O           1     -37.748   1.239  -9.791  0.00  0.00    -0.646 OA
ENDBRANCH  14  18
ENDBRANCH   2  14
TORSDOF 8
ENDMDL
MODEL 6
REMARK VINA RESULT:      -5.3     11.810     13.836
REMARK  8 active torsions:
REMARK  status: ('A' for Active; 'I' for Inactive)
REMARK       I    between atoms: C_2  and  N_3 
REMARK    1  A    between atoms: C_2  and  C_18 
REMARK    2  A    between atoms: N_3  and  C_14 
REMARK    3  A    between atoms: Se_6  and  C_20 
REMARK    4  A    between atoms: C_9  and  C_18 
REMARK    5  A    between atoms: C_9  and  C_13 
REMARK    6  A    between atoms: N_11  and  C_18 
REMARK    7  A    between atoms: C_14  and  C_20 
REMARK    8  A    between atoms: C_14  and  C_17 
ROOT
HETATM    1  C           1     -23.404  -4.506  -8.782  0.00  0.00     0.249 C 
HETATM    2  N           1     -22.102  -4.865  -9.004  0.00  0.00    -0.345 N 
HETATM    3  H           1     -21.819  -5.208  -9.913  0.00  0.00     0.163 HD
HETATM    4  O           1     -23.742  -4.095  -7.698  0.00  0.00    -0.271 OA
ENDROOT
BRANCH   1   5
HETATM    5  C           1     -24.418  -4.622  -9.894  0.00  0.00     0.284 C 
BRANCH   5   6
HETATM    6  C           1     -23.699  -4.634 -11.238  0.00  0.00     0.155 C 
BRANCH   6   7
HETATM    7  C           1     -23.975  -3.344 -11.969  0.00  0.00     0.175 C 
HETATM    8  O           1     -23.152  -2.405 -11.913  0.00  0.00    -0.648 OA
HETATM    9  O           1     -25.028  -3.214 -12.629  0.00  0.00    -0.648 OA
ENDBRANCH   6   7
ENDBRANCH   5   6
BRANCH   5  10
HETATM   10  N           1     -25.355  -3.451  -9.841  0.00  0.00    -0.066 N 
HETATM   11  H           1     -26.115  -3.646  -9.151  0.00  0.00     0.275 HD
HETATM   12  H           1     -25.772  -3.298 -10.787  0.00  0.00     0.275 HD
HETATM   13  H           1     -24.829  -2.597  -9.548  0.00  0.00     0.275 HD
ENDBRANCH   5  10
ENDBRANCH   1   5
BRANCH   2  14
HETATM   14  C           1     -21.128  -4.753  -7.935  0.00  0.00     0.185 C 
BRANCH  14  15
HETATM   15  C           1     -21.090  -6.056  -7.146  0.00  0.00     0.039 C 
BRANCH  15  16
HETATM   16 Se           1     -20.980  -5.661  -5.241  0.00  0.00     0.000 Se
HETATM   17  H           1     -19.518  -5.817  -5.176  0.00  0.00     0.000 HD
ENDBRANCH  15  16
ENDBRANCH  14  15
BRANCH  14  18
HETATM   18  C           1     -19.765  -4.481  -8.523  0.00  0.00     0.196 C 
HETATM   19  O           1     -19.601  -4.519  -9.761  0.00  0.00    -0.646 OA
HETATM   20  O           1     -18.802  -4.217  -7.771  0.00  0.00    -0.646 OA
ENDBRANCH  14  18
ENDBRANCH   2  14
TORSDOF 8
ENDMDL
MODEL 7
REMARK VINA RESULT:      -5.3     11.846     13.805
REMARK  8 active torsions:
REMARK  status: ('A' for Active; 'I' for Inactive)
REMARK       I    between atoms: C_2  and  N_3 
REMARK    1  A    between atoms: C_2  and  C_18 
REMARK    2  A    between atoms: N_3  and  C_14 
REMARK    3  A    between atoms: Se_6  and  C_20 
REMARK    4  A    between atoms: C_9  and  C_18 
REMARK    5  A    between atoms: C_9  and  C_13 
REMARK    6  A    between atoms: N_11  and  C_18 
REMARK    7  A    between atoms: C_14  and  C_20 
REMARK    8  A    between atoms: C_14  and  C_17 
ROOT
HETATM    1  C           1     -21.492  -4.462 -10.640  0.00  0.00     0.249 C 
HETATM    2  N           1     -22.183  -4.436  -9.459  0.00  0.00    -0.345 N 
HETATM    3  H           1     -23.168  -4.203  -9.453  0.00  0.00     0.163 HD
HETATM    4  O           1     -20.317  -4.740 -10.648  0.00  0.00    -0.271 OA
ENDROOT
BRANCH   1   5
HETATM    5  C           1     -22.200  -4.144 -11.934  0.00  0.00     0.284 C 
BRANCH   5   6
HETATM    6  C           1     -22.881  -2.785 -11.820  0.00  0.00     0.155 C 
BRANCH   6   7
HETATM    7  C           1     -24.378  -2.968 -11.860  0.00  0.00     0.175 C 
HETATM    8  O           1     -24.992  -2.870 -12.944  0.00  0.00    -0.648 OA
HETATM    9  O           1     -25.004  -3.218 -10.807  0.00  0.00    -0.648 OA
ENDBRANCH   6   7
ENDBRANCH   5   6
BRANCH   5  10
HETATM   10  N           1     -23.231  -5.197 -12.212  0.00  0.00    -0.066 N 
HETATM   11  H           1     -23.504  -5.662 -11.317  0.00  0.00     0.275 HD
HETATM   12  H           1     -22.832  -5.908 -12.868  0.00  0.00     0.275 HD
HETATM   13  H           1     -24.073  -4.756 -12.646  0.00  0.00     0.275 HD
ENDBRANCH   5  10
ENDBRANCH   1   5
BRANCH   2  14
HETATM   14  C           1     -21.502  -4.741  -8.215  0.00  0.00     0.185 C 
BRANCH  14  15
HETATM   15  C           1     -20.490  -3.644  -7.908  0.00  0.00     0.039 C 
BRANCH  15  16
HETATM   16 Se           1     -18.816  -4.450  -7.320  0.00  0.00     0.000 Se
HETATM   17  H           1     -17.970  -3.567  -8.139  0.00  0.00     0.000 HD
ENDBRANCH  15  16
ENDBRANCH  14  15
BRANCH  14  18
HETATM   18  C           1     -22.512  -4.822  -7.096  0.00  0.00     0.196 C 
HETATM   19  O           1     -22.194  -5.343  -6.006  0.00  0.00    -0.646 OA
HETATM   20  O           1     -23.665  -4.368  -7.261  0.00  0.00    -0.646 OA
ENDBRANCH  14  18
ENDBRANCH   2  14
TORSDOF 8
ENDMDL
MODEL 8
REMARK VINA RESULT:      -5.3     10.596     11.641
REMARK  8 active torsions:
REMARK  status: ('A' for Active; 'I' for Inactive)
REMARK       I    between atoms: C_2  and  N_3 
REMARK    1  A    between atoms: C_2  and  C_18 
REMARK    2  A    between atoms: N_3  and  C_14 
REMARK    3  A    between atoms: Se_6  and  C_20 
REMARK    4  A    between atoms: C_9  and  C_18 
REMARK    5  A    between atoms: C_9  and  C_13 
REMARK    6  A    between atoms: N_11  and  C_18 
REMARK    7  A    between atoms: C_14  and  C_20 
REMARK    8  A    between atoms: C_14  and  C_17 
ROOT
HETATM    1  C           1     -26.513  -6.292 -18.413  0.00  0.00     0.249 C 
HETATM    2  N           1     -27.764  -6.672 -18.816  0.00  0.00    -0.345 N 
HETATM    3  H           1     -27.909  -7.025 -19.754  0.00  0.00     0.163 HD
HETATM    4  O           1     -26.339  -5.872 -17.294  0.00  0.00    -0.271 OA
ENDROOT
BRANCH   1   5
HETATM    5  C           1     -25.349  -6.400 -19.368  0.00  0.00     0.284 C 
BRANCH   5   6
HETATM    6  C           1     -25.869  -6.461 -20.799  0.00  0.00     0.155 C 
BRANCH   6   7
HETATM    7  C           1     -25.719  -7.865 -21.329  0.00  0.00     0.175 C 
HETATM    8  O           1     -24.645  -8.222 -21.860  0.00  0.00    -0.648 OA
HETATM    9  O           1     -26.670  -8.671 -21.238  0.00  0.00    -0.648 OA
ENDBRANCH   6   7
ENDBRANCH   5   6
BRANCH   5  10
HETATM   10  N           1     -24.569  -7.645 -19.067  0.00  0.00    -0.066 N 
HETATM   11  H           1     -25.165  -8.305 -18.516  0.00  0.00     0.275 HD
HETATM   12  H           1     -23.718  -7.397 -18.512  0.00  0.00     0.275 HD
HETATM   13  H           1     -24.280  -8.101 -19.962  0.00  0.00     0.275 HD
ENDBRANCH   5  10
ENDBRANCH   1   5
BRANCH   2  14
HETATM   14  C           1     -28.883  -6.569 -17.899  0.00  0.00     0.185 C 
BRANCH  14  15
HETATM   15  C           1     -29.820  -5.461 -18.365  0.00  0.00     0.039 C 
BRANCH  15  16
HETATM   16 Se           1     -31.202  -5.170 -17.022  0.00  0.00     0.000 Se
HETATM   17  H           1     -31.683  -6.561 -17.049  0.00  0.00     0.000 HD
ENDBRANCH  15  16
ENDBRANCH  14  15
BRANCH  14  18
HETATM   18  C           1     -29.630  -7.879 -17.867  0.00  0.00     0.196 C 
HETATM   19  O           1     -29.552  -8.618 -16.862  0.00  0.00    -0.646 OA
HETATM   20  O           1     -30.326  -8.226 -18.846  0.00  0.00    -0.646 OA
ENDBRANCH  14  18
ENDBRANCH   2  14
TORSDOF 8
ENDMDL
MODEL 9
REMARK VINA RESULT:      -5.3      2.631      5.900
REMARK  8 active torsions:
REMARK  status: ('A' for Active; 'I' for Inactive)
REMARK       I    between atoms: C_2  and  N_3 
REMARK    1  A    between atoms: C_2  and  C_18 
REMARK    2  A    between atoms: N_3  and  C_14 
REMARK    3  A    between atoms: Se_6  and  C_20 
REMARK    4  A    between atoms: C_9  and  C_18 
REMARK    5  A    between atoms: C_9  and  C_13 
REMARK    6  A    between atoms: N_11  and  C_18 
REMARK    7  A    between atoms: C_14  and  C_20 
REMARK    8  A    between atoms: C_14  and  C_17 
ROOT
HETATM    1  C           1     -35.105  -1.404 -13.505  0.00  0.00     0.249 C 
HETATM    2  N           1     -34.918  -1.826 -12.216  0.00  0.00    -0.345 N 
HETATM    3  H           1     -35.054  -1.182 -11.448  0.00  0.00     0.163 HD
HETATM    4  O           1     -34.944  -2.173 -14.423  0.00  0.00    -0.271 OA
ENDROOT
BRANCH   1   5
HETATM    5  C           1     -35.512   0.023 -13.779  0.00  0.00     0.284 C 
BRANCH   5   6
HETATM    6  C           1     -36.950   0.052 -14.284  0.00  0.00     0.155 C 
BRANCH   6   7
HETATM    7  C           1     -36.957   0.344 -15.764  0.00  0.00     0.175 C 
HETATM    8  O           1     -36.992   1.527 -16.168  0.00  0.00    -0.648 OA
HETATM    9  O           1     -36.930  -0.597 -16.586  0.00  0.00    -0.648 OA
ENDBRANCH   6   7
ENDBRANCH   5   6
BRANCH   5  10
HETATM   10  N           1     -34.605   0.610 -14.820  0.00  0.00    -0.066 N 
HETATM   11  H           1     -34.893   1.596 -15.015  0.00  0.00     0.275 HD
HETATM   12  H           1     -34.673   0.046 -15.697  0.00  0.00     0.275 HD
HETATM   13  H           1     -33.620   0.597 -14.472  0.00  0.00     0.275 HD
ENDBRANCH   5  10
ENDBRANCH   1   5
BRANCH   2  14
HETATM   14  C           1     -34.527  -3.197 -11.953  0.00  0.00     0.185 C 
BRANCH  14  15
HETATM   15  C           1     -33.124  -3.219 -11.360  0.00  0.00     0.039 C 
BRANCH  15  16
HETATM   16 Se           1     -32.115  -4.700 -12.127  0.00  0.00     0.000 Se
HETATM   17  H           1     -31.383  -3.856 -13.086  0.00  0.00     0.000 HD
ENDBRANCH  15  16
ENDBRANCH  14  15
BRANCH  14  18
HETATM   18  C           1     -35.495  -3.818 -10.976  0.00  0.00     0.196 C 
HETATM   19  O           1     -36.509  -3.184 -10.614  0.00  0.00    -0.646 OA
HETATM   20  O           1     -35.283  -4.966 -10.529  0.00  0.00    -0.646 OA
ENDBRANCH  14  18
ENDBRANCH   2  14
TORSDOF 8
ENDMDL
