MODEL 1
REMARK VINA RESULT:      -6.1      0.000      0.000
REMARK  9 active torsions:
REMARK  status: ('A' for Active; 'I' for Inactive)
REMARK    1  A    between atoms: C_1  and  C_11 
REMARK    2  A    between atoms: C_1  and  C_2 
REMARK    3  A    between atoms: C_1  and  N_4 
REMARK    4  A    between atoms: C_2  and  Se_3 
REMARK       I    between atoms: C_11  and  N_12 
REMARK    5  A    between atoms: N_12  and  C_16 
REMARK    6  A    between atoms: C_15  and  C_16 
REMARK    7  A    between atoms: C_16  and  C_17 
REMARK    8  A    between atoms: C_17  and  C_18 
REMARK    9  A    between atoms: C_18  and  C_20 
ROOT
HETATM    1  O           1     -21.772  -3.373  -7.545  0.00  0.00    -0.271 OA
HETATM    2  H           1     -22.170  -5.773  -9.526  0.00  0.00     0.163 HD
HETATM    3  C           1     -21.710  -4.509  -7.953  0.00  0.00     0.249 C 
HETATM    4  N           1     -22.221  -4.822  -9.184  0.00  0.00    -0.345 N 
ENDROOT
BRANCH   4   5
HETATM    5  C           1     -22.836  -3.791  -9.997  0.00  0.00     0.186 C 
BRANCH   5   6
HETATM    6  C           1     -24.330  -3.810  -9.787  0.00  0.00     0.196 C 
HETATM    7  O           1     -24.959  -4.887  -9.870  0.00  0.00    -0.646 OA
HETATM    8  O           1     -24.939  -2.750  -9.529  0.00  0.00    -0.646 OA
ENDBRANCH   5   6
BRANCH   5   9
HETATM    9  C           1     -22.526  -4.050 -11.465  0.00  0.00     0.046 C 
BRANCH   9  10
HETATM   10  C           1     -22.684  -2.758 -12.255  0.00  0.00     0.116 C 
BRANCH  10  11
HETATM   11  C           1     -23.746  -2.940 -13.312  0.00  0.00     0.172 C 
HETATM   12  O           1     -24.953  -2.951 -12.989  0.00  0.00    -0.648 OA
HETATM   13  O           1     -23.418  -3.080 -14.510  0.00  0.00    -0.648 OA
ENDBRANCH  10  11
ENDBRANCH   9  10
ENDBRANCH   5   9
ENDBRANCH   4   5
BRANCH   3  14
HETATM   14  C           1     -21.071  -5.581  -7.106  0.00  0.00     0.274 C 
BRANCH  14  15
HETATM   15  C           1     -20.745  -5.017  -5.731  0.00  0.00     0.045 C 
BRANCH  15  16
HETATM   16 Se           1     -21.363  -6.253  -4.357  0.00  0.00     0.000 Se
HETATM   17  H           1     -20.686  -5.549  -3.254  0.00  0.00     0.000 HD
ENDBRANCH  15  16
ENDBRANCH  14  15
BRANCH  14  18
HETATM   18  N           1     -19.808  -6.051  -7.765  0.00  0.00    -0.067 N 
HETATM   19  H           1     -18.982  -5.684  -7.240  0.00  0.00     0.275 HD
HETATM   20  H           1     -19.783  -7.095  -7.767  0.00  0.00     0.275 HD
HETATM   21  H           1     -19.777  -5.700  -8.750  0.00  0.00     0.275 HD
ENDBRANCH  14  18
ENDBRANCH   3  14
TORSDOF 9
ENDMDL
MODEL 2
REMARK VINA RESULT:      -6.0     11.934     13.401
REMARK  9 active torsions:
REMARK  status: ('A' for Active; 'I' for Inactive)
REMARK    1  A    between atoms: C_1  and  C_11 
REMARK    2  A    between atoms: C_1  and  C_2 
REMARK    3  A    between atoms: C_1  and  N_4 
REMARK    4  A    between atoms: C_2  and  Se_3 
REMARK       I    between atoms: C_11  and  N_12 
REMARK    5  A    between atoms: N_12  and  C_16 
REMARK    6  A    between atoms: C_15  and  C_16 
REMARK    7  A    between atoms: C_16  and  C_17 
REMARK    8  A    between atoms: C_17  and  C_18 
REMARK    9  A    between atoms: C_18  and  C_20 
ROOT
HETATM    1  O           1     -33.665  -2.062 -11.387  0.00  0.00    -0.271 OA
HETATM    2  H           1     -36.149  -2.264 -13.293  0.00  0.00     0.163 HD
HETATM    3  C           1     -34.451  -2.572 -12.150  0.00  0.00     0.249 C 
HETATM    4  N           1     -35.490  -1.837 -12.654  0.00  0.00    -0.345 N 
ENDROOT
BRANCH   4   5
HETATM    5  C           1     -35.647  -0.447 -12.273  0.00  0.00     0.186 C 
BRANCH   5   6
HETATM    6  C           1     -36.647  -0.344 -11.149  0.00  0.00     0.196 C 
HETATM    7  O           1     -36.476   0.493 -10.236  0.00  0.00    -0.646 OA
HETATM    8  O           1     -37.647  -1.094 -11.129  0.00  0.00    -0.646 OA
ENDBRANCH   5   6
BRANCH   5   9
HETATM    9  C           1     -36.142   0.355 -13.470  0.00  0.00     0.046 C 
BRANCH   9  10
HETATM   10  C           1     -35.089   0.330 -14.570  0.00  0.00     0.116 C 
BRANCH  10  11
HETATM   11  C           1     -35.538  -0.592 -15.676  0.00  0.00     0.172 C 
HETATM   12  O           1     -35.197  -1.795 -15.664  0.00  0.00    -0.648 OA
HETATM   13  O           1     -36.251  -0.154 -16.605  0.00  0.00    -0.648 OA
ENDBRANCH  10  11
ENDBRANCH   9  10
ENDBRANCH   5   9
ENDBRANCH   4   5
BRANCH   3  14
HETATM   14  C           1     -34.288  -4.019 -12.546  0.00  0.00     0.274 C 
BRANCH  14  15
HETATM   15  C           1     -33.328  -4.704 -11.584  0.00  0.00     0.045 C 
BRANCH  15  16
HETATM   16 Se           1     -34.280  -6.079 -10.583  0.00  0.00     0.000 Se
HETATM   17  H           1     -33.190  -6.294  -9.616  0.00  0.00     0.000 HD
ENDBRANCH  15  16
ENDBRANCH  14  15
BRANCH  14  18
HETATM   18  N           1     -33.739  -4.096 -13.939  0.00  0.00    -0.067 N 
HETATM   19  H           1     -34.518  -4.282 -14.612  0.00  0.00     0.275 HD
HETATM   20  H           1     -33.277  -3.191 -14.183  0.00  0.00     0.275 HD
HETATM   21  H           1     -33.039  -4.871 -13.995  0.00  0.00     0.275 HD
ENDBRANCH  14  18
ENDBRANCH   3  14
TORSDOF 9
ENDMDL
MODEL 3
REMARK VINA RESULT:      -5.8     12.919     14.833
REMARK  9 active torsions:
REMARK  status: ('A' for Active; 'I' for Inactive)
REMARK    1  A    between atoms: C_1  and  C_11 
REMARK    2  A    between atoms: C_1  and  C_2 
REMARK    3  A    between atoms: C_1  and  N_4 
REMARK    4  A    between atoms: C_2  and  Se_3 
REMARK       I    between atoms: C_11  and  N_12 
REMARK    5  A    between atoms: N_12  and  C_16 
REMARK    6  A    between atoms: C_15  and  C_16 
REMARK    7  A    between atoms: C_16  and  C_17 
REMARK    8  A    between atoms: C_17  and  C_18 
REMARK    9  A    between atoms: C_18  and  C_20 
ROOT
HETATM    1  O           1     -37.845  -0.649 -13.468  0.00  0.00    -0.271 OA
HETATM    2  H           1     -35.136   0.163 -12.109  0.00  0.00     0.163 HD
HETATM    3  C           1     -36.744  -0.159 -13.371  0.00  0.00     0.249 C 
HETATM    4  N           1     -36.057  -0.248 -12.191  0.00  0.00    -0.345 N 
ENDROOT
BRANCH   4   5
HETATM    5  C           1     -36.649  -0.930 -11.056  0.00  0.00     0.186 C 
BRANCH   5   6
HETATM    6  C           1     -36.845   0.050  -9.926  0.00  0.00     0.196 C 
HETATM    7  O           1     -37.641   1.006 -10.060  0.00  0.00    -0.646 OA
HETATM    8  O           1     -36.214  -0.092  -8.857  0.00  0.00    -0.646 OA
ENDBRANCH   5   6
BRANCH   5   9
HETATM    9  C           1     -35.727  -2.053 -10.601  0.00  0.00     0.046 C 
BRANCH   9  10
HETATM   10  C           1     -34.370  -1.902 -11.276  0.00  0.00     0.116 C 
BRANCH  10  11
HETATM   11  C           1     -34.208  -2.973 -12.328  0.00  0.00     0.172 C 
HETATM   12  O           1     -33.703  -4.075 -12.024  0.00  0.00    -0.648 OA
HETATM   13  O           1     -34.580  -2.758 -13.501  0.00  0.00    -0.648 OA
ENDBRANCH  10  11
ENDBRANCH   9  10
ENDBRANCH   5   9
ENDBRANCH   4   5
BRANCH   3  14
HETATM   14  C           1     -36.129   0.552 -14.551  0.00  0.00     0.274 C 
BRANCH  14  15
HETATM   15  C           1     -36.763   0.044 -15.839  0.00  0.00     0.045 C 
BRANCH  15  16
HETATM   16 Se           1     -35.597  -1.287 -16.657  0.00  0.00     0.000 Se
HETATM   17  H           1     -36.004  -2.371 -15.747  0.00  0.00     0.000 HD
ENDBRANCH  15  16
ENDBRANCH  14  15
BRANCH  14  18
HETATM   18  N           1     -34.654   0.283 -14.581  0.00  0.00    -0.067 N 
HETATM   19  H           1     -34.483  -0.744 -14.491  0.00  0.00     0.275 HD
HETATM   20  H           1     -34.257   0.624 -15.486  0.00  0.00     0.275 HD
HETATM   21  H           1     -34.192   0.783 -13.788  0.00  0.00     0.275 HD
ENDBRANCH  14  18
ENDBRANCH   3  14
TORSDOF 9
ENDMDL
MODEL 4
REMARK VINA RESULT:      -5.5     12.402     14.094
REMARK  9 active torsions:
REMARK  status: ('A' for Active; 'I' for Inactive)
REMARK    1  A    between atoms: C_1  and  C_11 
REMARK    2  A    between atoms: C_1  and  C_2 
REMARK    3  A    between atoms: C_1  and  N_4 
REMARK    4  A    between atoms: C_2  and  Se_3 
REMARK       I    between atoms: C_11  and  N_12 
REMARK    5  A    between atoms: N_12  and  C_16 
REMARK    6  A    between atoms: C_15  and  C_16 
REMARK    7  A    between atoms: C_16  and  C_17 
REMARK    8  A    between atoms: C_17  and  C_18 
REMARK    9  A    between atoms: C_18  and  C_20 
ROOT
HETATM    1  O           1     -36.742  -0.985 -12.641  0.00  0.00    -0.271 OA
HETATM    2  H           1     -33.864  -1.651 -13.697  0.00  0.00     0.163 HD
HETATM    3  C           1     -35.769  -0.919 -13.355  0.00  0.00     0.249 C 
HETATM    4  N           1     -34.679  -1.707 -13.100  0.00  0.00    -0.345 N 
ENDROOT
BRANCH   4   5
HETATM    5  C           1     -34.691  -2.620 -11.974  0.00  0.00     0.186 C 
BRANCH   5   6
HETATM    6  C           1     -34.323  -1.872 -10.716  0.00  0.00     0.196 C 
HETATM    7  O           1     -33.123  -1.628 -10.464  0.00  0.00    -0.646 OA
HETATM    8  O           1     -35.215  -1.497  -9.926  0.00  0.00    -0.646 OA
ENDBRANCH   5   6
BRANCH   5   9
HETATM    9  C           1     -33.685  -3.737 -12.215  0.00  0.00     0.046 C 
BRANCH   9  10
HETATM   10  C           1     -33.719  -4.714 -11.047  0.00  0.00     0.116 C 
BRANCH  10  11
HETATM   11  C           1     -34.563  -5.910 -11.416  0.00  0.00     0.172 C 
HETATM   12  O           1     -35.165  -5.936 -12.510  0.00  0.00    -0.648 OA
HETATM   13  O           1     -34.659  -6.874 -10.626  0.00  0.00    -0.648 OA
ENDBRANCH  10  11
ENDBRANCH   9  10
ENDBRANCH   5   9
ENDBRANCH   4   5
BRANCH   3  14
HETATM   14  C           1     -35.756   0.032 -14.525  0.00  0.00     0.274 C 
BRANCH  14  15
HETATM   15  C           1     -36.178  -0.707 -15.787  0.00  0.00     0.045 C 
BRANCH  15  16
HETATM   16 Se           1     -38.074  -0.399 -16.119  0.00  0.00     0.000 Se
HETATM   17  H           1     -38.190   0.684 -15.127  0.00  0.00     0.000 HD
ENDBRANCH  15  16
ENDBRANCH  14  15
BRANCH  14  18
HETATM   18  N           1     -34.371   0.580 -14.708  0.00  0.00    -0.067 N 
HETATM   19  H           1     -33.954   0.794 -13.774  0.00  0.00     0.275 HD
HETATM   20  H           1     -33.779  -0.127 -15.199  0.00  0.00     0.275 HD
HETATM   21  H           1     -34.415   1.455 -15.279  0.00  0.00     0.275 HD
ENDBRANCH  14  18
ENDBRANCH   3  14
TORSDOF 9
ENDMDL
MODEL 5
REMARK VINA RESULT:      -5.3      2.274      3.411
REMARK  9 active torsions:
REMARK  status: ('A' for Active; 'I' for Inactive)
REMARK    1  A    between atoms: C_1  and  C_11 
REMARK    2  A    between atoms: C_1  and  C_2 
REMARK    3  A    between atoms: C_1  and  N_4 
REMARK    4  A    between atoms: C_2  and  Se_3 
REMARK       I    between atoms: C_11  and  N_12 
REMARK    5  A    between atoms: N_12  and  C_16 
REMARK    6  A    between atoms: C_15  and  C_16 
REMARK    7  A    between atoms: C_16  and  C_17 
REMARK    8  A    between atoms: C_17  and  C_18 
REMARK    9  A    between atoms: C_18  and  C_20 
ROOT
HETATM    1  O           1     -20.891  -7.059  -6.884  0.00  0.00    -0.271 OA
HETATM    2  H           1     -22.053  -4.206  -6.292  0.00  0.00     0.163 HD
HETATM    3  C           1     -21.267  -6.120  -6.224  0.00  0.00     0.249 C 
HETATM    4  N           1     -21.739  -4.994  -6.844  0.00  0.00    -0.345 N 
ENDROOT
BRANCH   4   5
HETATM    5  C           1     -21.787  -4.928  -8.291  0.00  0.00     0.186 C 
BRANCH   5   6
HETATM    6  C           1     -20.467  -4.419  -8.816  0.00  0.00     0.196 C 
HETATM    7  O           1     -20.043  -4.810  -9.926  0.00  0.00    -0.646 OA
HETATM    8  O           1     -19.796  -3.608  -8.142  0.00  0.00    -0.646 OA
ENDBRANCH   5   6
BRANCH   5   9
HETATM    9  C           1     -22.902  -3.985  -8.720  0.00  0.00     0.046 C 
BRANCH   9  10
HETATM   10  C           1     -23.386  -4.368 -10.113  0.00  0.00     0.116 C 
BRANCH  10  11
HETATM   11  C           1     -24.477  -3.420 -10.546  0.00  0.00     0.172 C 
HETATM   12  O           1     -25.414  -3.148  -9.765  0.00  0.00    -0.648 OA
HETATM   13  O           1     -24.443  -2.906 -11.685  0.00  0.00    -0.648 OA
ENDBRANCH  10  11
ENDBRANCH   9  10
ENDBRANCH   5   9
ENDBRANCH   4   5
BRANCH   3  14
HETATM   14  C           1     -21.216  -6.187  -4.718  0.00  0.00     0.274 C 
BRANCH  14  15
HETATM   15  C           1     -20.540  -7.482  -4.289  0.00  0.00     0.045 C 
BRANCH  15  16
HETATM   16 Se           1     -21.002  -7.875  -2.437  0.00  0.00     0.000 Se
HETATM   17  H           1     -22.406  -7.449  -2.576  0.00  0.00     0.000 HD
ENDBRANCH  15  16
ENDBRANCH  14  15
BRANCH  14  18
HETATM   18  N           1     -22.611  -6.147  -4.169  0.00  0.00    -0.067 N 
HETATM   19  H           1     -23.040  -5.215  -4.371  0.00  0.00     0.275 HD
HETATM   20  H           1     -23.184  -6.897  -4.618  0.00  0.00     0.275 HD
HETATM   21  H           1     -22.584  -6.301  -3.135  0.00  0.00     0.275 HD
ENDBRANCH  14  18
ENDBRANCH   3  14
TORSDOF 9
ENDMDL
MODEL 6
REMARK VINA RESULT:      -5.2      1.643      2.273
REMARK  9 active torsions:
REMARK  status: ('A' for Active; 'I' for Inactive)
REMARK    1  A    between atoms: C_1  and  C_11 
REMARK    2  A    between atoms: C_1  and  C_2 
REMARK    3  A    between atoms: C_1  and  N_4 
REMARK    4  A    between atoms: C_2  and  Se_3 
REMARK       I    between atoms: C_11  and  N_12 
REMARK    5  A    between atoms: N_12  and  C_16 
REMARK    6  A    between atoms: C_15  and  C_16 
REMARK    7  A    between atoms: C_16  and  C_17 
REMARK    8  A    between atoms: C_17  and  C_18 
REMARK    9  A    between atoms: C_18  and  C_20 
ROOT
HETATM    1  O           1     -21.922  -3.337  -7.338  0.00  0.00    -0.271 OA
HETATM    2  H           1     -22.514  -5.488  -9.544  0.00  0.00     0.163 HD
HETATM    3  C           1     -21.901  -4.415  -7.884  0.00  0.00     0.249 C 
HETATM    4  N           1     -22.531  -4.585  -9.087  0.00  0.00    -0.345 N 
ENDROOT
BRANCH   4   5
HETATM    5  C           1     -23.223  -3.472  -9.708  0.00  0.00     0.186 C 
BRANCH   5   6
HETATM    6  C           1     -24.711  -3.713  -9.654  0.00  0.00     0.196 C 
HETATM    7  O           1     -25.157  -4.880  -9.704  0.00  0.00    -0.646 OA
HETATM    8  O           1     -25.498  -2.747  -9.559  0.00  0.00    -0.646 OA
ENDBRANCH   5   6
BRANCH   5   9
HETATM    9  C           1     -22.780  -3.345 -11.159  0.00  0.00     0.046 C 
BRANCH   9  10
HETATM   10  C           1     -21.811  -4.470 -11.496  0.00  0.00     0.116 C 
BRANCH  10  11
HETATM   11  C           1     -20.403  -4.039 -11.164  0.00  0.00     0.172 C 
HETATM   12  O           1     -20.057  -2.850 -11.335  0.00  0.00    -0.648 OA
HETATM   13  O           1     -19.584  -4.870 -10.717  0.00  0.00    -0.648 OA
ENDBRANCH  10  11
ENDBRANCH   9  10
ENDBRANCH   5   9
ENDBRANCH   4   5
BRANCH   3  14
HETATM   14  C           1     -21.182  -5.573  -7.238  0.00  0.00     0.274 C 
BRANCH  14  15
HETATM   15  C           1     -20.912  -5.252  -5.774  0.00  0.00     0.045 C 
BRANCH  15  16
HETATM   16 Se           1     -21.565  -6.710  -4.657  0.00  0.00     0.000 Se
HETATM   17  H           1     -20.937  -6.202  -3.425  0.00  0.00     0.000 HD
ENDBRANCH  15  16
ENDBRANCH  14  15
BRANCH  14  18
HETATM   18  N           1     -19.881  -5.809  -7.945  0.00  0.00    -0.067 N 
HETATM   19  H           1     -19.091  -5.483  -7.342  0.00  0.00     0.275 HD
HETATM   20  H           1     -19.771  -6.830  -8.140  0.00  0.00     0.275 HD
HETATM   21  H           1     -19.872  -5.280  -8.846  0.00  0.00     0.275 HD
ENDBRANCH  14  18
ENDBRANCH   3  14
TORSDOF 9
ENDMDL
MODEL 7
REMARK VINA RESULT:      -5.0      3.859      6.263
REMARK  9 active torsions:
REMARK  status: ('A' for Active; 'I' for Inactive)
REMARK    1  A    between atoms: C_1  and  C_11 
REMARK    2  A    between atoms: C_1  and  C_2 
REMARK    3  A    between atoms: C_1  and  N_4 
REMARK    4  A    between atoms: C_2  and  Se_3 
REMARK       I    between atoms: C_11  and  N_12 
REMARK    5  A    between atoms: N_12  and  C_16 
REMARK    6  A    between atoms: C_15  and  C_16 
REMARK    7  A    between atoms: C_16  and  C_17 
REMARK    8  A    between atoms: C_17  and  C_18 
REMARK    9  A    between atoms: C_18  and  C_20 
ROOT
HETATM    1  O           1     -24.255  -4.305 -13.143  0.00  0.00    -0.271 OA
HETATM    2  H           1     -22.487  -2.643 -11.154  0.00  0.00     0.163 HD
HETATM    3  C           1     -23.520  -3.421 -12.770  0.00  0.00     0.249 C 
HETATM    4  N           1     -23.102  -3.383 -11.467  0.00  0.00    -0.345 N 
ENDROOT
BRANCH   4   5
HETATM    5  C           1     -23.540  -4.403 -10.534  0.00  0.00     0.186 C 
BRANCH   5   6
HETATM    6  C           1     -24.500  -3.797  -9.541  0.00  0.00     0.196 C 
HETATM    7  O           1     -24.300  -3.934  -8.314  0.00  0.00    -0.646 OA
HETATM    8  O           1     -25.496  -3.157  -9.943  0.00  0.00    -0.646 OA
ENDBRANCH   5   6
BRANCH   5   9
HETATM    9  C           1     -22.334  -4.969  -9.796  0.00  0.00     0.046 C 
BRANCH   9  10
HETATM   10  C           1     -21.215  -3.937  -9.785  0.00  0.00     0.116 C 
BRANCH  10  11
HETATM   11  C           1     -20.555  -3.924  -8.427  0.00  0.00     0.172 C 
HETATM   12  O           1     -19.364  -4.282  -8.309  0.00  0.00    -0.648 OA
HETATM   13  O           1     -21.200  -3.556  -7.422  0.00  0.00    -0.648 OA
ENDBRANCH  10  11
ENDBRANCH   9  10
ENDBRANCH   5   9
ENDBRANCH   4   5
BRANCH   3  14
HETATM   14  C           1     -23.065  -2.359 -13.740  0.00  0.00     0.274 C 
BRANCH  14  15
HETATM   15  C           1     -24.267  -1.555 -14.215  0.00  0.00     0.045 C 
BRANCH  15  16
HETATM   16 Se           1     -23.708  -0.313 -15.610  0.00  0.00     0.000 Se
HETATM   17  H           1     -22.426   0.017 -14.964  0.00  0.00     0.000 HD
ENDBRANCH  15  16
ENDBRANCH  14  15
BRANCH  14  18
HETATM   18  N           1     -22.403  -3.011 -14.918  0.00  0.00    -0.067 N 
HETATM   19  H           1     -21.997  -2.276 -15.541  0.00  0.00     0.275 HD
HETATM   20  H           1     -21.642  -3.644 -14.584  0.00  0.00     0.275 HD
HETATM   21  H           1     -23.110  -3.567 -15.451  0.00  0.00     0.275 HD
ENDBRANCH  14  18
ENDBRANCH   3  14
TORSDOF 9
ENDMDL
MODEL 8
REMARK VINA RESULT:      -5.0      4.776      7.985
REMARK  9 active torsions:
REMARK  status: ('A' for Active; 'I' for Inactive)
REMARK    1  A    between atoms: C_1  and  C_11 
REMARK    2  A    between atoms: C_1  and  C_2 
REMARK    3  A    between atoms: C_1  and  N_4 
REMARK    4  A    between atoms: C_2  and  Se_3 
REMARK       I    between atoms: C_11  and  N_12 
REMARK    5  A    between atoms: N_12  and  C_16 
REMARK    6  A    between atoms: C_15  and  C_16 
REMARK    7  A    between atoms: C_16  and  C_17 
REMARK    8  A    between atoms: C_17  and  C_18 
REMARK    9  A    between atoms: C_18  and  C_20 
ROOT
HETATM    1  O           1     -20.537  -4.450  -6.024  0.00  0.00    -0.271 OA
HETATM    2  H           1     -21.490  -7.243  -7.089  0.00  0.00     0.163 HD
HETATM    3  C           1     -20.988  -5.256  -6.804  0.00  0.00     0.249 C 
HETATM    4  N           1     -21.113  -6.568  -6.436  0.00  0.00    -0.345 N 
ENDROOT
BRANCH   4   5
HETATM    5  C           1     -20.706  -6.992  -5.111  0.00  0.00     0.186 C 
BRANCH   5   6
HETATM    6  C           1     -20.209  -8.415  -5.169  0.00  0.00     0.196 C 
HETATM    7  O           1     -20.859  -9.327  -4.614  0.00  0.00    -0.646 OA
HETATM    8  O           1     -19.147  -8.683  -5.771  0.00  0.00    -0.646 OA
ENDBRANCH   5   6
BRANCH   5   9
HETATM    9  C           1     -21.895  -6.907  -4.163  0.00  0.00     0.046 C 
BRANCH   9  10
HETATM   10  C           1     -21.486  -6.162  -2.899  0.00  0.00     0.116 C 
BRANCH  10  11
HETATM   11  C           1     -21.763  -7.026  -1.693  0.00  0.00     0.172 C 
HETATM   12  O           1     -22.717  -6.753  -0.935  0.00  0.00    -0.648 OA
HETATM   13  O           1     -21.037  -8.016  -1.453  0.00  0.00    -0.648 OA
ENDBRANCH  10  11
ENDBRANCH   9  10
ENDBRANCH   5   9
ENDBRANCH   4   5
BRANCH   3  14
HETATM   14  C           1     -21.410  -4.815  -8.183  0.00  0.00     0.274 C 
BRANCH  14  15
HETATM   15  C           1     -20.187  -4.363  -8.970  0.00  0.00     0.045 C 
BRANCH  15  16
HETATM   16 Se           1     -20.647  -4.214 -10.858  0.00  0.00     0.000 Se
HETATM   17  H           1     -22.055  -3.863 -10.607  0.00  0.00     0.000 HD
ENDBRANCH  15  16
ENDBRANCH  14  15
BRANCH  14  18
HETATM   18  N           1     -22.378  -3.674  -8.068  0.00  0.00    -0.067 N 
HETATM   19  H           1     -22.263  -3.034  -8.886  0.00  0.00     0.275 HD
HETATM   20  H           1     -23.354  -4.046  -8.052  0.00  0.00     0.275 HD
HETATM   21  H           1     -22.191  -3.147  -7.185  0.00  0.00     0.275 HD
ENDBRANCH  14  18
ENDBRANCH   3  14
TORSDOF 9
ENDMDL
MODEL 9
REMARK VINA RESULT:      -5.0      3.439      6.845
REMARK  9 active torsions:
REMARK  status: ('A' for Active; 'I' for Inactive)
REMARK    1  A    between atoms: C_1  and  C_11 
REMARK    2  A    between atoms: C_1  and  C_2 
REMARK    3  A    between atoms: C_1  and  N_4 
REMARK    4  A    between atoms: C_2  and  Se_3 
REMARK       I    between atoms: C_11  and  N_12 
REMARK    5  A    between atoms: N_12  and  C_16 
REMARK    6  A    between atoms: C_15  and  C_16 
REMARK    7  A    between atoms: C_16  and  C_17 
REMARK    8  A    between atoms: C_17  and  C_18 
REMARK    9  A    between atoms: C_18  and  C_20 
ROOT
HETATM    1  O           1     -23.692  -4.058  -8.090  0.00  0.00    -0.271 OA
HETATM    2  H           1     -21.133  -5.551  -9.121  0.00  0.00     0.163 HD
HETATM    3  C           1     -22.949  -4.588  -8.882  0.00  0.00     0.249 C 
HETATM    4  N           1     -21.756  -5.109  -8.458  0.00  0.00    -0.345 N 
ENDROOT
BRANCH   4   5
HETATM    5  C           1     -21.385  -5.025  -7.059  0.00  0.00     0.186 C 
BRANCH   5   6
HETATM    6  C           1     -19.964  -4.530  -6.944  0.00  0.00     0.196 C 
HETATM    7  O           1     -19.365  -4.112  -7.959  0.00  0.00    -0.646 OA
HETATM    8  O           1     -19.387  -4.536  -5.836  0.00  0.00    -0.646 OA
ENDBRANCH   5   6
BRANCH   5   9
HETATM    9  C           1     -21.496  -6.404  -6.421  0.00  0.00     0.046 C 
BRANCH   9  10
HETATM   10  C           1     -22.468  -6.346  -5.250  0.00  0.00     0.116 C 
BRANCH  10  11
HETATM   11  C           1     -21.714  -6.556  -3.960  0.00  0.00     0.172 C 
HETATM   12  O           1     -22.079  -5.965  -2.921  0.00  0.00    -0.648 OA
HETATM   13  O           1     -20.726  -7.321  -3.930  0.00  0.00    -0.648 OA
ENDBRANCH  10  11
ENDBRANCH   9  10
ENDBRANCH   5   9
ENDBRANCH   4   5
BRANCH   3  14
HETATM   14  C           1     -23.335  -4.673 -10.338  0.00  0.00     0.274 C 
BRANCH  14  15
HETATM   15  C           1     -22.181  -4.180 -11.200  0.00  0.00     0.045 C 
BRANCH  15  16
HETATM   16 Se           1     -22.848  -2.899 -12.509  0.00  0.00     0.000 Se
HETATM   17  H           1     -22.055  -1.775 -11.984  0.00  0.00     0.000 HD
ENDBRANCH  15  16
ENDBRANCH  14  15
BRANCH  14  18
HETATM   18  N           1     -24.542  -3.818 -10.585  0.00  0.00    -0.067 N 
HETATM   19  H           1     -25.017  -4.129 -11.463  0.00  0.00     0.275 HD
HETATM   20  H           1     -25.204  -3.909  -9.781  0.00  0.00     0.275 HD
HETATM   21  H           1     -24.248  -2.819 -10.682  0.00  0.00     0.275 HD
ENDBRANCH  14  18
ENDBRANCH   3  14
TORSDOF 9
ENDMDL
