MODEL 1
REMARK VINA RESULT:      -6.5      0.000      0.000
REMARK  4 active torsions:
REMARK  status: ('A' for Active; 'I' for Inactive)
REMARK    1  A    between atoms: N_2  and  C_12 
REMARK    2  A    between atoms: C_5  and  C_12 
REMARK    3  A    between atoms: C_9  and  C_11 
REMARK    4  A    between atoms: C_12  and  C_15 
REMARK       I    between atoms: C_15  and  N_17 
ROOT
HETATM    1  C           1     -32.899  -3.368 -11.356  0.00  0.00     0.038 C 
HETATM    2  O           1     -34.845  -2.174 -14.757  0.00  0.00    -0.271 OA
HETATM    3  C           1     -33.858  -3.639 -12.501  0.00  0.00     0.188 C 
HETATM    4  C           1     -33.622  -2.368 -10.461  0.00  0.00     0.022 C 
HETATM    5  C           1     -35.142  -1.779 -13.654  0.00  0.00     0.251 C 
HETATM    6  N           1     -34.696  -2.445 -12.544  0.00  0.00    -0.336 N 
HETATM    7  C           1     -34.954  -2.115 -11.146  0.00  0.00     0.127 C 
ENDROOT
BRANCH   5   8
HETATM    8  C           1     -36.008  -0.551 -13.501  0.00  0.00     0.278 C 
BRANCH   8   9
HETATM    9  N           1     -35.177   0.582 -12.975  0.00  0.00    -0.066 N 
HETATM   10  H           1     -34.587   0.967 -13.746  0.00  0.00     0.275 HD
HETATM   11  H           1     -35.805   1.332 -12.608  0.00  0.00     0.275 HD
HETATM   12  H           1     -34.561   0.233 -12.206  0.00  0.00     0.275 HD
ENDBRANCH   8   9
BRANCH   8  13
HETATM   13  C           1     -36.590  -0.169 -14.855  0.00  0.00     0.017 C 
HETATM   14  C           1     -35.865   1.059 -15.390  0.00  0.00     0.012 C 
HETATM   15  C           1     -38.073   0.144 -14.701  0.00  0.00     0.012 C 
ENDBRANCH   8  13
ENDBRANCH   5   8
BRANCH   3  16
HETATM   16  C           1     -34.688  -4.869 -12.226  0.00  0.00     0.196 C 
HETATM   17  O           1     -35.340  -5.401 -13.150  0.00  0.00    -0.646 OA
HETATM   18  O           1     -34.724  -5.355 -11.075  0.00  0.00    -0.646 OA
ENDBRANCH   3  16
TORSDOF 4
ENDMDL
MODEL 2
REMARK VINA RESULT:      -6.3     12.512     15.038
REMARK  4 active torsions:
REMARK  status: ('A' for Active; 'I' for Inactive)
REMARK    1  A    between atoms: N_2  and  C_12 
REMARK    2  A    between atoms: C_5  and  C_12 
REMARK    3  A    between atoms: C_9  and  C_11 
REMARK    4  A    between atoms: C_12  and  C_15 
REMARK       I    between atoms: C_15  and  N_17 
ROOT
HETATM    1  C           1     -21.728  -2.755 -11.455  0.00  0.00     0.038 C 
HETATM    2  O           1     -22.603  -4.005  -7.655  0.00  0.00    -0.271 OA
HETATM    3  C           1     -22.594  -3.531 -10.480  0.00  0.00     0.188 C 
HETATM    4  C           1     -20.416  -3.528 -11.524  0.00  0.00     0.022 C 
HETATM    5  C           1     -21.680  -4.446  -8.297  0.00  0.00     0.251 C 
HETATM    6  N           1     -21.630  -4.246  -9.651  0.00  0.00    -0.336 N 
HETATM    7  C           1     -20.600  -4.703 -10.579  0.00  0.00     0.127 C 
ENDROOT
BRANCH   5   8
HETATM    8  C           1     -20.581  -5.218  -7.606  0.00  0.00     0.278 C 
BRANCH   8   9
HETATM    9  N           1     -19.320  -4.407  -7.616  0.00  0.00    -0.066 N 
HETATM   10  H           1     -18.914  -4.406  -8.579  0.00  0.00     0.275 HD
HETATM   11  H           1     -19.534  -3.427  -7.326  0.00  0.00     0.275 HD
HETATM   12  H           1     -18.633  -4.826  -6.949  0.00  0.00     0.275 HD
ENDBRANCH   8   9
BRANCH   8  13
HETATM   13  C           1     -20.990  -5.505  -6.168  0.00  0.00     0.017 C 
HETATM   14  C           1     -20.089  -4.724  -5.220  0.00  0.00     0.012 C 
HETATM   15  C           1     -20.851  -6.995  -5.887  0.00  0.00     0.012 C 
ENDBRANCH   8  13
ENDBRANCH   5   8
BRANCH   3  16
HETATM   16  C           1     -23.494  -4.496 -11.212  0.00  0.00     0.196 C 
HETATM   17  O           1     -23.991  -5.470 -10.606  0.00  0.00    -0.646 OA
HETATM   18  O           1     -23.743  -4.322 -12.425  0.00  0.00    -0.646 OA
ENDBRANCH   3  16
TORSDOF 4
ENDMDL
MODEL 3
REMARK VINA RESULT:      -5.8      2.341      5.148
REMARK  4 active torsions:
REMARK  status: ('A' for Active; 'I' for Inactive)
REMARK    1  A    between atoms: N_2  and  C_12 
REMARK    2  A    between atoms: C_5  and  C_12 
REMARK    3  A    between atoms: C_9  and  C_11 
REMARK    4  A    between atoms: C_12  and  C_15 
REMARK       I    between atoms: C_15  and  N_17 
ROOT
HETATM    1  C           1     -35.468   0.826 -13.281  0.00  0.00     0.038 C 
HETATM    2  O           1     -34.393  -1.856 -10.378  0.00  0.00    -0.271 OA
HETATM    3  C           1     -35.815  -0.057 -12.096  0.00  0.00     0.188 C 
HETATM    4  C           1     -35.192  -0.140 -14.428  0.00  0.00     0.022 C 
HETATM    5  C           1     -34.496  -2.153 -11.544  0.00  0.00     0.251 C 
HETATM    6  N           1     -35.166  -1.327 -12.406  0.00  0.00    -0.336 N 
HETATM    7  C           1     -35.389  -1.524 -13.835  0.00  0.00     0.127 C 
ENDROOT
BRANCH   5   8
HETATM    8  C           1     -33.886  -3.438 -12.052  0.00  0.00     0.278 C 
BRANCH   8   9
HETATM    9  N           1     -32.489  -3.569 -11.522  0.00  0.00    -0.066 N 
HETATM   10  H           1     -31.987  -4.322 -12.046  0.00  0.00     0.275 HD
HETATM   11  H           1     -31.984  -2.663 -11.643  0.00  0.00     0.275 HD
HETATM   12  H           1     -32.524  -3.817 -10.507  0.00  0.00     0.275 HD
ENDBRANCH   8   9
BRANCH   8  13
HETATM   13  C           1     -34.722  -4.619 -11.578  0.00  0.00     0.017 C 
HETATM   14  C           1     -33.998  -5.329 -10.441  0.00  0.00     0.012 C 
HETATM   15  C           1     -34.930  -5.590 -12.731  0.00  0.00     0.012 C 
ENDBRANCH   8  13
ENDBRANCH   5   8
BRANCH   3  16
HETATM   16  C           1     -37.309  -0.231 -11.975  0.00  0.00     0.196 C 
HETATM   17  O           1     -37.780  -0.995 -11.104  0.00  0.00    -0.646 OA
HETATM   18  O           1     -38.075   0.388 -12.744  0.00  0.00    -0.646 OA
ENDBRANCH   3  16
TORSDOF 4
ENDMDL
MODEL 4
REMARK VINA RESULT:      -5.6     18.350     19.999
REMARK  4 active torsions:
REMARK  status: ('A' for Active; 'I' for Inactive)
REMARK    1  A    between atoms: N_2  and  C_12 
REMARK    2  A    between atoms: C_5  and  C_12 
REMARK    3  A    between atoms: C_9  and  C_11 
REMARK    4  A    between atoms: C_12  and  C_15 
REMARK       I    between atoms: C_15  and  N_17 
ROOT
HETATM    1  C           1     -20.299  -7.716  -2.556  0.00  0.00     0.038 C 
HETATM    2  O           1     -20.958  -9.721   0.955  0.00  0.00    -0.271 OA
HETATM    3  C           1     -21.020  -7.866  -1.228  0.00  0.00     0.188 C 
HETATM    4  C           1     -20.833  -8.847  -3.427  0.00  0.00     0.022 C 
HETATM    5  C           1     -21.343 -10.124  -0.117  0.00  0.00     0.251 C 
HETATM    6  N           1     -21.392  -9.277  -1.191  0.00  0.00    -0.336 N 
HETATM    7  C           1     -21.827  -9.588  -2.550  0.00  0.00     0.127 C 
ENDROOT
BRANCH   5   8
HETATM    8  C           1     -21.772 -11.564  -0.271  0.00  0.00     0.278 C 
BRANCH   8   9
HETATM    9  N           1     -20.837 -12.448   0.500  0.00  0.00    -0.066 N 
HETATM   10  H           1     -21.375 -13.237   0.924  0.00  0.00     0.275 HD
HETATM   11  H           1     -20.108 -12.828  -0.144  0.00  0.00     0.275 HD
HETATM   12  H           1     -20.379 -11.893   1.257  0.00  0.00     0.275 HD
ENDBRANCH   8   9
BRANCH   8  13
HETATM   13  C           1     -23.188 -11.732   0.266  0.00  0.00     0.017 C 
HETATM   14  C           1     -23.282 -13.035   1.048  0.00  0.00     0.012 C 
HETATM   15  C           1     -24.171 -11.765  -0.896  0.00  0.00     0.012 C 
ENDBRANCH   8  13
ENDBRANCH   5   8
BRANCH   3  16
HETATM   16  C           1     -22.244  -6.986  -1.179  0.00  0.00     0.196 C 
HETATM   17  O           1     -23.100  -7.155  -0.284  0.00  0.00    -0.646 OA
HETATM   18  O           1     -22.403  -6.088  -2.034  0.00  0.00    -0.646 OA
ENDBRANCH   3  16
TORSDOF 4
ENDMDL
MODEL 5
REMARK VINA RESULT:      -5.6     12.337     14.250
REMARK  4 active torsions:
REMARK  status: ('A' for Active; 'I' for Inactive)
REMARK    1  A    between atoms: N_2  and  C_12 
REMARK    2  A    between atoms: C_5  and  C_12 
REMARK    3  A    between atoms: C_9  and  C_11 
REMARK    4  A    between atoms: C_12  and  C_15 
REMARK       I    between atoms: C_15  and  N_17 
ROOT
HETATM    1  C           1     -19.788  -5.768  -7.225  0.00  0.00     0.038 C 
HETATM    2  O           1     -22.832  -5.503  -9.953  0.00  0.00    -0.271 OA
HETATM    3  C           1     -21.264  -5.639  -7.559  0.00  0.00     0.188 C 
HETATM    4  C           1     -19.174  -4.429  -7.619  0.00  0.00     0.022 C 
HETATM    5  C           1     -22.069  -4.594  -9.727  0.00  0.00     0.251 C 
HETATM    6  N           1     -21.298  -4.612  -8.595  0.00  0.00    -0.336 N 
HETATM    7  C           1     -20.330  -3.608  -8.163  0.00  0.00     0.127 C 
ENDROOT
BRANCH   5   8
HETATM    8  C           1     -21.967  -3.436 -10.691  0.00  0.00     0.278 C 
BRANCH   8   9
HETATM    9  N           1     -20.675  -3.529 -11.446  0.00  0.00    -0.066 N 
HETATM   10  H           1     -20.863  -3.857 -12.420  0.00  0.00     0.275 HD
HETATM   11  H           1     -20.221  -2.588 -11.476  0.00  0.00     0.275 HD
HETATM   12  H           1     -20.040  -4.207 -10.967  0.00  0.00     0.275 HD
ENDBRANCH   8   9
BRANCH   8  13
HETATM   13  C           1     -23.132  -3.488 -11.671  0.00  0.00     0.017 C 
HETATM   14  C           1     -22.887  -2.498 -12.802  0.00  0.00     0.012 C 
HETATM   15  C           1     -24.421  -3.123 -10.947  0.00  0.00     0.012 C 
ENDBRANCH   8  13
ENDBRANCH   5   8
BRANCH   3  16
HETATM   16  C           1     -22.053  -5.207  -6.348  0.00  0.00     0.196 C 
HETATM   17  O           1     -21.559  -5.327  -5.206  0.00  0.00    -0.646 OA
HETATM   18  O           1     -23.200  -4.730  -6.486  0.00  0.00    -0.646 OA
ENDBRANCH   3  16
TORSDOF 4
ENDMDL
MODEL 6
REMARK VINA RESULT:      -5.4      2.799      3.654
REMARK  4 active torsions:
REMARK  status: ('A' for Active; 'I' for Inactive)
REMARK    1  A    between atoms: N_2  and  C_12 
REMARK    2  A    between atoms: C_5  and  C_12 
REMARK    3  A    between atoms: C_9  and  C_11 
REMARK    4  A    between atoms: C_12  and  C_15 
REMARK       I    between atoms: C_15  and  N_17 
ROOT
HETATM    1  C           1     -35.813  -2.401 -10.264  0.00  0.00     0.038 C 
HETATM    2  O           1     -37.784  -0.647 -13.397  0.00  0.00    -0.271 OA
HETATM    3  C           1     -36.685  -1.295 -10.832  0.00  0.00     0.188 C 
HETATM    4  C           1     -34.430  -2.160 -10.858  0.00  0.00     0.022 C 
HETATM    5  C           1     -36.582  -0.617 -13.275  0.00  0.00     0.251 C 
HETATM    6  N           1     -36.008  -0.919 -12.069  0.00  0.00    -0.336 N 
HETATM    7  C           1     -34.586  -0.933 -11.740  0.00  0.00     0.127 C 
ENDROOT
BRANCH   5   8
HETATM    8  C           1     -35.713  -0.247 -14.453  0.00  0.00     0.278 C 
BRANCH   8   9
HETATM    9  N           1     -35.072  -1.483 -15.009  0.00  0.00    -0.066 N 
HETATM   10  H           1     -34.317  -1.213 -15.678  0.00  0.00     0.275 HD
HETATM   11  H           1     -34.663  -2.044 -14.228  0.00  0.00     0.275 HD
HETATM   12  H           1     -35.792  -2.053 -15.508  0.00  0.00     0.275 HD
ENDBRANCH   8   9
BRANCH   8  13
HETATM   13  C           1     -36.568   0.410 -15.528  0.00  0.00     0.017 C 
HETATM   14  C           1     -36.621  -0.492 -16.755  0.00  0.00     0.012 C 
HETATM   15  C           1     -35.962   1.753 -15.912  0.00  0.00     0.012 C 
ENDBRANCH   8  13
ENDBRANCH   5   8
BRANCH   3  16
HETATM   16  C           1     -36.757  -0.126  -9.881  0.00  0.00     0.196 C 
HETATM   17  O           1     -36.187  -0.189  -8.770  0.00  0.00    -0.646 OA
HETATM   18  O           1     -37.386   0.905 -10.204  0.00  0.00    -0.646 OA
ENDBRANCH   3  16
TORSDOF 4
ENDMDL
MODEL 7
REMARK VINA RESULT:      -5.4     18.734     20.461
REMARK  4 active torsions:
REMARK  status: ('A' for Active; 'I' for Inactive)
REMARK    1  A    between atoms: N_2  and  C_12 
REMARK    2  A    between atoms: C_5  and  C_12 
REMARK    3  A    between atoms: C_9  and  C_11 
REMARK    4  A    between atoms: C_12  and  C_15 
REMARK       I    between atoms: C_15  and  N_17 
ROOT
HETATM    1  C           1     -22.523 -13.089   1.061  0.00  0.00     0.038 C 
HETATM    2  O           1     -20.962  -9.309   1.280  0.00  0.00    -0.271 OA
HETATM    3  C           1     -21.379 -12.111   0.857  0.00  0.00     0.188 C 
HETATM    4  C           1     -23.556 -12.718   0.004  0.00  0.00     0.022 C 
HETATM    5  C           1     -21.777  -9.638   0.451  0.00  0.00     0.251 C 
HETATM    6  N           1     -22.012 -10.966   0.212  0.00  0.00    -0.336 N 
HETATM    7  C           1     -22.951 -11.543  -0.745  0.00  0.00     0.127 C 
ENDROOT
BRANCH   5   8
HETATM    8  C           1     -22.534  -8.586  -0.322  0.00  0.00     0.278 C 
BRANCH   8   9
HETATM    9  N           1     -23.452  -7.849   0.607  0.00  0.00    -0.066 N 
HETATM   10  H           1     -22.920  -7.096   1.098  0.00  0.00     0.275 HD
HETATM   11  H           1     -24.234  -7.424   0.060  0.00  0.00     0.275 HD
HETATM   12  H           1     -23.842  -8.515   1.312  0.00  0.00     0.275 HD
ENDBRANCH   8   9
BRANCH   8  13
HETATM   13  C           1     -21.549  -7.606  -0.945  0.00  0.00     0.017 C 
HETATM   14  C           1     -22.313  -6.443  -1.565  0.00  0.00     0.012 C 
HETATM   15  C           1     -20.740  -8.314  -2.023  0.00  0.00     0.012 C 
ENDBRANCH   8  13
ENDBRANCH   5   8
BRANCH   3  16
HETATM   16  C           1     -20.314 -12.708  -0.029  0.00  0.00     0.196 C 
HETATM   17  O           1     -19.444 -11.972  -0.542  0.00  0.00    -0.646 OA
HETATM   18  O           1     -20.303 -13.938  -0.252  0.00  0.00    -0.646 OA
ENDBRANCH   3  16
TORSDOF 4
ENDMDL
MODEL 8
REMARK VINA RESULT:      -5.3     16.949     18.839
REMARK  4 active torsions:
REMARK  status: ('A' for Active; 'I' for Inactive)
REMARK    1  A    between atoms: N_2  and  C_12 
REMARK    2  A    between atoms: C_5  and  C_12 
REMARK    3  A    between atoms: C_9  and  C_11 
REMARK    4  A    between atoms: C_12  and  C_15 
REMARK       I    between atoms: C_15  and  N_17 
ROOT
HETATM    1  C           1     -20.181  -8.745  -5.130  0.00  0.00     0.038 C 
HETATM    2  O           1     -20.330  -7.921  -1.121  0.00  0.00    -0.271 OA
HETATM    3  C           1     -20.608  -7.862  -3.971  0.00  0.00     0.188 C 
HETATM    4  C           1     -21.046  -9.995  -5.015  0.00  0.00     0.022 C 
HETATM    5  C           1     -20.993  -8.787  -1.641  0.00  0.00     0.251 C 
HETATM    6  N           1     -21.156  -8.802  -3.000  0.00  0.00    -0.336 N 
HETATM    7  C           1     -21.917  -9.763  -3.793  0.00  0.00     0.127 C 
ENDROOT
BRANCH   5   8
HETATM    8  C           1     -21.643  -9.852  -0.790  0.00  0.00     0.278 C 
BRANCH   8   9
HETATM    9  N           1     -20.898  -9.980   0.505  0.00  0.00    -0.066 N 
HETATM   10  H           1     -20.496  -9.051   0.768  0.00  0.00     0.275 HD
HETATM   11  H           1     -21.553 -10.301   1.253  0.00  0.00     0.275 HD
HETATM   12  H           1     -20.125 -10.674   0.395  0.00  0.00     0.275 HD
ENDBRANCH   8   9
BRANCH   8  13
HETATM   13  C           1     -23.089  -9.466  -0.509  0.00  0.00     0.017 C 
HETATM   14  C           1     -23.131  -8.457   0.631  0.00  0.00     0.012 C 
HETATM   15  C           1     -23.881 -10.706  -0.119  0.00  0.00     0.012 C 
ENDBRANCH   8  13
ENDBRANCH   5   8
BRANCH   3  16
HETATM   16  C           1     -21.656  -6.870  -4.411  0.00  0.00     0.196 C 
HETATM   17  O           1     -22.337  -6.261  -3.557  0.00  0.00    -0.646 OA
HETATM   18  O           1     -21.844  -6.657  -5.628  0.00  0.00    -0.646 OA
ENDBRANCH   3  16
TORSDOF 4
ENDMDL
MODEL 9
REMARK VINA RESULT:      -5.0     18.828     19.899
REMARK  4 active torsions:
REMARK  status: ('A' for Active; 'I' for Inactive)
REMARK    1  A    between atoms: N_2  and  C_12 
REMARK    2  A    between atoms: C_5  and  C_12 
REMARK    3  A    between atoms: C_9  and  C_11 
REMARK    4  A    between atoms: C_12  and  C_15 
REMARK       I    between atoms: C_15  and  N_17 
ROOT
HETATM    1  C           1     -17.845  -9.721  -3.382  0.00  0.00     0.038 C 
HETATM    2  O           1     -20.790  -7.550  -1.539  0.00  0.00    -0.271 OA
HETATM    3  C           1     -19.150  -8.945  -3.429  0.00  0.00     0.188 C 
HETATM    4  C           1     -18.176 -11.007  -2.635  0.00  0.00     0.022 C 
HETATM    5  C           1     -20.674  -8.746  -1.411  0.00  0.00     0.251 C 
HETATM    6  N           1     -19.902  -9.458  -2.289  0.00  0.00    -0.336 N 
HETATM    7  C           1     -19.651 -10.896  -2.288  0.00  0.00     0.127 C 
ENDROOT
BRANCH   5   8
HETATM    8  C           1     -21.384  -9.456  -0.282  0.00  0.00     0.278 C 
BRANCH   8   9
HETATM    9  N           1     -20.890  -8.923   1.030  0.00  0.00    -0.066 N 
HETATM   10  H           1     -21.672  -8.929   1.724  0.00  0.00     0.275 HD
HETATM   11  H           1     -20.109  -9.522   1.378  0.00  0.00     0.275 HD
HETATM   12  H           1     -20.548  -7.943   0.901  0.00  0.00     0.275 HD
ENDBRANCH   8   9
BRANCH   8  13
HETATM   13  C           1     -22.883  -9.218  -0.396  0.00  0.00     0.017 C 
HETATM   14  C           1     -23.321  -8.225   0.673  0.00  0.00     0.012 C 
HETATM   15  C           1     -23.624 -10.534  -0.200  0.00  0.00     0.012 C 
ENDBRANCH   8  13
ENDBRANCH   5   8
BRANCH   3  16
HETATM   16  C           1     -19.885  -9.208  -4.721  0.00  0.00     0.196 C 
HETATM   17  O           1     -19.274  -9.690  -5.699  0.00  0.00    -0.646 OA
HETATM   18  O           1     -21.103  -8.945  -4.812  0.00  0.00    -0.646 OA
ENDBRANCH   3  16
TORSDOF 4
ENDMDL
