MODEL 1
REMARK VINA RESULT:      -5.6      0.000      0.000
REMARK  6 active torsions:
REMARK  status: ('A' for Active; 'I' for Inactive)
REMARK    1  A    between atoms: C_2  and  C_4 
REMARK    2  A    between atoms: C_2  and  C_16 
REMARK    3  A    between atoms: C_2  and  N_6 
REMARK    4  A    between atoms: O_3  and  C_4 
REMARK       I    between atoms: N_6  and  C_11 
REMARK    5  A    between atoms: C_10  and  C_11 
REMARK    6  A    between atoms: C_10  and  N_18 
ROOT
HETATM    1  N           1     -22.084  -4.746  -8.959  0.00  0.00    -0.343 N 
HETATM    2  C           1     -21.633  -4.440  -7.704  0.00  0.00     0.248 C 
HETATM    3  H           1     -22.075  -5.706  -9.280  0.00  0.00     0.163 HD
HETATM    4  O           1     -21.643  -3.293  -7.322  0.00  0.00    -0.271 OA
ENDROOT
BRANCH   1   5
HETATM    5  C           1     -22.573  -3.695  -9.831  0.00  0.00     0.214 C 
BRANCH   5   6
HETATM    6  C           1     -21.817  -3.740 -11.152  0.00  0.00     0.147 C 
HETATM    7  C           1     -20.431  -4.329 -10.924  0.00  0.00     0.042 C 
BRANCH   6   8
HETATM    8  O           1     -22.520  -4.538 -12.065  0.00  0.00    -0.393 OA
HETATM    9  H           1     -21.888  -4.885 -12.671  0.00  0.00     0.210 HD
ENDBRANCH   6   8
ENDBRANCH   5   6
BRANCH   5  10
HETATM   10  C           1     -24.046  -3.898 -10.085  0.00  0.00     0.199 C 
HETATM   11  O           1     -24.749  -2.945 -10.485  0.00  0.00    -0.646 OA
HETATM   12  O           1     -24.564  -5.020  -9.896  0.00  0.00    -0.646 OA
ENDBRANCH   5  10
ENDBRANCH   1   5
BRANCH   2  13
HETATM   13  C           1     -21.124  -5.533  -6.797  0.00  0.00     0.270 C 
HETATM   14  C           1     -20.564  -4.917  -5.521  0.00  0.00     0.050 C 
BRANCH  13  15
HETATM   15  N           1     -20.042  -6.299  -7.498  0.00  0.00    -0.067 N 
HETATM   16  H           1     -19.188  -6.324  -6.897  0.00  0.00     0.275 HD
HETATM   17  H           1     -19.817  -5.832  -8.406  0.00  0.00     0.275 HD
HETATM   18  H           1     -20.368  -7.275  -7.681  0.00  0.00     0.275 HD
ENDBRANCH  13  15
ENDBRANCH   2  13
TORSDOF 6
ENDMDL
MODEL 2
REMARK VINA RESULT:      -4.9      2.032      2.996
REMARK  6 active torsions:
REMARK  status: ('A' for Active; 'I' for Inactive)
REMARK    1  A    between atoms: C_2  and  C_4 
REMARK    2  A    between atoms: C_2  and  C_16 
REMARK    3  A    between atoms: C_2  and  N_6 
REMARK    4  A    between atoms: O_3  and  C_4 
REMARK       I    between atoms: N_6  and  C_11 
REMARK    5  A    between atoms: C_10  and  C_11 
REMARK    6  A    between atoms: C_10  and  N_18 
ROOT
HETATM    1  N           1     -22.233  -3.629  -9.763  0.00  0.00    -0.343 N 
HETATM    2  C           1     -21.024  -4.166  -9.413  0.00  0.00     0.248 C 
HETATM    3  H           1     -22.701  -2.986  -9.136  0.00  0.00     0.163 HD
HETATM    4  O           1     -20.465  -4.934 -10.161  0.00  0.00    -0.271 OA
ENDROOT
BRANCH   1   5
HETATM    5  C           1     -22.844  -3.981 -11.029  0.00  0.00     0.214 C 
BRANCH   5   6
HETATM    6  C           1     -24.360  -3.911 -10.897  0.00  0.00     0.147 C 
HETATM    7  C           1     -24.724  -3.360  -9.525  0.00  0.00     0.042 C 
BRANCH   6   8
HETATM    8  O           1     -24.877  -3.069 -11.891  0.00  0.00    -0.393 OA
HETATM    9  H           1     -24.206  -2.973 -12.546  0.00  0.00     0.210 HD
ENDBRANCH   6   8
ENDBRANCH   5   6
BRANCH   5  10
HETATM   10  C           1     -22.386  -3.016 -12.094  0.00  0.00     0.199 C 
HETATM   11  O           1     -22.385  -3.364 -13.295  0.00  0.00    -0.646 OA
HETATM   12  O           1     -22.007  -1.868 -11.776  0.00  0.00    -0.646 OA
ENDBRANCH   5  10
ENDBRANCH   1   5
BRANCH   2  13
HETATM   13  C           1     -20.387  -3.799  -8.095  0.00  0.00     0.270 C 
HETATM   14  C           1     -19.645  -5.006  -7.535  0.00  0.00     0.050 C 
BRANCH  13  15
HETATM   15  N           1     -21.453  -3.376  -7.128  0.00  0.00    -0.067 N 
HETATM   16  H           1     -21.017  -3.153  -6.205  0.00  0.00     0.275 HD
HETATM   17  H           1     -22.144  -4.151  -7.010  0.00  0.00     0.275 HD
HETATM   18  H           1     -21.941  -2.528  -7.496  0.00  0.00     0.275 HD
ENDBRANCH  13  15
ENDBRANCH   2  13
TORSDOF 6
ENDMDL
MODEL 3
REMARK VINA RESULT:      -4.7     17.541     19.261
REMARK  6 active torsions:
REMARK  status: ('A' for Active; 'I' for Inactive)
REMARK    1  A    between atoms: C_2  and  C_4 
REMARK    2  A    between atoms: C_2  and  C_16 
REMARK    3  A    between atoms: C_2  and  N_6 
REMARK    4  A    between atoms: O_3  and  C_4 
REMARK       I    between atoms: N_6  and  C_11 
REMARK    5  A    between atoms: C_10  and  C_11 
REMARK    6  A    between atoms: C_10  and  N_18 
ROOT
HETATM    1  N           1     -12.299   6.662 -20.421  0.00  0.00    -0.343 N 
HETATM    2  C           1     -12.689   5.948 -21.522  0.00  0.00     0.248 C 
HETATM    3  H           1     -12.949   6.814 -19.660  0.00  0.00     0.163 HD
HETATM    4  O           1     -11.913   5.766 -22.430  0.00  0.00    -0.271 OA
ENDROOT
BRANCH   1   5
HETATM    5  C           1     -10.955   7.200 -20.345  0.00  0.00     0.214 C 
BRANCH   5   6
HETATM    6  C           1     -10.986   8.537 -19.615  0.00  0.00     0.147 C 
HETATM    7  C           1     -12.430   8.924 -19.326  0.00  0.00     0.042 C 
BRANCH   6   8
HETATM    8  O           1     -10.281   8.426 -18.408  0.00  0.00    -0.393 OA
HETATM    9  H           1     -10.349   9.259 -17.973  0.00  0.00     0.210 HD
ENDBRANCH   6   8
ENDBRANCH   5   6
BRANCH   5  10
HETATM   10  C           1     -10.069   6.237 -19.595  0.00  0.00     0.199 C 
HETATM   11  O           1     -10.544   5.537 -18.674  0.00  0.00    -0.646 OA
HETATM   12  O           1      -8.859   6.137 -19.894  0.00  0.00    -0.646 OA
ENDBRANCH   5  10
ENDBRANCH   1   5
BRANCH   2  13
HETATM   13  C           1     -14.088   5.387 -21.601  0.00  0.00     0.270 C 
HETATM   14  C           1     -14.540   4.951 -20.213  0.00  0.00     0.050 C 
BRANCH  13  15
HETATM   15  N           1     -14.099   4.205 -22.524  0.00  0.00    -0.067 N 
HETATM   16  H           1     -15.065   3.812 -22.575  0.00  0.00     0.275 HD
HETATM   17  H           1     -13.444   3.475 -22.163  0.00  0.00     0.275 HD
HETATM   18  H           1     -13.794   4.504 -23.478  0.00  0.00     0.275 HD
ENDBRANCH  13  15
ENDBRANCH   2  13
TORSDOF 6
ENDMDL
MODEL 4
REMARK VINA RESULT:      -4.7      2.467      3.663
REMARK  6 active torsions:
REMARK  status: ('A' for Active; 'I' for Inactive)
REMARK    1  A    between atoms: C_2  and  C_4 
REMARK    2  A    between atoms: C_2  and  C_16 
REMARK    3  A    between atoms: C_2  and  N_6 
REMARK    4  A    between atoms: O_3  and  C_4 
REMARK       I    between atoms: N_6  and  C_11 
REMARK    5  A    between atoms: C_10  and  C_11 
REMARK    6  A    between atoms: C_10  and  N_18 
ROOT
HETATM    1  N           1     -21.493  -5.059  -6.737  0.00  0.00    -0.343 N 
HETATM    2  C           1     -21.222  -6.245  -6.110  0.00  0.00     0.248 C 
HETATM    3  H           1     -21.608  -4.213  -6.193  0.00  0.00     0.163 HD
HETATM    4  O           1     -21.085  -7.254  -6.760  0.00  0.00    -0.271 OA
ENDROOT
BRANCH   1   5
HETATM    5  C           1     -21.615  -5.013  -8.181  0.00  0.00     0.214 C 
BRANCH   5   6
HETATM    6  C           1     -22.781  -4.111  -8.563  0.00  0.00     0.147 C 
HETATM    7  C           1     -23.386  -4.591  -9.875  0.00  0.00     0.042 C 
BRANCH   6   8
HETATM    8  O           1     -23.755  -4.155  -7.555  0.00  0.00    -0.393 OA
HETATM    9  H           1     -23.426  -4.725  -6.881  0.00  0.00     0.210 HD
ENDBRANCH   6   8
ENDBRANCH   5   6
BRANCH   5  10
HETATM   10  C           1     -20.340  -4.468  -8.777  0.00  0.00     0.199 C 
HETATM   11  O           1     -19.631  -3.678  -8.119  0.00  0.00    -0.646 OA
HETATM   12  O           1     -19.994  -4.807  -9.929  0.00  0.00    -0.646 OA
ENDBRANCH   5  10
ENDBRANCH   1   5
BRANCH   2  13
HETATM   13  C           1     -21.094  -6.292  -4.607  0.00  0.00     0.270 C 
HETATM   14  C           1     -20.507  -7.634  -4.188  0.00  0.00     0.050 C 
BRANCH  13  15
HETATM   15  N           1     -22.449  -6.124  -3.986  0.00  0.00    -0.067 N 
HETATM   16  H           1     -22.699  -6.989  -3.457  0.00  0.00     0.275 HD
HETATM   17  H           1     -23.158  -5.957  -4.736  0.00  0.00     0.275 HD
HETATM   18  H           1     -22.435  -5.308  -3.334  0.00  0.00     0.275 HD
ENDBRANCH  13  15
ENDBRANCH   2  13
TORSDOF 6
ENDMDL
MODEL 5
REMARK VINA RESULT:      -4.6      1.416      2.047
REMARK  6 active torsions:
REMARK  status: ('A' for Active; 'I' for Inactive)
REMARK    1  A    between atoms: C_2  and  C_4 
REMARK    2  A    between atoms: C_2  and  C_16 
REMARK    3  A    between atoms: C_2  and  N_6 
REMARK    4  A    between atoms: O_3  and  C_4 
REMARK       I    between atoms: N_6  and  C_11 
REMARK    5  A    between atoms: C_10  and  C_11 
REMARK    6  A    between atoms: C_10  and  N_18 
ROOT
HETATM    1  N           1     -22.056  -4.192 -10.069  0.00  0.00    -0.343 N 
HETATM    2  C           1     -21.814  -3.990  -8.737  0.00  0.00     0.248 C 
HETATM    3  H           1     -21.490  -4.849 -10.592  0.00  0.00     0.163 HD
HETATM    4  O           1     -22.489  -3.205  -8.114  0.00  0.00    -0.271 OA
ENDROOT
BRANCH   1   5
HETATM    5  C           1     -23.121  -3.465 -10.731  0.00  0.00     0.214 C 
BRANCH   5   6
HETATM    6  C           1     -23.043  -3.708 -12.233  0.00  0.00     0.147 C 
HETATM    7  C           1     -23.705  -2.551 -12.969  0.00  0.00     0.042 C 
BRANCH   6   8
HETATM    8  O           1     -21.700  -3.802 -12.621  0.00  0.00    -0.393 OA
HETATM    9  H           1     -21.693  -3.958 -13.550  0.00  0.00     0.210 HD
ENDBRANCH   6   8
ENDBRANCH   5   6
BRANCH   5  10
HETATM   10  C           1     -24.455  -3.944 -10.212  0.00  0.00     0.199 C 
HETATM   11  O           1     -24.659  -5.166 -10.046  0.00  0.00    -0.646 OA
HETATM   12  O           1     -25.356  -3.118  -9.948  0.00  0.00    -0.646 OA
ENDBRANCH   5  10
ENDBRANCH   1   5
BRANCH   2  13
HETATM   13  C           1     -20.705  -4.746  -8.048  0.00  0.00     0.270 C 
HETATM   14  C           1     -19.595  -5.045  -9.047  0.00  0.00     0.050 C 
BRANCH  13  15
HETATM   15  N           1     -21.245  -6.034  -7.502  0.00  0.00    -0.067 N 
HETATM   16  H           1     -22.122  -5.846  -6.967  0.00  0.00     0.275 HD
HETATM   17  H           1     -20.536  -6.469  -6.869  0.00  0.00     0.275 HD
HETATM   18  H           1     -21.452  -6.687  -8.291  0.00  0.00     0.275 HD
ENDBRANCH  13  15
ENDBRANCH   2  13
TORSDOF 6
ENDMDL
MODEL 6
REMARK VINA RESULT:      -4.6     16.943     18.391
REMARK  6 active torsions:
REMARK  status: ('A' for Active; 'I' for Inactive)
REMARK    1  A    between atoms: C_2  and  C_4 
REMARK    2  A    between atoms: C_2  and  C_16 
REMARK    3  A    between atoms: C_2  and  N_6 
REMARK    4  A    between atoms: O_3  and  C_4 
REMARK       I    between atoms: N_6  and  C_11 
REMARK    5  A    between atoms: C_10  and  C_11 
REMARK    6  A    between atoms: C_10  and  N_18 
ROOT
HETATM    1  N           1     -11.965   5.608 -20.446  0.00  0.00    -0.343 N 
HETATM    2  C           1     -11.638   6.923 -20.646  0.00  0.00     0.248 C 
HETATM    3  H           1     -11.532   5.088 -19.694  0.00  0.00     0.163 HD
HETATM    4  O           1     -12.155   7.543 -21.545  0.00  0.00    -0.271 OA
ENDROOT
BRANCH   1   5
HETATM    5  C           1     -12.930   4.961 -21.313  0.00  0.00     0.214 C 
BRANCH   5   6
HETATM    6  C           1     -12.496   3.524 -21.571  0.00  0.00     0.147 C 
HETATM    7  C           1     -11.397   3.143 -20.588  0.00  0.00     0.042 C 
BRANCH   6   8
HETATM    8  O           1     -13.593   2.668 -21.402  0.00  0.00    -0.393 OA
HETATM    9  H           1     -13.505   2.274 -20.551  0.00  0.00     0.210 HD
ENDBRANCH   6   8
ENDBRANCH   5   6
BRANCH   5  10
HETATM   10  C           1     -14.285   4.967 -20.649  0.00  0.00     0.199 C 
HETATM   11  O           1     -15.305   5.253 -21.312  0.00  0.00    -0.646 OA
HETATM   12  O           1     -14.387   4.686 -19.435  0.00  0.00    -0.646 OA
ENDBRANCH   5  10
ENDBRANCH   1   5
BRANCH   2  13
HETATM   13  C           1     -10.633   7.596 -19.744  0.00  0.00     0.270 C 
HETATM   14  C           1     -11.130   8.989 -19.380  0.00  0.00     0.050 C 
BRANCH  13  15
HETATM   15  N           1      -9.318   7.706 -20.457  0.00  0.00    -0.067 N 
HETATM   16  H           1      -9.418   7.341 -21.430  0.00  0.00     0.275 HD
HETATM   17  H           1      -8.598   7.146 -19.946  0.00  0.00     0.275 HD
HETATM   18  H           1      -9.021   8.707 -20.489  0.00  0.00     0.275 HD
ENDBRANCH  13  15
ENDBRANCH   2  13
TORSDOF 6
ENDMDL
MODEL 7
REMARK VINA RESULT:      -4.3     18.845     20.430
REMARK  6 active torsions:
REMARK  status: ('A' for Active; 'I' for Inactive)
REMARK    1  A    between atoms: C_2  and  C_4 
REMARK    2  A    between atoms: C_2  and  C_16 
REMARK    3  A    between atoms: C_2  and  N_6 
REMARK    4  A    between atoms: O_3  and  C_4 
REMARK       I    between atoms: N_6  and  C_11 
REMARK    5  A    between atoms: C_10  and  C_11 
REMARK    6  A    between atoms: C_10  and  N_18 
ROOT
HETATM    1  N           1     -14.651   9.277   3.363  0.00  0.00    -0.343 N 
HETATM    2  C           1     -14.797   8.944   2.043  0.00  0.00     0.248 C 
HETATM    3  H           1     -14.033  10.033   3.629  0.00  0.00     0.163 HD
HETATM    4  O           1     -15.534   8.041   1.726  0.00  0.00    -0.271 OA
ENDROOT
BRANCH   1   5
HETATM    5  C           1     -15.381   8.545   4.380  0.00  0.00     0.214 C 
BRANCH   5   6
HETATM    6  C           1     -14.449   8.231   5.544  0.00  0.00     0.147 C 
HETATM    7  C           1     -13.238   9.152   5.487  0.00  0.00     0.042 C 
BRANCH   6   8
HETATM    8  O           1     -15.130   8.427   6.753  0.00  0.00    -0.393 OA
HETATM    9  H           1     -14.530   8.207   7.445  0.00  0.00     0.210 HD
ENDBRANCH   6   8
ENDBRANCH   5   6
BRANCH   5  10
HETATM   10  C           1     -16.536   9.382   4.871  0.00  0.00     0.199 C 
HETATM   11  O           1     -17.641   8.848   5.105  0.00  0.00    -0.646 OA
HETATM   12  O           1     -16.387  10.612   5.044  0.00  0.00    -0.646 OA
ENDBRANCH   5  10
ENDBRANCH   1   5
BRANCH   2  13
HETATM   13  C           1     -14.038   9.706   0.985  0.00  0.00     0.270 C 
HETATM   14  C           1     -12.678  10.120   1.532  0.00  0.00     0.050 C 
BRANCH  13  15
HETATM   15  N           1     -14.814  10.930   0.599  0.00  0.00    -0.067 N 
HETATM   16  H           1     -14.253  11.501  -0.071  0.00  0.00     0.275 HD
HETATM   17  H           1     -15.019  11.496   1.454  0.00  0.00     0.275 HD
HETATM   18  H           1     -15.712  10.645   0.147  0.00  0.00     0.275 HD
ENDBRANCH  13  15
ENDBRANCH   2  13
TORSDOF 6
ENDMDL
MODEL 8
REMARK VINA RESULT:      -4.3      2.530      3.432
REMARK  6 active torsions:
REMARK  status: ('A' for Active; 'I' for Inactive)
REMARK    1  A    between atoms: C_2  and  C_4 
REMARK    2  A    between atoms: C_2  and  C_16 
REMARK    3  A    between atoms: C_2  and  N_6 
REMARK    4  A    between atoms: O_3  and  C_4 
REMARK       I    between atoms: N_6  and  C_11 
REMARK    5  A    between atoms: C_10  and  C_11 
REMARK    6  A    between atoms: C_10  and  N_18 
ROOT
HETATM    1  N           1     -20.971  -6.002  -6.675  0.00  0.00    -0.343 N 
HETATM    2  C           1     -20.934  -6.462  -5.386  0.00  0.00     0.248 C 
HETATM    3  H           1     -20.910  -6.654  -7.446  0.00  0.00     0.163 HD
HETATM    4  O           1     -21.007  -5.683  -4.465  0.00  0.00    -0.271 OA
ENDROOT
BRANCH   1   5
HETATM    5  C           1     -21.096  -4.581  -6.934  0.00  0.00     0.214 C 
BRANCH   5   6
HETATM    6  C           1     -20.064  -4.163  -7.974  0.00  0.00     0.147 C 
HETATM    7  C           1     -18.665  -4.328  -7.395  0.00  0.00     0.042 C 
BRANCH   6   8
HETATM    8  O           1     -20.197  -4.968  -9.113  0.00  0.00    -0.393 OA
HETATM    9  H           1     -19.701  -4.556  -9.800  0.00  0.00     0.210 HD
ENDBRANCH   6   8
ENDBRANCH   5   6
BRANCH   5  10
HETATM   10  C           1     -22.481  -4.285  -7.453  0.00  0.00     0.199 C 
HETATM   11  O           1     -23.483  -4.598  -6.774  0.00  0.00    -0.646 OA
HETATM   12  O           1     -22.628  -3.725  -8.561  0.00  0.00    -0.646 OA
ENDBRANCH   5  10
ENDBRANCH   1   5
BRANCH   2  13
HETATM   13  C           1     -20.804  -7.941  -5.116  0.00  0.00     0.270 C 
HETATM   14  C           1     -20.856  -8.190  -3.614  0.00  0.00     0.050 C 
BRANCH  13  15
HETATM   15  N           1     -19.496  -8.433  -5.658  0.00  0.00    -0.067 N 
HETATM   16  H           1     -19.565  -8.535  -6.695  0.00  0.00     0.275 HD
HETATM   17  H           1     -19.268  -9.359  -5.230  0.00  0.00     0.275 HD
HETATM   18  H           1     -18.742  -7.748  -5.425  0.00  0.00     0.275 HD
ENDBRANCH  13  15
ENDBRANCH   2  13
TORSDOF 6
ENDMDL
MODEL 9
REMARK VINA RESULT:      -4.3      3.513      6.046
REMARK  6 active torsions:
REMARK  status: ('A' for Active; 'I' for Inactive)
REMARK    1  A    between atoms: C_2  and  C_4 
REMARK    2  A    between atoms: C_2  and  C_16 
REMARK    3  A    between atoms: C_2  and  N_6 
REMARK    4  A    between atoms: O_3  and  C_4 
REMARK       I    between atoms: N_6  and  C_11 
REMARK    5  A    between atoms: C_10  and  C_11 
REMARK    6  A    between atoms: C_10  and  N_18 
ROOT
HETATM    1  N           1     -21.175  -6.430  -6.317  0.00  0.00    -0.343 N 
HETATM    2  C           1     -20.827  -5.175  -6.737  0.00  0.00     0.248 C 
HETATM    3  H           1     -21.749  -7.020  -6.907  0.00  0.00     0.163 HD
HETATM    4  O           1     -20.142  -4.471  -6.032  0.00  0.00    -0.271 OA
ENDROOT
BRANCH   1   5
HETATM    5  C           1     -20.724  -6.915  -5.027  0.00  0.00     0.214 C 
BRANCH   5   6
HETATM    6  C           1     -21.881  -6.876  -4.038  0.00  0.00     0.147 C 
HETATM    7  C           1     -21.454  -6.118  -2.788  0.00  0.00     0.042 C 
BRANCH   6   8
HETATM    8  O           1     -22.976  -6.228  -4.626  0.00  0.00    -0.393 OA
HETATM    9  H           1     -23.093  -5.414  -4.168  0.00  0.00     0.210 HD
ENDBRANCH   6   8
ENDBRANCH   5   6
BRANCH   5  10
HETATM   10  C           1     -20.230  -8.334  -5.169  0.00  0.00     0.199 C 
HETATM   11  O           1     -19.126  -8.663  -4.686  0.00  0.00    -0.646 OA
HETATM   12  O           1     -20.927  -9.181  -5.770  0.00  0.00    -0.646 OA
ENDBRANCH   5  10
ENDBRANCH   1   5
BRANCH   2  13
HETATM   13  C           1     -21.297  -4.670  -8.079  0.00  0.00     0.270 C 
HETATM   14  C           1     -20.104  -4.151  -8.873  0.00  0.00     0.050 C 
BRANCH  13  15
HETATM   15  N           1     -22.283  -3.558  -7.876  0.00  0.00    -0.067 N 
HETATM   16  H           1     -21.772  -2.653  -7.776  0.00  0.00     0.275 HD
HETATM   17  H           1     -22.840  -3.741  -7.011  0.00  0.00     0.275 HD
HETATM   18  H           1     -22.925  -3.507  -8.699  0.00  0.00     0.275 HD
ENDBRANCH  13  15
ENDBRANCH   2  13
TORSDOF 6
ENDMDL
