MODEL 1
REMARK VINA RESULT:      -9.4      0.000      0.000
REMARK  10 active torsions:
REMARK  status: ('A' for Active; 'I' for Inactive)
REMARK    1  A    between atoms: C_2  and  C_3 
REMARK    2  A    between atoms: C_2  and  C_17 
REMARK    3  A    between atoms: C_3  and  N_4 
REMARK       I    between atoms: N_4  and  C_24 
REMARK    4  A    between atoms: C_8  and  C_19 
REMARK       I    between atoms: N_10  and  C_24 
REMARK    5  A    between atoms: C_14  and  C_15 
REMARK    6  A    between atoms: C_14  and  C_19 
REMARK    7  A    between atoms: C_14  and  N_29 
REMARK       I    between atoms: C_15  and  N_21 
REMARK    8  A    between atoms: C_17  and  C_31 
REMARK    9  A    between atoms: N_21  and  C_31 
REMARK   10  A    between atoms: C_30  and  C_31 
ROOT
HETATM    1  C           1     -21.546  -4.370  -7.598  0.00  0.00     0.249 C 
HETATM    2  N           1     -21.995  -4.725  -8.842  0.00  0.00    -0.345 N 
HETATM    3  H           1     -21.929  -5.687  -9.148  0.00  0.00     0.163 HD
HETATM    4  O           1     -21.625  -3.221  -7.233  0.00  0.00    -0.271 OA
ENDROOT
BRANCH   1   5
HETATM    5  C           1     -20.954  -5.413  -6.683  0.00  0.00     0.278 C 
BRANCH   5   6
HETATM    6  C           1     -22.009  -5.875  -5.689  0.00  0.00     0.083 C 
BRANCH   6   7
HETATM    7  C           1     -21.438  -6.947  -4.814  0.00  0.00    -0.028 A 
HETATM    8  C           1     -20.675  -8.014  -5.233  0.00  0.00     0.096 A 
HETATM    9  N           1     -20.353  -8.757  -4.128  0.00  0.00    -0.365 N 
HETATM   10  C           1     -20.895  -8.189  -2.997  0.00  0.00     0.042 A 
HETATM   11  H           1     -19.776  -9.635  -4.142  0.00  0.00     0.165 HD
HETATM   12  C           1     -21.584  -7.046  -3.403  0.00  0.00    -0.002 A 
HETATM   13  C           1     -20.828  -8.596  -1.660  0.00  0.00     0.030 A 
HETATM   14  C           1     -22.239  -6.268  -2.429  0.00  0.00     0.014 A 
HETATM   15  C           1     -22.182  -6.661  -1.087  0.00  0.00     0.001 A 
HETATM   16  C           1     -21.487  -7.808  -0.710  0.00  0.00     0.002 A 
ENDBRANCH   6   7
ENDBRANCH   5   6
BRANCH   5  17
HETATM   17  N           1     -19.792  -4.824  -5.941  0.00  0.00    -0.066 N 
HETATM   18  H           1     -19.230  -5.591  -5.506  0.00  0.00     0.275 HD
HETATM   19  H           1     -19.191  -4.285  -6.604  0.00  0.00     0.275 HD
HETATM   20  H           1     -20.145  -4.185  -5.192  0.00  0.00     0.275 HD
ENDBRANCH   5  17
ENDBRANCH   1   5
BRANCH   2  21
HETATM   21  C           1     -22.565  -3.722  -9.721  0.00  0.00     0.185 C 
BRANCH  21  22
HETATM   22  C           1     -22.014  -3.908 -11.129  0.00  0.00     0.038 C 
BRANCH  22  23
HETATM   23  C           1     -22.317  -2.669 -11.961  0.00  0.00     0.023 C 
BRANCH  23  24
HETATM   24  C           1     -23.211  -3.051 -13.134  0.00  0.00     0.138 C 
BRANCH  24  25
HETATM   25  N           1     -23.984  -1.877 -13.564  0.00  0.00    -0.227 N 
HETATM   26  C           1     -23.757  -1.348 -14.692  0.00  0.00     0.665 C 
HETATM   27  N           1     -24.440  -0.310 -15.073  0.00  0.00    -0.235 N 
HETATM   28  N           1     -22.865  -1.831 -15.450  0.00  0.00    -0.235 N 
HETATM   29  H           1     -25.176   0.089 -14.448  0.00  0.00     0.174 HD
HETATM   30  H           1     -24.253   0.126 -16.003  0.00  0.00     0.174 HD
HETATM   31  H           1     -22.313  -2.670 -15.142  0.00  0.00     0.174 HD
HETATM   32  H           1     -22.677  -1.393 -16.385  0.00  0.00     0.174 HD
HETATM   33  H           1     -24.724  -1.476 -12.936  0.00  0.00     0.177 HD
ENDBRANCH  24  25
ENDBRANCH  23  24
ENDBRANCH  22  23
ENDBRANCH  21  22
BRANCH  21  34
HETATM   34  C           1     -24.067  -3.870  -9.745  0.00  0.00     0.196 C 
HETATM   35  O           1     -24.582  -4.953 -10.098  0.00  0.00    -0.646 OA
HETATM   36  O           1     -24.795  -2.910  -9.413  0.00  0.00    -0.646 OA
ENDBRANCH  21  34
ENDBRANCH   2  21
TORSDOF 10
ENDMDL
MODEL 2
REMARK VINA RESULT:      -8.4      1.856      2.340
REMARK  10 active torsions:
REMARK  status: ('A' for Active; 'I' for Inactive)
REMARK    1  A    between atoms: C_2  and  C_3 
REMARK    2  A    between atoms: C_2  and  C_17 
REMARK    3  A    between atoms: C_3  and  N_4 
REMARK       I    between atoms: N_4  and  C_24 
REMARK    4  A    between atoms: C_8  and  C_19 
REMARK       I    between atoms: N_10  and  C_24 
REMARK    5  A    between atoms: C_14  and  C_15 
REMARK    6  A    between atoms: C_14  and  C_19 
REMARK    7  A    between atoms: C_14  and  N_29 
REMARK       I    between atoms: C_15  and  N_21 
REMARK    8  A    between atoms: C_17  and  C_31 
REMARK    9  A    between atoms: N_21  and  C_31 
REMARK   10  A    between atoms: C_30  and  C_31 
ROOT
HETATM    1  C           1     -20.998  -5.772  -6.890  0.00  0.00     0.249 C 
HETATM    2  N           1     -21.078  -4.628  -7.640  0.00  0.00    -0.345 N 
HETATM    3  H           1     -20.761  -3.748  -7.256  0.00  0.00     0.163 HD
HETATM    4  O           1     -21.377  -6.823  -7.349  0.00  0.00    -0.271 OA
ENDROOT
BRANCH   1   5
HETATM    5  C           1     -20.436  -5.718  -5.491  0.00  0.00     0.278 C 
BRANCH   5   6
HETATM    6  C           1     -21.534  -6.049  -4.490  0.00  0.00     0.083 C 
BRANCH   6   7
HETATM    7  C           1     -21.099  -7.197  -3.633  0.00  0.00    -0.028 A 
HETATM    8  C           1     -20.258  -8.218  -4.012  0.00  0.00     0.096 A 
HETATM    9  N           1     -20.114  -9.061  -2.941  0.00  0.00    -0.365 N 
HETATM   10  C           1     -20.850  -8.603  -1.872  0.00  0.00     0.042 A 
HETATM   11  H           1     -19.527  -9.932  -2.937  0.00  0.00     0.165 HD
HETATM   12  C           1     -21.481  -7.428  -2.282  0.00  0.00    -0.002 A 
HETATM   13  C           1     -21.003  -9.133  -0.586  0.00  0.00     0.030 A 
HETATM   14  C           1     -22.306  -6.746  -1.367  0.00  0.00     0.014 A 
HETATM   15  C           1     -22.470  -7.263  -0.076  0.00  0.00     0.001 A 
HETATM   16  C           1     -21.828  -8.439   0.306  0.00  0.00     0.002 A 
ENDBRANCH   6   7
ENDBRANCH   5   6
BRANCH   5  17
HETATM   17  N           1     -19.910  -4.340  -5.217  0.00  0.00    -0.066 N 
HETATM   18  H           1     -19.447  -3.966  -6.076  0.00  0.00     0.275 HD
HETATM   19  H           1     -20.700  -3.713  -4.946  0.00  0.00     0.275 HD
HETATM   20  H           1     -19.214  -4.381  -4.438  0.00  0.00     0.275 HD
ENDBRANCH   5  17
ENDBRANCH   1   5
BRANCH   2  21
HETATM   21  C           1     -21.618  -4.680  -8.985  0.00  0.00     0.185 C 
BRANCH  21  22
HETATM   22  C           1     -22.745  -3.665  -9.120  0.00  0.00     0.038 C 
BRANCH  22  23
HETATM   23  C           1     -23.977  -4.347  -9.702  0.00  0.00     0.023 C 
BRANCH  23  24
HETATM   24  C           1     -23.762  -4.602 -11.188  0.00  0.00     0.138 C 
BRANCH  24  25
HETATM   25  N           1     -24.194  -3.425 -11.955  0.00  0.00    -0.227 N 
HETATM   26  C           1     -23.434  -2.930 -12.838  0.00  0.00     0.665 C 
HETATM   27  N           1     -23.817  -1.890 -13.517  0.00  0.00    -0.235 N 
HETATM   28  N           1     -22.301  -3.450 -13.061  0.00  0.00    -0.235 N 
HETATM   29  H           1     -24.752  -1.461 -13.333  0.00  0.00     0.174 HD
HETATM   30  H           1     -23.190  -1.482 -14.246  0.00  0.00     0.174 HD
HETATM   31  H           1     -21.992  -4.290 -12.513  0.00  0.00     0.174 HD
HETATM   32  H           1     -21.671  -3.039 -13.794  0.00  0.00     0.174 HD
HETATM   33  H           1     -25.134  -2.994 -11.770  0.00  0.00     0.177 HD
ENDBRANCH  24  25
ENDBRANCH  23  24
ENDBRANCH  22  23
ENDBRANCH  21  22
BRANCH  21  34
HETATM   34  C           1     -20.527  -4.355  -9.977  0.00  0.00     0.196 C 
HETATM   35  O           1     -19.578  -5.150 -10.145  0.00  0.00    -0.646 OA
HETATM   36  O           1     -20.574  -3.290 -10.630  0.00  0.00    -0.646 OA
ENDBRANCH  21  34
ENDBRANCH   2  21
TORSDOF 10
ENDMDL
MODEL 3
REMARK VINA RESULT:      -8.3      3.468      9.969
REMARK  10 active torsions:
REMARK  status: ('A' for Active; 'I' for Inactive)
REMARK    1  A    between atoms: C_2  and  C_3 
REMARK    2  A    between atoms: C_2  and  C_17 
REMARK    3  A    between atoms: C_3  and  N_4 
REMARK       I    between atoms: N_4  and  C_24 
REMARK    4  A    between atoms: C_8  and  C_19 
REMARK       I    between atoms: N_10  and  C_24 
REMARK    5  A    between atoms: C_14  and  C_15 
REMARK    6  A    between atoms: C_14  and  C_19 
REMARK    7  A    between atoms: C_14  and  N_29 
REMARK       I    between atoms: C_15  and  N_21 
REMARK    8  A    between atoms: C_17  and  C_31 
REMARK    9  A    between atoms: N_21  and  C_31 
REMARK   10  A    between atoms: C_30  and  C_31 
ROOT
HETATM    1  C           1     -20.326  -6.916  -5.635  0.00  0.00     0.249 C 
HETATM    2  N           1     -20.722  -7.474  -4.449  0.00  0.00    -0.345 N 
HETATM    3  H           1     -21.356  -6.974  -3.841  0.00  0.00     0.163 HD
HETATM    4  O           1     -19.568  -7.514  -6.361  0.00  0.00    -0.271 OA
ENDROOT
BRANCH   1   5
HETATM    5  C           1     -20.837  -5.553  -6.035  0.00  0.00     0.278 C 
BRANCH   5   6
HETATM    6  C           1     -20.603  -5.340  -7.524  0.00  0.00     0.083 C 
BRANCH   6   7
HETATM    7  C           1     -21.814  -4.704  -8.134  0.00  0.00    -0.028 A 
HETATM    8  C           1     -22.993  -4.417  -7.485  0.00  0.00     0.096 A 
HETATM    9  N           1     -23.842  -3.842  -8.394  0.00  0.00    -0.365 N 
HETATM   10  C           1     -23.231  -3.750  -9.624  0.00  0.00     0.042 A 
HETATM   11  H           1     -24.818  -3.518  -8.182  0.00  0.00     0.165 HD
HETATM   12  C           1     -21.951  -4.287  -9.487  0.00  0.00    -0.002 A 
HETATM   13  C           1     -23.710  -3.238 -10.835  0.00  0.00     0.030 A 
HETATM   14  C           1     -21.104  -4.316 -10.611  0.00  0.00     0.014 A 
HETATM   15  C           1     -21.567  -3.807 -11.831  0.00  0.00     0.001 A 
HETATM   16  C           1     -22.851  -3.277 -11.939  0.00  0.00     0.002 A 
ENDBRANCH   6   7
ENDBRANCH   5   6
BRANCH   5  17
HETATM   17  N           1     -20.106  -4.499  -5.259  0.00  0.00    -0.066 N 
HETATM   18  H           1     -19.957  -3.661  -5.864  0.00  0.00     0.275 HD
HETATM   19  H           1     -20.670  -4.228  -4.422  0.00  0.00     0.275 HD
HETATM   20  H           1     -19.180  -4.873  -4.949  0.00  0.00     0.275 HD
ENDBRANCH   5  17
ENDBRANCH   1   5
BRANCH   2  21
HETATM   21  C           1     -20.231  -8.784  -4.066  0.00  0.00     0.185 C 
BRANCH  21  22
HETATM   22  C           1     -19.974  -8.811  -2.564  0.00  0.00     0.038 C 
BRANCH  22  23
HETATM   23  C           1     -20.746  -7.680  -1.896  0.00  0.00     0.023 C 
BRANCH  23  24
HETATM   24  C           1     -21.178  -8.114  -0.502  0.00  0.00     0.138 C 
BRANCH  24  25
HETATM   25  N           1     -21.978  -9.344  -0.596  0.00  0.00    -0.227 N 
HETATM   26  C           1     -23.133  -9.389  -0.082  0.00  0.00     0.665 C 
HETATM   27  N           1     -23.841 -10.477  -0.166  0.00  0.00    -0.235 N 
HETATM   28  N           1     -23.601  -8.374   0.513  0.00  0.00    -0.235 N 
HETATM   29  H           1     -23.454 -11.314  -0.657  0.00  0.00     0.174 HD
HETATM   30  H           1     -24.795 -10.514   0.258  0.00  0.00     0.174 HD
HETATM   31  H           1     -23.031  -7.496   0.581  0.00  0.00     0.174 HD
HETATM   32  H           1     -24.560  -8.412   0.939  0.00  0.00     0.174 HD
HETATM   33  H           1     -21.590 -10.186  -1.090  0.00  0.00     0.177 HD
ENDBRANCH  24  25
ENDBRANCH  23  24
ENDBRANCH  22  23
ENDBRANCH  21  22
BRANCH  21  34
HETATM   34  C           1     -21.261  -9.830  -4.418  0.00  0.00     0.196 C 
HETATM   35  O           1     -21.186 -10.437  -5.507  0.00  0.00    -0.646 OA
HETATM   36  O           1     -22.188 -10.087  -3.620  0.00  0.00    -0.646 OA
ENDBRANCH  21  34
ENDBRANCH   2  21
TORSDOF 10
ENDMDL
MODEL 4
REMARK VINA RESULT:      -8.3      2.988      9.720
REMARK  10 active torsions:
REMARK  status: ('A' for Active; 'I' for Inactive)
REMARK    1  A    between atoms: C_2  and  C_3 
REMARK    2  A    between atoms: C_2  and  C_17 
REMARK    3  A    between atoms: C_3  and  N_4 
REMARK       I    between atoms: N_4  and  C_24 
REMARK    4  A    between atoms: C_8  and  C_19 
REMARK       I    between atoms: N_10  and  C_24 
REMARK    5  A    between atoms: C_14  and  C_15 
REMARK    6  A    between atoms: C_14  and  C_19 
REMARK    7  A    between atoms: C_14  and  N_29 
REMARK       I    between atoms: C_15  and  N_21 
REMARK    8  A    between atoms: C_17  and  C_31 
REMARK    9  A    between atoms: N_21  and  C_31 
REMARK   10  A    between atoms: C_30  and  C_31 
ROOT
HETATM    1  C           1     -20.871  -6.334  -6.538  0.00  0.00     0.249 C 
HETATM    2  N           1     -21.329  -6.874  -5.366  0.00  0.00    -0.345 N 
HETATM    3  H           1     -22.247  -6.629  -5.020  0.00  0.00     0.163 HD
HETATM    4  O           1     -19.774  -6.627  -6.950  0.00  0.00    -0.271 OA
ENDROOT
BRANCH   1   5
HETATM    5  C           1     -21.738  -5.373  -7.314  0.00  0.00     0.278 C 
BRANCH   5   6
HETATM    6  C           1     -20.887  -4.217  -7.820  0.00  0.00     0.083 C 
BRANCH   6   7
HETATM    7  C           1     -21.036  -4.098  -9.305  0.00  0.00    -0.028 A 
HETATM    8  C           1     -20.040  -4.280 -10.237  0.00  0.00     0.096 A 
HETATM    9  N           1     -20.587  -4.081 -11.478  0.00  0.00    -0.365 N 
HETATM   10  C           1     -21.924  -3.774 -11.365  0.00  0.00     0.042 A 
HETATM   11  H           1     -20.061  -4.154 -12.384  0.00  0.00     0.165 HD
HETATM   12  C           1     -22.233  -3.777 -10.005  0.00  0.00    -0.002 A 
HETATM   13  C           1     -22.874  -3.496 -12.354  0.00  0.00     0.030 A 
HETATM   14  C           1     -23.552  -3.491  -9.608  0.00  0.00     0.014 A 
HETATM   15  C           1     -24.516  -3.210 -10.585  0.00  0.00     0.001 A 
HETATM   16  C           1     -24.179  -3.212 -11.937  0.00  0.00     0.002 A 
ENDBRANCH   6   7
ENDBRANCH   5   6
BRANCH   5  17
HETATM   17  N           1     -22.819  -4.843  -6.420  0.00  0.00    -0.066 N 
HETATM   18  H           1     -23.103  -5.583  -5.739  0.00  0.00     0.275 HD
HETATM   19  H           1     -22.464  -4.009  -5.900  0.00  0.00     0.275 HD
HETATM   20  H           1     -23.646  -4.568  -6.999  0.00  0.00     0.275 HD
ENDBRANCH   5  17
ENDBRANCH   1   5
BRANCH   2  21
HETATM   21  C           1     -20.496  -7.798  -4.620  0.00  0.00     0.185 C 
BRANCH  21  22
HETATM   22  C           1     -20.489  -7.402  -3.149  0.00  0.00     0.038 C 
BRANCH  22  23
HETATM   23  C           1     -21.555  -6.343  -2.902  0.00  0.00     0.023 C 
BRANCH  23  24
HETATM   24  C           1     -22.304  -6.667  -1.616  0.00  0.00     0.138 C 
BRANCH  24  25
HETATM   25  N           1     -22.082  -8.076  -1.260  0.00  0.00    -0.227 N 
HETATM   26  C           1     -22.648  -8.568  -0.240  0.00  0.00     0.665 C 
HETATM   27  N           1     -22.452  -9.814   0.074  0.00  0.00    -0.235 N 
HETATM   28  N           1     -23.407  -7.847   0.472  0.00  0.00    -0.235 N 
HETATM   29  H           1     -21.826 -10.409  -0.514  0.00  0.00     0.174 HD
HETATM   30  H           1     -22.920 -10.221   0.915  0.00  0.00     0.174 HD
HETATM   31  H           1     -23.566  -6.841   0.218  0.00  0.00     0.174 HD
HETATM   32  H           1     -23.877  -8.256   1.317  0.00  0.00     0.174 HD
HETATM   33  H           1     -21.453  -8.673  -1.851  0.00  0.00     0.177 HD
ENDBRANCH  24  25
ENDBRANCH  23  24
ENDBRANCH  22  23
ENDBRANCH  21  22
BRANCH  21  34
HETATM   34  C           1     -21.047  -9.197  -4.760  0.00  0.00     0.196 C 
HETATM   35  O           1     -20.986  -9.784  -5.862  0.00  0.00    -0.646 OA
HETATM   36  O           1     -21.565  -9.766  -3.775  0.00  0.00    -0.646 OA
ENDBRANCH  21  34
ENDBRANCH   2  21
TORSDOF 10
ENDMDL
MODEL 5
REMARK VINA RESULT:      -8.0      3.430      9.251
REMARK  10 active torsions:
REMARK  status: ('A' for Active; 'I' for Inactive)
REMARK    1  A    between atoms: C_2  and  C_3 
REMARK    2  A    between atoms: C_2  and  C_17 
REMARK    3  A    between atoms: C_3  and  N_4 
REMARK       I    between atoms: N_4  and  C_24 
REMARK    4  A    between atoms: C_8  and  C_19 
REMARK       I    between atoms: N_10  and  C_24 
REMARK    5  A    between atoms: C_14  and  C_15 
REMARK    6  A    between atoms: C_14  and  C_19 
REMARK    7  A    between atoms: C_14  and  N_29 
REMARK       I    between atoms: C_15  and  N_21 
REMARK    8  A    between atoms: C_17  and  C_31 
REMARK    9  A    between atoms: N_21  and  C_31 
REMARK   10  A    between atoms: C_30  and  C_31 
ROOT
HETATM    1  C           1     -21.216  -6.662  -4.690  0.00  0.00     0.249 C 
HETATM    2  N           1     -21.208  -6.583  -3.323  0.00  0.00    -0.345 N 
HETATM    3  H           1     -21.146  -5.682  -2.868  0.00  0.00     0.163 HD
HETATM    4  O           1     -21.290  -7.739  -5.232  0.00  0.00    -0.271 OA
ENDROOT
BRANCH   1   5
HETATM    5  C           1     -21.135  -5.403  -5.518  0.00  0.00     0.278 C 
BRANCH   5   6
HETATM    6  C           1     -20.968  -5.771  -6.986  0.00  0.00     0.083 C 
BRANCH   6   7
HETATM    7  C           1     -21.904  -4.950  -7.817  0.00  0.00    -0.028 A 
HETATM    8  C           1     -23.165  -4.538  -7.450  0.00  0.00     0.096 A 
HETATM    9  N           1     -23.686  -3.811  -8.488  0.00  0.00    -0.365 N 
HETATM   10  C           1     -22.782  -3.745  -9.525  0.00  0.00     0.042 A 
HETATM   11  H           1     -24.639  -3.369  -8.492  0.00  0.00     0.165 HD
HETATM   12  C           1     -21.650  -4.456  -9.126  0.00  0.00    -0.002 A 
HETATM   13  C           1     -22.881  -3.116 -10.771  0.00  0.00     0.030 A 
HETATM   14  C           1     -20.559  -4.545 -10.012  0.00  0.00     0.014 A 
HETATM   15  C           1     -20.641  -3.921 -11.263  0.00  0.00     0.001 A 
HETATM   16  C           1     -21.785  -3.219 -11.635  0.00  0.00     0.002 A 
ENDBRANCH   6   7
ENDBRANCH   5   6
BRANCH   5  17
HETATM   17  N           1     -19.959  -4.587  -5.071  0.00  0.00    -0.066 N 
HETATM   18  H           1     -19.781  -3.824  -5.762  0.00  0.00     0.275 HD
HETATM   19  H           1     -20.160  -4.170  -4.135  0.00  0.00     0.275 HD
HETATM   20  H           1     -19.114  -5.200  -5.006  0.00  0.00     0.275 HD
ENDBRANCH   5  17
ENDBRANCH   1   5
BRANCH   2  21
HETATM   21  C           1     -21.286  -7.792  -2.527  0.00  0.00     0.185 C 
BRANCH  21  22
HETATM   22  C           1     -19.886  -8.208  -2.093  0.00  0.00     0.038 C 
BRANCH  22  23
HETATM   23  C           1     -19.585  -9.605  -2.618  0.00  0.00     0.023 C 
BRANCH  23  24
HETATM   24  C           1     -18.341  -9.560  -3.496  0.00  0.00     0.138 C 
BRANCH  24  25
HETATM   25  N           1     -18.454 -10.570  -4.559  0.00  0.00    -0.227 N 
HETATM   26  C           1     -18.602 -10.208  -5.763  0.00  0.00     0.665 C 
HETATM   27  N           1     -18.701 -11.101  -6.703  0.00  0.00    -0.235 N 
HETATM   28  N           1     -18.651  -8.977  -6.053  0.00  0.00    -0.235 N 
HETATM   29  H           1     -18.660 -12.118  -6.463  0.00  0.00     0.174 HD
HETATM   30  H           1     -18.822 -10.803  -7.696  0.00  0.00     0.174 HD
HETATM   31  H           1     -18.570  -8.255  -5.294  0.00  0.00     0.174 HD
HETATM   32  H           1     -18.773  -8.677  -7.051  0.00  0.00     0.174 HD
HETATM   33  H           1     -18.413 -11.591  -4.319  0.00  0.00     0.177 HD
ENDBRANCH  24  25
ENDBRANCH  23  24
ENDBRANCH  22  23
ENDBRANCH  21  22
BRANCH  21  34
HETATM   34  C           1     -22.135  -7.535  -1.305  0.00  0.00     0.196 C 
HETATM   35  O           1     -22.639  -6.407  -1.120  0.00  0.00    -0.646 OA
HETATM   36  O           1     -22.333  -8.452  -0.477  0.00  0.00    -0.646 OA
ENDBRANCH  21  34
ENDBRANCH   2  21
TORSDOF 10
ENDMDL
MODEL 6
REMARK VINA RESULT:      -8.0      2.238      3.399
REMARK  10 active torsions:
REMARK  status: ('A' for Active; 'I' for Inactive)
REMARK    1  A    between atoms: C_2  and  C_3 
REMARK    2  A    between atoms: C_2  and  C_17 
REMARK    3  A    between atoms: C_3  and  N_4 
REMARK       I    between atoms: N_4  and  C_24 
REMARK    4  A    between atoms: C_8  and  C_19 
REMARK       I    between atoms: N_10  and  C_24 
REMARK    5  A    between atoms: C_14  and  C_15 
REMARK    6  A    between atoms: C_14  and  C_19 
REMARK    7  A    between atoms: C_14  and  N_29 
REMARK       I    between atoms: C_15  and  N_21 
REMARK    8  A    between atoms: C_17  and  C_31 
REMARK    9  A    between atoms: N_21  and  C_31 
REMARK   10  A    between atoms: C_30  and  C_31 
ROOT
HETATM    1  C           1     -20.887  -6.321  -5.840  0.00  0.00     0.249 C 
HETATM    2  N           1     -21.160  -6.230  -7.179  0.00  0.00    -0.345 N 
HETATM    3  H           1     -21.627  -6.992  -7.653  0.00  0.00     0.163 HD
HETATM    4  O           1     -20.328  -5.411  -5.275  0.00  0.00    -0.271 OA
ENDROOT
BRANCH   1   5
HETATM    5  C           1     -21.284  -7.556  -5.071  0.00  0.00     0.278 C 
BRANCH   5   6
HETATM    6  C           1     -20.431  -7.669  -3.816  0.00  0.00     0.083 C 
BRANCH   6   7
HETATM    7  C           1     -21.253  -7.305  -2.618  0.00  0.00    -0.028 A 
HETATM    8  C           1     -21.614  -6.032  -2.240  0.00  0.00     0.096 A 
HETATM    9  N           1     -22.361  -6.132  -1.095  0.00  0.00    -0.365 N 
HETATM   10  C           1     -22.491  -7.452  -0.725  0.00  0.00     0.042 A 
HETATM   11  H           1     -22.775  -5.319  -0.576  0.00  0.00     0.165 HD
HETATM   12  C           1     -21.801  -8.212  -1.669  0.00  0.00    -0.002 A 
HETATM   13  C           1     -23.160  -8.024   0.363  0.00  0.00     0.030 A 
HETATM   14  C           1     -21.776  -9.612  -1.525  0.00  0.00     0.014 A 
HETATM   15  C           1     -22.440 -10.201  -0.442  0.00  0.00     0.001 A 
HETATM   16  C           1     -23.120  -9.417   0.487  0.00  0.00     0.002 A 
ENDBRANCH   6   7
ENDBRANCH   5   6
BRANCH   5  17
HETATM   17  N           1     -21.072  -8.768  -5.930  0.00  0.00    -0.066 N 
HETATM   18  H           1     -20.882  -8.469  -6.913  0.00  0.00     0.275 HD
HETATM   19  H           1     -20.257  -9.313  -5.568  0.00  0.00     0.275 HD
HETATM   20  H           1     -21.930  -9.365  -5.907  0.00  0.00     0.275 HD
ENDBRANCH   5  17
ENDBRANCH   1   5
BRANCH   2  21
HETATM   21  C           1     -20.778  -5.042  -7.918  0.00  0.00     0.185 C 
BRANCH  21  22
HETATM   22  C           1     -20.709  -5.368  -9.405  0.00  0.00     0.038 C 
BRANCH  22  23
HETATM   23  C           1     -20.239  -4.139 -10.173  0.00  0.00     0.023 C 
BRANCH  23  24
HETATM   24  C           1     -21.144  -3.917 -11.378  0.00  0.00     0.138 C 
BRANCH  24  25
HETATM   25  N           1     -22.446  -3.406 -10.926  0.00  0.00    -0.227 N 
HETATM   26  C           1     -23.515  -3.955 -11.324  0.00  0.00     0.665 C 
HETATM   27  N           1     -24.666  -3.502 -10.924  0.00  0.00    -0.235 N 
HETATM   28  N           1     -23.463  -4.946 -12.110  0.00  0.00    -0.235 N 
HETATM   29  H           1     -24.709  -2.684 -10.276  0.00  0.00     0.174 HD
HETATM   30  H           1     -25.548  -3.956 -11.252  0.00  0.00     0.174 HD
HETATM   31  H           1     -22.533  -5.312 -12.432  0.00  0.00     0.174 HD
HETATM   32  H           1     -24.349  -5.402 -12.439  0.00  0.00     0.174 HD
HETATM   33  H           1     -22.489  -2.583 -10.274  0.00  0.00     0.177 HD
ENDBRANCH  24  25
ENDBRANCH  23  24
ENDBRANCH  22  23
ENDBRANCH  21  22
BRANCH  21  34
HETATM   34  C           1     -21.802  -3.957  -7.689  0.00  0.00     0.196 C 
HETATM   35  O           1     -21.469  -2.892  -7.126  0.00  0.00    -0.646 OA
HETATM   36  O           1     -22.984  -4.124  -8.061  0.00  0.00    -0.646 OA
ENDBRANCH  21  34
ENDBRANCH   2  21
TORSDOF 10
ENDMDL
MODEL 7
REMARK VINA RESULT:      -7.9      2.576      3.818
REMARK  10 active torsions:
REMARK  status: ('A' for Active; 'I' for Inactive)
REMARK    1  A    between atoms: C_2  and  C_3 
REMARK    2  A    between atoms: C_2  and  C_17 
REMARK    3  A    between atoms: C_3  and  N_4 
REMARK       I    between atoms: N_4  and  C_24 
REMARK    4  A    between atoms: C_8  and  C_19 
REMARK       I    between atoms: N_10  and  C_24 
REMARK    5  A    between atoms: C_14  and  C_15 
REMARK    6  A    between atoms: C_14  and  C_19 
REMARK    7  A    between atoms: C_14  and  N_29 
REMARK       I    between atoms: C_15  and  N_21 
REMARK    8  A    between atoms: C_17  and  C_31 
REMARK    9  A    between atoms: N_21  and  C_31 
REMARK   10  A    between atoms: C_30  and  C_31 
ROOT
HETATM    1  C           1     -21.150  -6.424  -5.857  0.00  0.00     0.249 C 
HETATM    2  N           1     -21.212  -5.156  -6.372  0.00  0.00    -0.345 N 
HETATM    3  H           1     -21.139  -4.356  -5.758  0.00  0.00     0.163 HD
HETATM    4  O           1     -21.237  -7.379  -6.591  0.00  0.00    -0.271 OA
ENDROOT
BRANCH   1   5
HETATM    5  C           1     -20.971  -6.626  -4.372  0.00  0.00     0.278 C 
BRANCH   5   6
HETATM    6  C           1     -20.637  -8.085  -4.095  0.00  0.00     0.083 C 
BRANCH   6   7
HETATM    7  C           1     -20.966  -8.413  -2.672  0.00  0.00    -0.028 A 
HETATM    8  C           1     -20.493  -7.756  -1.559  0.00  0.00     0.096 A 
HETATM    9  N           1     -21.032  -8.363  -0.455  0.00  0.00    -0.365 N 
HETATM   10  C           1     -21.849  -9.404  -0.835  0.00  0.00     0.042 A 
HETATM   11  H           1     -20.848  -8.074   0.538  0.00  0.00     0.165 HD
HETATM   12  C           1     -21.825  -9.457  -2.228  0.00  0.00    -0.002 A 
HETATM   13  C           1     -22.600 -10.293  -0.058  0.00  0.00     0.030 A 
HETATM   14  C           1     -22.586 -10.443  -2.883  0.00  0.00     0.014 A 
HETATM   15  C           1     -23.343 -11.342  -2.121  0.00  0.00     0.001 A 
HETATM   16  C           1     -23.347 -11.266  -0.730  0.00  0.00     0.002 A 
ENDBRANCH   6   7
ENDBRANCH   5   6
BRANCH   5  17
HETATM   17  N           1     -22.241  -6.262  -3.663  0.00  0.00    -0.066 N 
HETATM   18  H           1     -22.426  -6.953  -2.901  0.00  0.00     0.275 HD
HETATM   19  H           1     -22.149  -5.306  -3.252  0.00  0.00     0.275 HD
HETATM   20  H           1     -23.036  -6.274  -4.343  0.00  0.00     0.275 HD
ENDBRANCH   5  17
ENDBRANCH   1   5
BRANCH   2  21
HETATM   21  C           1     -21.383  -4.962  -7.799  0.00  0.00     0.185 C 
BRANCH  21  22
HETATM   22  C           1     -22.298  -3.769  -8.044  0.00  0.00     0.038 C 
BRANCH  22  23
HETATM   23  C           1     -23.634  -4.256  -8.589  0.00  0.00     0.023 C 
BRANCH  23  24
HETATM   24  C           1     -23.915  -3.580  -9.924  0.00  0.00     0.138 C 
BRANCH  24  25
HETATM   25  N           1     -22.657  -3.421 -10.668  0.00  0.00    -0.227 N 
HETATM   26  C           1     -22.504  -3.996 -11.785  0.00  0.00     0.665 C 
HETATM   27  N           1     -21.392  -3.855 -12.443  0.00  0.00    -0.235 N 
HETATM   28  N           1     -23.437  -4.708 -12.263  0.00  0.00    -0.235 N 
HETATM   29  H           1     -20.623  -3.268 -12.049  0.00  0.00     0.174 HD
HETATM   30  H           1     -21.266  -4.329 -13.365  0.00  0.00     0.174 HD
HETATM   31  H           1     -24.335  -4.821 -11.732  0.00  0.00     0.174 HD
HETATM   32  H           1     -23.310  -5.184 -13.190  0.00  0.00     0.174 HD
HETATM   33  H           1     -21.884  -2.830 -10.272  0.00  0.00     0.177 HD
ENDBRANCH  24  25
ENDBRANCH  23  24
ENDBRANCH  22  23
ENDBRANCH  21  22
BRANCH  21  34
HETATM   34  C           1     -20.039  -4.703  -8.436  0.00  0.00     0.196 C 
HETATM   35  O           1     -19.045  -4.457  -7.719  0.00  0.00    -0.646 OA
HETATM   36  O           1     -19.920  -4.734  -9.680  0.00  0.00    -0.646 OA
ENDBRANCH  21  34
ENDBRANCH   2  21
TORSDOF 10
ENDMDL
MODEL 8
REMARK VINA RESULT:      -7.7     12.316     14.134
REMARK  10 active torsions:
REMARK  status: ('A' for Active; 'I' for Inactive)
REMARK    1  A    between atoms: C_2  and  C_3 
REMARK    2  A    between atoms: C_2  and  C_17 
REMARK    3  A    between atoms: C_3  and  N_4 
REMARK       I    between atoms: N_4  and  C_24 
REMARK    4  A    between atoms: C_8  and  C_19 
REMARK       I    between atoms: N_10  and  C_24 
REMARK    5  A    between atoms: C_14  and  C_15 
REMARK    6  A    between atoms: C_14  and  C_19 
REMARK    7  A    between atoms: C_14  and  N_29 
REMARK       I    between atoms: C_15  and  N_21 
REMARK    8  A    between atoms: C_17  and  C_31 
REMARK    9  A    between atoms: N_21  and  C_31 
REMARK   10  A    between atoms: C_30  and  C_31 
ROOT
HETATM    1  C           1     -35.146  -0.565 -12.374  0.00  0.00     0.249 C 
HETATM    2  N           1     -35.528  -1.077 -13.586  0.00  0.00    -0.345 N 
HETATM    3  H           1     -35.623  -2.077 -13.706  0.00  0.00     0.163 HD
HETATM    4  O           1     -35.032   0.629 -12.232  0.00  0.00    -0.271 OA
ENDROOT
BRANCH   1   5
HETATM    5  C           1     -34.868  -1.494 -11.218  0.00  0.00     0.278 C 
BRANCH   5   6
HETATM    6  C           1     -35.476  -2.859 -11.505  0.00  0.00     0.083 C 
BRANCH   6   7
HETATM    7  C           1     -34.392  -3.890 -11.551  0.00  0.00    -0.028 A 
HETATM    8  C           1     -33.186  -3.770 -12.204  0.00  0.00     0.096 A 
HETATM    9  N           1     -32.483  -4.928 -12.001  0.00  0.00    -0.365 N 
HETATM   10  C           1     -33.214  -5.800 -11.226  0.00  0.00     0.042 A 
HETATM   11  H           1     -31.524  -5.123 -12.383  0.00  0.00     0.165 HD
HETATM   12  C           1     -34.422  -5.169 -10.929  0.00  0.00    -0.002 A 
HETATM   13  C           1     -32.900  -7.085 -10.769  0.00  0.00     0.030 A 
HETATM   14  C           1     -35.366  -5.851 -10.137  0.00  0.00     0.014 A 
HETATM   15  C           1     -35.068  -7.137  -9.672  0.00  0.00     0.001 A 
HETATM   16  C           1     -33.854  -7.743  -9.986  0.00  0.00     0.002 A 
ENDBRANCH   6   7
ENDBRANCH   5   6
BRANCH   5  17
HETATM   17  N           1     -35.475  -0.929  -9.968  0.00  0.00    -0.066 N 
HETATM   18  H           1     -36.045  -0.087 -10.207  0.00  0.00     0.275 HD
HETATM   19  H           1     -36.086  -1.649  -9.522  0.00  0.00     0.275 HD
HETATM   20  H           1     -34.714  -0.657  -9.304  0.00  0.00     0.275 HD
ENDBRANCH   5  17
ENDBRANCH   1   5
BRANCH   2  21
HETATM   21  C           1     -35.795  -0.185 -14.698  0.00  0.00     0.185 C 
BRANCH  21  22
HETATM   22  C           1     -35.081  -0.695 -15.943  0.00  0.00     0.038 C 
BRANCH  22  23
HETATM   23  C           1     -35.080  -2.218 -15.940  0.00  0.00     0.023 C 
BRANCH  23  24
HETATM   24  C           1     -34.259  -2.728 -17.117  0.00  0.00     0.138 C 
BRANCH  24  25
HETATM   25  N           1     -33.513  -3.928 -16.712  0.00  0.00    -0.227 N 
HETATM   26  C           1     -32.285  -4.037 -16.997  0.00  0.00     0.665 C 
HETATM   27  N           1     -31.625  -5.099 -16.638  0.00  0.00    -0.235 N 
HETATM   28  N           1     -31.697  -3.111 -17.629  0.00  0.00    -0.235 N 
HETATM   29  H           1     -32.110  -5.863 -16.115  0.00  0.00     0.174 HD
HETATM   30  H           1     -30.611  -5.188 -16.872  0.00  0.00     0.174 HD
HETATM   31  H           1     -32.230  -2.253 -17.918  0.00  0.00     0.174 HD
HETATM   32  H           1     -30.679  -3.201 -17.865  0.00  0.00     0.174 HD
HETATM   33  H           1     -34.000  -4.697 -16.186  0.00  0.00     0.177 HD
ENDBRANCH  24  25
ENDBRANCH  23  24
ENDBRANCH  22  23
ENDBRANCH  21  22
BRANCH  21  34
HETATM   34  C           1     -37.282  -0.136 -14.956  0.00  0.00     0.196 C 
HETATM   35  O           1     -37.720   0.434 -15.978  0.00  0.00    -0.646 OA
HETATM   36  O           1     -38.075  -0.666 -14.148  0.00  0.00    -0.646 OA
ENDBRANCH  21  34
ENDBRANCH   2  21
TORSDOF 10
ENDMDL
MODEL 9
REMARK VINA RESULT:      -7.6      3.611      9.247
REMARK  10 active torsions:
REMARK  status: ('A' for Active; 'I' for Inactive)
REMARK    1  A    between atoms: C_2  and  C_3 
REMARK    2  A    between atoms: C_2  and  C_17 
REMARK    3  A    between atoms: C_3  and  N_4 
REMARK       I    between atoms: N_4  and  C_24 
REMARK    4  A    between atoms: C_8  and  C_19 
REMARK       I    between atoms: N_10  and  C_24 
REMARK    5  A    between atoms: C_14  and  C_15 
REMARK    6  A    between atoms: C_14  and  C_19 
REMARK    7  A    between atoms: C_14  and  N_29 
REMARK       I    between atoms: C_15  and  N_21 
REMARK    8  A    between atoms: C_17  and  C_31 
REMARK    9  A    between atoms: N_21  and  C_31 
REMARK   10  A    between atoms: C_30  and  C_31 
ROOT
HETATM    1  C           1     -20.908  -7.575  -5.717  0.00  0.00     0.249 C 
HETATM    2  N           1     -21.434  -8.685  -5.111  0.00  0.00    -0.345 N 
HETATM    3  H           1     -22.427  -8.737  -4.925  0.00  0.00     0.163 HD
HETATM    4  O           1     -19.722  -7.513  -5.938  0.00  0.00    -0.271 OA
ENDROOT
BRANCH   1   5
HETATM    5  C           1     -21.811  -6.431  -6.110  0.00  0.00     0.278 C 
BRANCH   5   6
HETATM    6  C           1     -20.976  -5.176  -6.324  0.00  0.00     0.083 C 
BRANCH   6   7
HETATM    7  C           1     -20.920  -4.856  -7.785  0.00  0.00    -0.028 A 
HETATM    8  C           1     -19.815  -4.970  -8.598  0.00  0.00     0.096 A 
HETATM    9  N           1     -20.183  -4.581  -9.860  0.00  0.00    -0.365 N 
HETATM   10  C           1     -21.510  -4.216  -9.878  0.00  0.00     0.042 A 
HETATM   11  H           1     -19.543  -4.563 -10.693  0.00  0.00     0.165 HD
HETATM   12  C           1     -21.998  -4.380  -8.582  0.00  0.00    -0.002 A 
HETATM   13  C           1     -22.307  -3.758 -10.934  0.00  0.00     0.030 A 
HETATM   14  C           1     -23.347  -4.074  -8.322  0.00  0.00     0.014 A 
HETATM   15  C           1     -24.159  -3.615  -9.366  0.00  0.00     0.001 A 
HETATM   16  C           1     -23.644  -3.459 -10.651  0.00  0.00     0.002 A 
ENDBRANCH   6   7
ENDBRANCH   5   6
BRANCH   5  17
HETATM   17  N           1     -22.809  -6.186  -5.018  0.00  0.00    -0.066 N 
HETATM   18  H           1     -22.307  -6.012  -4.119  0.00  0.00     0.275 HD
HETATM   19  H           1     -23.392  -5.353  -5.260  0.00  0.00     0.275 HD
HETATM   20  H           1     -23.426  -7.025  -4.916  0.00  0.00     0.275 HD
ENDBRANCH   5  17
ENDBRANCH   1   5
BRANCH   2  21
HETATM   21  C           1     -20.567  -9.784  -4.734  0.00  0.00     0.185 C 
BRANCH  21  22
HETATM   22  C           1     -20.900 -10.231  -3.316  0.00  0.00     0.038 C 
BRANCH  22  23
HETATM   23  C           1     -19.912  -9.606  -2.341  0.00  0.00     0.023 C 
BRANCH  23  24
HETATM   24  C           1     -20.672  -8.816  -1.283  0.00  0.00     0.138 C 
BRANCH  24  25
HETATM   25  N           1     -21.008  -7.486  -1.811  0.00  0.00    -0.227 N 
HETATM   26  C           1     -22.000  -6.852  -1.346  0.00  0.00     0.665 C 
HETATM   27  N           1     -22.297  -5.676  -1.812  0.00  0.00    -0.235 N 
HETATM   28  N           1     -22.703  -7.364  -0.425  0.00  0.00    -0.235 N 
HETATM   29  H           1     -21.716  -5.253  -2.572  0.00  0.00     0.174 HD
HETATM   30  H           1     -23.115  -5.152  -1.429  0.00  0.00     0.174 HD
HETATM   31  H           1     -22.464  -8.314  -0.048  0.00  0.00     0.174 HD
HETATM   32  H           1     -23.526  -6.838  -0.040  0.00  0.00     0.174 HD
HETATM   33  H           1     -20.425  -7.062  -2.574  0.00  0.00     0.177 HD
ENDBRANCH  24  25
ENDBRANCH  23  24
ENDBRANCH  22  23
ENDBRANCH  21  22
BRANCH  21  34
HETATM   34  C           1     -20.775 -10.937  -5.686  0.00  0.00     0.196 C 
HETATM   35  O           1     -20.005 -11.091  -6.658  0.00  0.00    -0.646 OA
HETATM   36  O           1     -21.718 -11.737  -5.502  0.00  0.00    -0.646 OA
ENDBRANCH  21  34
ENDBRANCH   2  21
TORSDOF 10
ENDMDL
