MODEL 1
REMARK VINA RESULT:      -6.2      0.000      0.000
REMARK  12 active torsions:
REMARK  status: ('A' for Active; 'I' for Inactive)
REMARK    1  A    between atoms: C_1  and  C_20 
REMARK    2  A    between atoms: C_1  and  C_2 
REMARK    3  A    between atoms: C_2  and  C_3 
REMARK    4  A    between atoms: C_3  and  C_4 
REMARK    5  A    between atoms: C_3  and  N_7 
REMARK       I    between atoms: N_7  and  C_8 
REMARK    6  A    between atoms: C_8  and  C_9 
REMARK    7  A    between atoms: C_9  and  C_10 
REMARK    8  A    between atoms: C_9  and  N_23 
REMARK    9  A    between atoms: C_10  and  O_11 
REMARK   10  A    between atoms: O_11  and  P_12 
REMARK   11  A    between atoms: P_12  and  O_13 
REMARK   12  A    between atoms: N_19  and  C_20 
ROOT
HETATM    1  N           1     -22.132  -5.410  -7.707  0.00  0.00    -0.345 N 
HETATM    2  C           1     -22.555  -4.263  -8.320  0.00  0.00     0.251 C 
HETATM    3  H           1     -22.459  -6.310  -8.035  0.00  0.00     0.163 HD
HETATM    4  O           1     -22.164  -3.189  -7.929  0.00  0.00    -0.271 OA
ENDROOT
BRANCH   2   5
HETATM    5  C           1     -23.509  -4.339  -9.487  0.00  0.00     0.298 C 
BRANCH   5   6
HETATM    6  C           1     -22.719  -4.388 -10.788  0.00  0.00     0.224 C 
BRANCH   6   7
HETATM    7  O           1     -23.592  -4.630 -11.857  0.00  0.00    -0.287 OA
BRANCH   7   8
HETATM    8  P           1     -23.946  -3.355 -12.785  0.00  0.00     0.406 P 
HETATM    9  O           1     -23.050  -2.229 -12.437  0.00  0.00    -0.624 OA
HETATM   10  O           1     -25.353  -2.956 -12.559  0.00  0.00    -0.624 OA
BRANCH   8  11
HETATM   11  O           1     -23.740  -3.746 -14.338  0.00  0.00    -0.300 OA
HETATM   12  H           1     -24.509  -3.420 -14.775  0.00  0.00     0.223 HD
ENDBRANCH   8  11
ENDBRANCH   7   8
ENDBRANCH   6   7
ENDBRANCH   5   6
BRANCH   5  13
HETATM   13  N           1     -24.395  -3.128  -9.488  0.00  0.00    -0.064 N 
HETATM   14  H           1     -25.055  -3.179 -10.295  0.00  0.00     0.275 HD
HETATM   15  H           1     -24.939  -3.095  -8.595  0.00  0.00     0.275 HD
HETATM   16  H           1     -23.808  -2.267  -9.570  0.00  0.00     0.275 HD
ENDBRANCH   5  13
ENDBRANCH   2   5
BRANCH   1  17
HETATM   17  C           1     -21.215  -5.338  -6.586  0.00  0.00     0.185 C 
BRANCH  17  18
HETATM   18  C           1     -21.628  -6.349  -5.526  0.00  0.00     0.038 C 
BRANCH  18  19
HETATM   19  C           1     -21.139  -5.883  -4.160  0.00  0.00     0.030 C 
BRANCH  19  20
HETATM   20  C           1     -21.813  -6.708  -3.071  0.00  0.00     0.230 C 
BRANCH  20  21
HETATM   21  N           1     -22.291  -5.800  -1.977  0.00  0.00    -0.079 N 
HETATM   22  H           1     -21.657  -4.972  -1.910  0.00  0.00     0.274 HD
HETATM   23  H           1     -23.262  -5.479  -2.191  0.00  0.00     0.274 HD
HETATM   24  H           1     -22.286  -6.317  -1.069  0.00  0.00     0.274 HD
ENDBRANCH  20  21
ENDBRANCH  19  20
ENDBRANCH  18  19
ENDBRANCH  17  18
BRANCH  17  25
HETATM   25  C           1     -19.816  -5.648  -7.061  0.00  0.00     0.196 C 
HETATM   26  O           1     -19.415  -6.831  -7.091  0.00  0.00    -0.646 OA
HETATM   27  O           1     -19.060  -4.721  -7.424  0.00  0.00    -0.646 OA
ENDBRANCH  17  25
ENDBRANCH   1  17
TORSDOF 12
ENDMDL
MODEL 2
REMARK VINA RESULT:      -6.1      3.546      7.647
REMARK  12 active torsions:
REMARK  status: ('A' for Active; 'I' for Inactive)
REMARK    1  A    between atoms: C_1  and  C_20 
REMARK    2  A    between atoms: C_1  and  C_2 
REMARK    3  A    between atoms: C_2  and  C_3 
REMARK    4  A    between atoms: C_3  and  C_4 
REMARK    5  A    between atoms: C_3  and  N_7 
REMARK       I    between atoms: N_7  and  C_8 
REMARK    6  A    between atoms: C_8  and  C_9 
REMARK    7  A    between atoms: C_9  and  C_10 
REMARK    8  A    between atoms: C_9  and  N_23 
REMARK    9  A    between atoms: C_10  and  O_11 
REMARK   10  A    between atoms: O_11  and  P_12 
REMARK   11  A    between atoms: P_12  and  O_13 
REMARK   12  A    between atoms: N_19  and  C_20 
ROOT
HETATM    1  N           1     -22.189  -4.812  -9.000  0.00  0.00    -0.345 N 
HETATM    2  C           1     -21.547  -4.507  -7.831  0.00  0.00     0.251 C 
HETATM    3  H           1     -22.270  -5.776  -9.296  0.00  0.00     0.163 HD
HETATM    4  O           1     -21.450  -3.356  -7.477  0.00  0.00    -0.271 OA
ENDROOT
BRANCH   2   5
HETATM    5  C           1     -20.961  -5.609  -6.983  0.00  0.00     0.298 C 
BRANCH   5   6
HETATM    6  C           1     -20.679  -5.077  -5.583  0.00  0.00     0.224 C 
BRANCH   6   7
HETATM    7  O           1     -20.496  -6.153  -4.702  0.00  0.00    -0.287 OA
BRANCH   7   8
HETATM    8  P           1     -21.807  -6.633  -3.889  0.00  0.00     0.406 P 
HETATM    9  O           1     -21.710  -8.083  -3.610  0.00  0.00    -0.624 OA
HETATM   10  O           1     -23.016  -6.364  -4.699  0.00  0.00    -0.624 OA
BRANCH   8  11
HETATM   11  O           1     -21.903  -5.822  -2.495  0.00  0.00    -0.300 OA
HETATM   12  H           1     -22.793  -5.516  -2.452  0.00  0.00     0.223 HD
ENDBRANCH   8  11
ENDBRANCH   7   8
ENDBRANCH   6   7
ENDBRANCH   5   6
BRANCH   5  13
HETATM   13  N           1     -19.681  -6.088  -7.601  0.00  0.00    -0.064 N 
HETATM   14  H           1     -19.895  -6.779  -8.354  0.00  0.00     0.275 HD
HETATM   15  H           1     -19.167  -5.275  -8.010  0.00  0.00     0.275 HD
HETATM   16  H           1     -19.089  -6.542  -6.869  0.00  0.00     0.275 HD
ENDBRANCH   5  13
ENDBRANCH   2   5
BRANCH   1  17
HETATM   17  C           1     -22.753  -3.753  -9.815  0.00  0.00     0.185 C 
BRANCH  17  18
HETATM   18  C           1     -22.285  -3.918 -11.255  0.00  0.00     0.038 C 
BRANCH  18  19
HETATM   19  C           1     -22.613  -2.657 -12.044  0.00  0.00     0.030 C 
BRANCH  19  20
HETATM   20  C           1     -23.429  -3.027 -13.276  0.00  0.00     0.230 C 
BRANCH  20  21
HETATM   21  N           1     -22.548  -2.993 -14.489  0.00  0.00    -0.079 N 
HETATM   22  H           1     -22.325  -2.001 -14.731  0.00  0.00     0.274 HD
HETATM   23  H           1     -21.662  -3.510 -14.290  0.00  0.00     0.274 HD
HETATM   24  H           1     -23.043  -3.444 -15.291  0.00  0.00     0.274 HD
ENDBRANCH  20  21
ENDBRANCH  19  20
ENDBRANCH  18  19
ENDBRANCH  17  18
BRANCH  17  25
HETATM   25  C           1     -24.260  -3.827  -9.763  0.00  0.00     0.196 C 
HETATM   26  O           1     -24.837  -4.924  -9.919  0.00  0.00    -0.646 OA
HETATM   27  O           1     -24.928  -2.790  -9.562  0.00  0.00    -0.646 OA
ENDBRANCH  17  25
ENDBRANCH   1  17
TORSDOF 12
ENDMDL
MODEL 3
REMARK VINA RESULT:      -6.1     10.920     13.026
REMARK  12 active torsions:
REMARK  status: ('A' for Active; 'I' for Inactive)
REMARK    1  A    between atoms: C_1  and  C_20 
REMARK    2  A    between atoms: C_1  and  C_2 
REMARK    3  A    between atoms: C_2  and  C_3 
REMARK    4  A    between atoms: C_3  and  C_4 
REMARK    5  A    between atoms: C_3  and  N_7 
REMARK       I    between atoms: N_7  and  C_8 
REMARK    6  A    between atoms: C_8  and  C_9 
REMARK    7  A    between atoms: C_9  and  C_10 
REMARK    8  A    between atoms: C_9  and  N_23 
REMARK    9  A    between atoms: C_10  and  O_11 
REMARK   10  A    between atoms: O_11  and  P_12 
REMARK   11  A    between atoms: P_12  and  O_13 
REMARK   12  A    between atoms: N_19  and  C_20 
ROOT
HETATM    1  N           1     -28.280  -6.725 -18.326  0.00  0.00    -0.345 N 
HETATM    2  C           1     -27.252  -6.386 -17.490  0.00  0.00     0.251 C 
HETATM    3  H           1     -28.103  -6.880 -19.310  0.00  0.00     0.163 HD
HETATM    4  O           1     -27.464  -6.201 -16.315  0.00  0.00    -0.271 OA
ENDROOT
BRANCH   2   5
HETATM    5  C           1     -25.852  -6.243 -18.035  0.00  0.00     0.298 C 
BRANCH   5   6
HETATM    6  C           1     -25.860  -6.518 -19.533  0.00  0.00     0.224 C 
BRANCH   6   7
HETATM    7  O           1     -24.586  -6.939 -19.939  0.00  0.00    -0.287 OA
BRANCH   7   8
HETATM    8  P           1     -24.534  -7.873 -21.256  0.00  0.00     0.406 P 
HETATM    9  O           1     -24.196  -7.045 -22.434  0.00  0.00    -0.624 OA
HETATM   10  O           1     -25.854  -8.511 -21.460  0.00  0.00    -0.624 OA
BRANCH   8  11
HETATM   11  O           1     -23.409  -9.016 -21.061  0.00  0.00    -0.300 OA
HETATM   12  H           1     -22.964  -8.786 -20.263  0.00  0.00     0.223 HD
ENDBRANCH   8  11
ENDBRANCH   7   8
ENDBRANCH   6   7
ENDBRANCH   5   6
BRANCH   5  13
HETATM   13  N           1     -24.947  -7.225 -17.353  0.00  0.00    -0.064 N 
HETATM   14  H           1     -25.451  -7.666 -16.551  0.00  0.00     0.275 HD
HETATM   15  H           1     -24.661  -7.966 -18.034  0.00  0.00     0.275 HD
HETATM   16  H           1     -24.097  -6.730 -17.000  0.00  0.00     0.275 HD
ENDBRANCH   5  13
ENDBRANCH   2   5
BRANCH   1  17
HETATM   17  C           1     -29.626  -6.862 -17.802  0.00  0.00     0.185 C 
BRANCH  17  18
HETATM   18  C           1     -30.336  -5.518 -17.870  0.00  0.00     0.038 C 
BRANCH  18  19
HETATM   19  C           1     -31.048  -5.251 -16.550  0.00  0.00     0.030 C 
BRANCH  19  20
HETATM   20  C           1     -32.287  -4.402 -16.805  0.00  0.00     0.230 C 
BRANCH  20  21
HETATM   21  N           1     -31.903  -3.172 -17.573  0.00  0.00    -0.079 N 
HETATM   22  H           1     -31.426  -2.497 -16.934  0.00  0.00     0.274 HD
HETATM   23  H           1     -31.253  -3.435 -18.348  0.00  0.00     0.274 HD
HETATM   24  H           1     -32.761  -2.728 -17.971  0.00  0.00     0.274 HD
ENDBRANCH  20  21
ENDBRANCH  19  20
ENDBRANCH  18  19
ENDBRANCH  17  18
BRANCH  17  25
HETATM   25  C           1     -30.384  -7.876 -18.625  0.00  0.00     0.196 C 
HETATM   26  O           1     -29.772  -8.813 -19.181  0.00  0.00    -0.646 OA
HETATM   27  O           1     -31.624  -7.776 -18.749  0.00  0.00    -0.646 OA
ENDBRANCH  17  25
ENDBRANCH   1  17
TORSDOF 12
ENDMDL
MODEL 4
REMARK VINA RESULT:      -5.9      3.922      7.383
REMARK  12 active torsions:
REMARK  status: ('A' for Active; 'I' for Inactive)
REMARK    1  A    between atoms: C_1  and  C_20 
REMARK    2  A    between atoms: C_1  and  C_2 
REMARK    3  A    between atoms: C_2  and  C_3 
REMARK    4  A    between atoms: C_3  and  C_4 
REMARK    5  A    between atoms: C_3  and  N_7 
REMARK       I    between atoms: N_7  and  C_8 
REMARK    6  A    between atoms: C_8  and  C_9 
REMARK    7  A    between atoms: C_9  and  C_10 
REMARK    8  A    between atoms: C_9  and  N_23 
REMARK    9  A    between atoms: C_10  and  O_11 
REMARK   10  A    between atoms: O_11  and  P_12 
REMARK   11  A    between atoms: P_12  and  O_13 
REMARK   12  A    between atoms: N_19  and  C_20 
ROOT
HETATM    1  N           1     -22.607  -4.061 -10.787  0.00  0.00    -0.345 N 
HETATM    2  C           1     -21.844  -4.093  -9.651  0.00  0.00     0.251 C 
HETATM    3  H           1     -22.387  -4.673 -11.562  0.00  0.00     0.163 HD
HETATM    4  O           1     -22.106  -3.363  -8.725  0.00  0.00    -0.271 OA
ENDROOT
BRANCH   2   5
HETATM    5  C           1     -20.675  -5.043  -9.555  0.00  0.00     0.298 C 
BRANCH   5   6
HETATM    6  C           1     -20.020  -4.906  -8.187  0.00  0.00     0.224 C 
BRANCH   6   7
HETATM    7  O           1     -20.336  -6.023  -7.402  0.00  0.00    -0.287 OA
BRANCH   7   8
HETATM    8  P           1     -21.090  -5.718  -6.006  0.00  0.00     0.406 P 
HETATM    9  O           1     -20.296  -4.747  -5.220  0.00  0.00    -0.624 OA
HETATM   10  O           1     -21.235  -6.975  -5.239  0.00  0.00    -0.624 OA
BRANCH   8  11
HETATM   11  O           1     -22.551  -5.099  -6.307  0.00  0.00    -0.300 OA
HETATM   12  H           1     -22.460  -4.648  -7.129  0.00  0.00     0.223 HD
ENDBRANCH   8  11
ENDBRANCH   7   8
ENDBRANCH   6   7
ENDBRANCH   5   6
BRANCH   5  13
HETATM   13  N           1     -19.674  -4.714 -10.622  0.00  0.00    -0.064 N 
HETATM   14  H           1     -19.490  -5.562 -11.202  0.00  0.00     0.275 HD
HETATM   15  H           1     -20.053  -3.952 -11.231  0.00  0.00     0.275 HD
HETATM   16  H           1     -18.784  -4.394 -10.179  0.00  0.00     0.275 HD
ENDBRANCH   5  13
ENDBRANCH   2   5
BRANCH   1  17
HETATM   17  C           1     -23.730  -3.148 -10.879  0.00  0.00     0.185 C 
BRANCH  17  18
HETATM   18  C           1     -24.130  -2.983 -12.339  0.00  0.00     0.038 C 
BRANCH  18  19
HETATM   19  C           1     -22.880  -2.938 -13.208  0.00  0.00     0.030 C 
BRANCH  19  20
HETATM   20  C           1     -23.210  -2.276 -14.540  0.00  0.00     0.230 C 
BRANCH  20  21
HETATM   21  N           1     -24.079  -1.077 -14.301  0.00  0.00    -0.079 N 
HETATM   22  H           1     -25.055  -1.286 -14.613  0.00  0.00     0.274 HD
HETATM   23  H           1     -24.082  -0.847 -13.282  0.00  0.00     0.274 HD
HETATM   24  H           1     -23.707  -0.265 -14.842  0.00  0.00     0.274 HD
ENDBRANCH  20  21
ENDBRANCH  19  20
ENDBRANCH  18  19
ENDBRANCH  17  18
BRANCH  17  25
HETATM   25  C           1     -24.895  -3.704 -10.097  0.00  0.00     0.196 C 
HETATM   26  O           1     -25.822  -2.949  -9.735  0.00  0.00    -0.646 OA
HETATM   27  O           1     -24.931  -4.921  -9.812  0.00  0.00    -0.646 OA
ENDBRANCH  17  25
ENDBRANCH   1  17
TORSDOF 12
ENDMDL
MODEL 5
REMARK VINA RESULT:      -5.9     10.073     13.058
REMARK  12 active torsions:
REMARK  status: ('A' for Active; 'I' for Inactive)
REMARK    1  A    between atoms: C_1  and  C_20 
REMARK    2  A    between atoms: C_1  and  C_2 
REMARK    3  A    between atoms: C_2  and  C_3 
REMARK    4  A    between atoms: C_3  and  C_4 
REMARK    5  A    between atoms: C_3  and  N_7 
REMARK       I    between atoms: N_7  and  C_8 
REMARK    6  A    between atoms: C_8  and  C_9 
REMARK    7  A    between atoms: C_9  and  C_10 
REMARK    8  A    between atoms: C_9  and  N_23 
REMARK    9  A    between atoms: C_10  and  O_11 
REMARK   10  A    between atoms: O_11  and  P_12 
REMARK   11  A    between atoms: P_12  and  O_13 
REMARK   12  A    between atoms: N_19  and  C_20 
ROOT
HETATM    1  N           1     -27.766  -7.252 -18.947  0.00  0.00    -0.345 N 
HETATM    2  C           1     -28.558  -6.244 -18.468  0.00  0.00     0.251 C 
HETATM    3  H           1     -27.550  -8.049 -18.362  0.00  0.00     0.163 HD
HETATM    4  O           1     -28.816  -5.293 -19.167  0.00  0.00    -0.271 OA
ENDROOT
BRANCH   2   5
HETATM    5  C           1     -29.111  -6.322 -17.066  0.00  0.00     0.298 C 
BRANCH   5   6
HETATM    6  C           1     -27.962  -6.429 -16.072  0.00  0.00     0.224 C 
BRANCH   6   7
HETATM    7  O           1     -26.812  -5.844 -16.622  0.00  0.00    -0.287 OA
BRANCH   7   8
HETATM    8  P           1     -25.401  -6.444 -16.113  0.00  0.00     0.406 P 
HETATM    9  O           1     -24.629  -6.939 -17.275  0.00  0.00    -0.624 OA
HETATM   10  O           1     -25.649  -7.558 -15.172  0.00  0.00    -0.624 OA
BRANCH   8  11
HETATM   11  O           1     -24.561  -5.284 -15.365  0.00  0.00    -0.300 OA
HETATM   12  H           1     -25.180  -4.867 -14.791  0.00  0.00     0.223 HD
ENDBRANCH   8  11
ENDBRANCH   7   8
ENDBRANCH   6   7
ENDBRANCH   5   6
BRANCH   5  13
HETATM   13  N           1     -29.991  -7.530 -16.942  0.00  0.00    -0.064 N 
HETATM   14  H           1     -30.399  -7.762 -17.875  0.00  0.00     0.275 HD
HETATM   15  H           1     -29.424  -8.339 -16.599  0.00  0.00     0.275 HD
HETATM   16  H           1     -30.761  -7.333 -16.264  0.00  0.00     0.275 HD
ENDBRANCH   5  13
ENDBRANCH   2   5
BRANCH   1  17
HETATM   17  C           1     -27.235  -7.178 -20.295  0.00  0.00     0.185 C 
BRANCH  17  18
HETATM   18  C           1     -25.723  -7.002 -20.235  0.00  0.00     0.038 C 
BRANCH  18  19
HETATM   19  C           1     -25.249  -6.255 -21.475  0.00  0.00     0.030 C 
BRANCH  19  20
HETATM   20  C           1     -24.170  -7.071 -22.177  0.00  0.00     0.230 C 
BRANCH  20  21
HETATM   21  N           1     -23.906  -8.327 -21.400  0.00  0.00    -0.079 N 
HETATM   22  H           1     -24.638  -8.441 -20.663  0.00  0.00     0.274 HD
HETATM   23  H           1     -23.933  -9.148 -22.046  0.00  0.00     0.274 HD
HETATM   24  H           1     -22.965  -8.266 -20.950  0.00  0.00     0.274 HD
ENDBRANCH  20  21
ENDBRANCH  19  20
ENDBRANCH  18  19
ENDBRANCH  17  18
BRANCH  17  25
HETATM   25  C           1     -27.565  -8.450 -21.036  0.00  0.00     0.196 C 
HETATM   26  O           1     -26.717  -8.972 -21.791  0.00  0.00    -0.646 OA
HETATM   27  O           1     -28.688  -8.981 -20.894  0.00  0.00    -0.646 OA
ENDBRANCH  17  25
ENDBRANCH   1  17
TORSDOF 12
ENDMDL
MODEL 6
REMARK VINA RESULT:      -5.8      2.020      3.023
REMARK  12 active torsions:
REMARK  status: ('A' for Active; 'I' for Inactive)
REMARK    1  A    between atoms: C_1  and  C_20 
REMARK    2  A    between atoms: C_1  and  C_2 
REMARK    3  A    between atoms: C_2  and  C_3 
REMARK    4  A    between atoms: C_3  and  C_4 
REMARK    5  A    between atoms: C_3  and  N_7 
REMARK       I    between atoms: N_7  and  C_8 
REMARK    6  A    between atoms: C_8  and  C_9 
REMARK    7  A    between atoms: C_9  and  C_10 
REMARK    8  A    between atoms: C_9  and  N_23 
REMARK    9  A    between atoms: C_10  and  O_11 
REMARK   10  A    between atoms: O_11  and  P_12 
REMARK   11  A    between atoms: P_12  and  O_13 
REMARK   12  A    between atoms: N_19  and  C_20 
ROOT
HETATM    1  N           1     -21.373  -5.866  -6.168  0.00  0.00    -0.345 N 
HETATM    2  C           1     -20.592  -4.882  -6.711  0.00  0.00     0.251 C 
HETATM    3  H           1     -22.234  -6.140  -6.625  0.00  0.00     0.163 HD
HETATM    4  O           1     -19.565  -4.556  -6.165  0.00  0.00    -0.271 OA
ENDROOT
BRANCH   2   5
HETATM    5  C           1     -21.015  -4.206  -7.992  0.00  0.00     0.298 C 
BRANCH   5   6
HETATM    6  C           1     -22.472  -4.538  -8.286  0.00  0.00     0.224 C 
BRANCH   6   7
HETATM    7  O           1     -23.098  -3.425  -8.865  0.00  0.00    -0.287 OA
BRANCH   7   8
HETATM    8  P           1     -24.090  -3.735 -10.102  0.00  0.00     0.406 P 
HETATM    9  O           1     -24.047  -5.180 -10.418  0.00  0.00    -0.624 OA
HETATM   10  O           1     -23.662  -2.956 -11.285  0.00  0.00    -0.624 OA
BRANCH   8  11
HETATM   11  O           1     -25.598  -3.318  -9.700  0.00  0.00    -0.300 OA
HETATM   12  H           1     -25.749  -3.727  -8.864  0.00  0.00     0.223 HD
ENDBRANCH   8  11
ENDBRANCH   7   8
ENDBRANCH   6   7
ENDBRANCH   5   6
BRANCH   5  13
HETATM   13  N           1     -20.155  -4.692  -9.121  0.00  0.00    -0.064 N 
HETATM   14  H           1     -19.185  -4.859  -8.774  0.00  0.00     0.275 HD
HETATM   15  H           1     -20.549  -5.586  -9.497  0.00  0.00     0.275 HD
HETATM   16  H           1     -20.136  -3.974  -9.879  0.00  0.00     0.275 HD
ENDBRANCH   5  13
ENDBRANCH   2   5
BRANCH   1  17
HETATM   17  C           1     -20.968  -6.517  -4.937  0.00  0.00     0.185 C 
BRANCH  17  18
HETATM   18  C           1     -22.151  -6.575  -3.980  0.00  0.00     0.038 C 
BRANCH  18  19
HETATM   19  C           1     -21.694  -6.184  -2.581  0.00  0.00     0.030 C 
BRANCH  19  20
HETATM   20  C           1     -21.667  -7.420  -1.691  0.00  0.00     0.230 C 
BRANCH  20  21
HETATM   21  N           1     -22.558  -7.203  -0.505  0.00  0.00    -0.079 N 
HETATM   22  H           1     -23.389  -6.638  -0.791  0.00  0.00     0.274 HD
HETATM   23  H           1     -22.877  -8.128  -0.135  0.00  0.00     0.274 HD
HETATM   24  H           1     -22.030  -6.694   0.239  0.00  0.00     0.274 HD
ENDBRANCH  20  21
ENDBRANCH  19  20
ENDBRANCH  18  19
ENDBRANCH  17  18
BRANCH  17  25
HETATM   25  C           1     -20.496  -7.918  -5.241  0.00  0.00     0.196 C 
HETATM   26  O           1     -19.433  -8.341  -4.739  0.00  0.00    -0.646 OA
HETATM   27  O           1     -21.169  -8.653  -5.995  0.00  0.00    -0.646 OA
ENDBRANCH  17  25
ENDBRANCH   1  17
TORSDOF 12
ENDMDL
MODEL 7
REMARK VINA RESULT:      -5.5      9.706     11.517
REMARK  12 active torsions:
REMARK  status: ('A' for Active; 'I' for Inactive)
REMARK    1  A    between atoms: C_1  and  C_20 
REMARK    2  A    between atoms: C_1  and  C_2 
REMARK    3  A    between atoms: C_2  and  C_3 
REMARK    4  A    between atoms: C_3  and  C_4 
REMARK    5  A    between atoms: C_3  and  N_7 
REMARK       I    between atoms: N_7  and  C_8 
REMARK    6  A    between atoms: C_8  and  C_9 
REMARK    7  A    between atoms: C_9  and  C_10 
REMARK    8  A    between atoms: C_9  and  N_23 
REMARK    9  A    between atoms: C_10  and  O_11 
REMARK   10  A    between atoms: O_11  and  P_12 
REMARK   11  A    between atoms: P_12  and  O_13 
REMARK   12  A    between atoms: N_19  and  C_20 
ROOT
HETATM    1  N           1     -26.720  -6.996 -17.227  0.00  0.00    -0.345 N 
HETATM    2  C           1     -25.559  -6.492 -16.706  0.00  0.00     0.251 C 
HETATM    3  H           1     -26.686  -7.748 -17.903  0.00  0.00     0.163 HD
HETATM    4  O           1     -25.600  -5.594 -15.898  0.00  0.00    -0.271 OA
ENDROOT
BRANCH   2   5
HETATM    5  C           1     -24.229  -7.058 -17.139  0.00  0.00     0.298 C 
BRANCH   5   6
HETATM    6  C           1     -24.301  -7.455 -18.608  0.00  0.00     0.224 C 
BRANCH   6   7
HETATM    7  O           1     -24.626  -6.332 -19.381  0.00  0.00    -0.287 OA
BRANCH   7   8
HETATM    8  P           1     -25.500  -6.617 -20.710  0.00  0.00     0.406 P 
HETATM    9  O           1     -26.932  -6.703 -20.349  0.00  0.00    -0.624 OA
HETATM   10  O           1     -25.066  -7.893 -21.322  0.00  0.00    -0.624 OA
BRANCH   8  11
HETATM   11  O           1     -25.282  -5.414 -21.766  0.00  0.00    -0.300 OA
HETATM   12  H           1     -24.648  -4.846 -21.360  0.00  0.00     0.223 HD
ENDBRANCH   8  11
ENDBRANCH   7   8
ENDBRANCH   6   7
ENDBRANCH   5   6
BRANCH   5  13
HETATM   13  N           1     -23.907  -8.265 -16.311  0.00  0.00    -0.064 N 
HETATM   14  H           1     -22.873  -8.417 -16.301  0.00  0.00     0.275 HD
HETATM   15  H           1     -24.245  -8.116 -15.332  0.00  0.00     0.275 HD
HETATM   16  H           1     -24.378  -9.104 -16.718  0.00  0.00     0.275 HD
ENDBRANCH   5  13
ENDBRANCH   2   5
BRANCH   1  17
HETATM   17  C           1     -27.998  -6.452 -16.810  0.00  0.00     0.185 C 
BRANCH  17  18
HETATM   18  C           1     -29.103  -7.022 -17.690  0.00  0.00     0.038 C 
BRANCH  18  19
HETATM   19  C           1     -30.081  -5.915 -18.059  0.00  0.00     0.030 C 
BRANCH  19  20
HETATM   20  C           1     -31.359  -6.074 -17.244  0.00  0.00     0.230 C 
BRANCH  20  21
HETATM   21  N           1     -31.400  -5.031 -16.168  0.00  0.00    -0.079 N 
HETATM   22  H           1     -31.454  -5.495 -15.233  0.00  0.00     0.274 HD
HETATM   23  H           1     -30.534  -4.447 -16.216  0.00  0.00     0.274 HD
HETATM   24  H           1     -32.239  -4.423 -16.304  0.00  0.00     0.274 HD
ENDBRANCH  20  21
ENDBRANCH  19  20
ENDBRANCH  18  19
ENDBRANCH  17  18
BRANCH  17  25
HETATM   25  C           1     -28.257  -6.825 -15.371  0.00  0.00     0.196 C 
HETATM   26  O           1     -27.791  -7.887 -14.907  0.00  0.00    -0.646 OA
HETATM   27  O           1     -28.939  -6.070 -14.644  0.00  0.00    -0.646 OA
ENDBRANCH  17  25
ENDBRANCH   1  17
TORSDOF 12
ENDMDL
MODEL 8
REMARK VINA RESULT:      -5.5      2.921      3.892
REMARK  12 active torsions:
REMARK  status: ('A' for Active; 'I' for Inactive)
REMARK    1  A    between atoms: C_1  and  C_20 
REMARK    2  A    between atoms: C_1  and  C_2 
REMARK    3  A    between atoms: C_2  and  C_3 
REMARK    4  A    between atoms: C_3  and  C_4 
REMARK    5  A    between atoms: C_3  and  N_7 
REMARK       I    between atoms: N_7  and  C_8 
REMARK    6  A    between atoms: C_8  and  C_9 
REMARK    7  A    between atoms: C_9  and  C_10 
REMARK    8  A    between atoms: C_9  and  N_23 
REMARK    9  A    between atoms: C_10  and  O_11 
REMARK   10  A    between atoms: O_11  and  P_12 
REMARK   11  A    between atoms: P_12  and  O_13 
REMARK   12  A    between atoms: N_19  and  C_20 
ROOT
HETATM    1  N           1     -21.185  -6.252  -5.366  0.00  0.00    -0.345 N 
HETATM    2  C           1     -21.966  -5.405  -6.104  0.00  0.00     0.251 C 
HETATM    3  H           1     -20.178  -6.216  -5.453  0.00  0.00     0.163 HD
HETATM    4  O           1     -23.169  -5.448  -6.001  0.00  0.00    -0.271 OA
ENDROOT
BRANCH   2   5
HETATM    5  C           1     -21.325  -4.416  -7.047  0.00  0.00     0.298 C 
BRANCH   5   6
HETATM    6  C           1     -21.918  -4.583  -8.439  0.00  0.00     0.224 C 
BRANCH   6   7
HETATM    7  O           1     -22.764  -3.501  -8.720  0.00  0.00    -0.287 OA
BRANCH   7   8
HETATM    8  P           1     -23.811  -3.716  -9.932  0.00  0.00     0.406 P 
HETATM    9  O           1     -23.928  -5.161 -10.231  0.00  0.00    -0.624 OA
HETATM   10  O           1     -23.330  -2.999 -11.133  0.00  0.00    -0.624 OA
BRANCH   8  11
HETATM   11  O           1     -25.257  -3.138  -9.503  0.00  0.00    -0.300 OA
HETATM   12  H           1     -25.836  -3.384 -10.205  0.00  0.00     0.223 HD
ENDBRANCH   8  11
ENDBRANCH   7   8
ENDBRANCH   6   7
ENDBRANCH   5   6
BRANCH   5  13
HETATM   13  N           1     -19.847  -4.665  -7.102  0.00  0.00    -0.064 N 
HETATM   14  H           1     -19.605  -5.140  -8.000  0.00  0.00     0.275 HD
HETATM   15  H           1     -19.338  -3.753  -7.043  0.00  0.00     0.275 HD
HETATM   16  H           1     -19.565  -5.273  -6.300  0.00  0.00     0.275 HD
ENDBRANCH   5  13
ENDBRANCH   2   5
BRANCH   1  17
HETATM   17  C           1     -21.802  -7.203  -4.461  0.00  0.00     0.185 C 
BRANCH  17  18
HETATM   18  C           1     -21.090  -8.544  -4.572  0.00  0.00     0.038 C 
BRANCH  18  19
HETATM   19  C           1     -19.751  -8.354  -5.271  0.00  0.00     0.030 C 
BRANCH  19  20
HETATM   20  C           1     -18.694  -9.210  -4.585  0.00  0.00     0.230 C 
BRANCH  20  21
HETATM   21  N           1     -18.948  -9.231  -3.107  0.00  0.00    -0.079 N 
HETATM   22  H           1     -18.687  -8.308  -2.694  0.00  0.00     0.274 HD
HETATM   23  H           1     -19.962  -9.417  -2.931  0.00  0.00     0.274 HD
HETATM   24  H           1     -18.374  -9.985  -2.666  0.00  0.00     0.274 HD
ENDBRANCH  20  21
ENDBRANCH  19  20
ENDBRANCH  18  19
ENDBRANCH  17  18
BRANCH  17  25
HETATM   25  C           1     -21.693  -6.690  -3.045  0.00  0.00     0.196 C 
HETATM   26  O           1     -22.535  -5.876  -2.610  0.00  0.00    -0.646 OA
HETATM   27  O           1     -20.761  -7.081  -2.310  0.00  0.00    -0.646 OA
ENDBRANCH  17  25
ENDBRANCH   1  17
TORSDOF 12
ENDMDL
MODEL 9
REMARK VINA RESULT:      -5.3      4.961      8.623
REMARK  12 active torsions:
REMARK  status: ('A' for Active; 'I' for Inactive)
REMARK    1  A    between atoms: C_1  and  C_20 
REMARK    2  A    between atoms: C_1  and  C_2 
REMARK    3  A    between atoms: C_2  and  C_3 
REMARK    4  A    between atoms: C_3  and  C_4 
REMARK    5  A    between atoms: C_3  and  N_7 
REMARK       I    between atoms: N_7  and  C_8 
REMARK    6  A    between atoms: C_8  and  C_9 
REMARK    7  A    between atoms: C_9  and  C_10 
REMARK    8  A    between atoms: C_9  and  N_23 
REMARK    9  A    between atoms: C_10  and  O_11 
REMARK   10  A    between atoms: O_11  and  P_12 
REMARK   11  A    between atoms: P_12  and  O_13 
REMARK   12  A    between atoms: N_19  and  C_20 
ROOT
HETATM    1  N           1     -21.015  -5.458  -5.063  0.00  0.00    -0.345 N 
HETATM    2  C           1     -21.488  -6.472  -4.275  0.00  0.00     0.251 C 
HETATM    3  H           1     -20.515  -4.684  -4.646  0.00  0.00     0.163 HD
HETATM    4  O           1     -22.086  -7.397  -4.773  0.00  0.00    -0.271 OA
ENDROOT
BRANCH   2   5
HETATM    5  C           1     -21.263  -6.436  -2.783  0.00  0.00     0.298 C 
BRANCH   5   6
HETATM    6  C           1     -21.061  -7.854  -2.265  0.00  0.00     0.224 C 
BRANCH   6   7
HETATM    7  O           1     -22.045  -8.148  -1.311  0.00  0.00    -0.287 OA
BRANCH   7   8
HETATM    8  P           1     -21.648  -9.255  -0.203  0.00  0.00     0.406 P 
HETATM    9  O           1     -22.796 -10.163   0.018  0.00  0.00    -0.624 OA
HETATM   10  O           1     -21.299  -8.580   1.066  0.00  0.00    -0.624 OA
BRANCH   8  11
HETATM   11  O           1     -20.380 -10.109  -0.725  0.00  0.00    -0.300 OA
HETATM   12  H           1     -20.644 -10.450  -1.563  0.00  0.00     0.223 HD
ENDBRANCH   8  11
ENDBRANCH   7   8
ENDBRANCH   6   7
ENDBRANCH   5   6
BRANCH   5  13
HETATM   13  N           1     -22.457  -5.825  -2.112  0.00  0.00    -0.064 N 
HETATM   14  H           1     -22.726  -4.947  -2.610  0.00  0.00     0.275 HD
HETATM   15  H           1     -23.255  -6.500  -2.142  0.00  0.00     0.275 HD
HETATM   16  H           1     -22.224  -5.605  -1.118  0.00  0.00     0.275 HD
ENDBRANCH   5  13
ENDBRANCH   2   5
BRANCH   1  17
HETATM   17  C           1     -21.232  -5.493  -6.497  0.00  0.00     0.185 C 
BRANCH  17  18
HETATM   18  C           1     -21.811  -4.162  -6.955  0.00  0.00     0.038 C 
BRANCH  18  19
HETATM   19  C           1     -23.210  -4.381  -7.517  0.00  0.00     0.030 C 
BRANCH  19  20
HETATM   20  C           1     -23.279  -3.830  -8.935  0.00  0.00     0.230 C 
BRANCH  20  21
HETATM   21  N           1     -24.637  -3.242  -9.178  0.00  0.00    -0.079 N 
HETATM   22  H           1     -24.607  -2.211  -9.007  0.00  0.00     0.274 HD
HETATM   23  H           1     -24.923  -3.421 -10.168  0.00  0.00     0.274 HD
HETATM   24  H           1     -25.329  -3.683  -8.530  0.00  0.00     0.274 HD
ENDBRANCH  20  21
ENDBRANCH  19  20
ENDBRANCH  18  19
ENDBRANCH  17  18
BRANCH  17  25
HETATM   25  C           1     -19.918  -5.740  -7.197  0.00  0.00     0.196 C 
HETATM   26  O           1     -19.358  -6.853  -7.100  0.00  0.00    -0.646 OA
HETATM   27  O           1     -19.391  -4.831  -7.875  0.00  0.00    -0.646 OA
ENDBRANCH  17  25
ENDBRANCH   1  17
TORSDOF 12
ENDMDL
