MODEL 1
REMARK VINA RESULT:      -5.9      0.000      0.000
REMARK  9 active torsions:
REMARK  status: ('A' for Active; 'I' for Inactive)
REMARK    1  A    between atoms: N_2  and  C_14 
REMARK       I    between atoms: N_2  and  C_3 
REMARK    2  A    between atoms: C_3  and  C_11 
REMARK    3  A    between atoms: N_9  and  C_11 
REMARK    4  A    between atoms: C_12  and  C_22 
REMARK    5  A    between atoms: C_12  and  C_13 
REMARK    6  A    between atoms: C_13  and  C_14 
REMARK    7  A    between atoms: C_14  and  C_15 
REMARK    8  A    between atoms: N_20  and  C_21 
REMARK    9  A    between atoms: C_21  and  C_22 
ROOT
HETATM    1  C           1     -22.714  -3.755  -9.358  0.00  0.00     0.185 C 
ENDROOT
BRANCH   1   2
HETATM    2  N           1     -22.371  -4.731  -8.342  0.00  0.00    -0.345 N 
HETATM    3  C           1     -21.680  -4.342  -7.226  0.00  0.00     0.248 C 
HETATM    4  O           1     -21.358  -3.187  -7.086  0.00  0.00    -0.271 OA
HETATM    5  H           1     -22.641  -5.699  -8.459  0.00  0.00     0.163 HD
BRANCH   3   6
HETATM    6  C           1     -21.323  -5.358  -6.169  0.00  0.00     0.270 C 
HETATM    7  C           1     -20.183  -4.823  -5.313  0.00  0.00     0.050 C 
BRANCH   6   8
HETATM    8  N           1     -20.895  -6.636  -6.827  0.00  0.00    -0.067 N 
HETATM    9  H           1     -21.134  -7.445  -6.210  0.00  0.00     0.275 HD
HETATM   10  H           1     -21.391  -6.738  -7.743  0.00  0.00     0.275 HD
HETATM   11  H           1     -19.863  -6.615  -6.991  0.00  0.00     0.275 HD
ENDBRANCH   6   8
ENDBRANCH   3   6
ENDBRANCH   1   2
BRANCH   1  12
HETATM   12  C           1     -21.929  -4.049 -10.630  0.00  0.00     0.036 C 
BRANCH  12  13
HETATM   13  C           1     -21.961  -2.828 -11.540  0.00  0.00     0.004 C 
BRANCH  13  14
HETATM   14  C           1     -22.531  -3.220 -12.897  0.00  0.00     0.027 C 
BRANCH  14  15
HETATM   15  C           1     -23.793  -2.414 -13.171  0.00  0.00     0.229 C 
BRANCH  15  16
HETATM   16  N           1     -24.983  -3.145 -12.624  0.00  0.00    -0.079 N 
HETATM   17  H           1     -25.206  -2.783 -11.669  0.00  0.00     0.274 HD
HETATM   18  H           1     -24.769  -4.166 -12.569  0.00  0.00     0.274 HD
HETATM   19  H           1     -25.804  -2.995 -13.253  0.00  0.00     0.274 HD
ENDBRANCH  15  16
ENDBRANCH  14  15
ENDBRANCH  13  14
ENDBRANCH  12  13
ENDBRANCH   1  12
BRANCH   1  20
HETATM   20  C           1     -24.193  -3.833  -9.650  0.00  0.00     0.196 C 
HETATM   21  O           1     -24.908  -2.814  -9.532  0.00  0.00    -0.646 OA
HETATM   22  O           1     -24.703  -4.916 -10.007  0.00  0.00    -0.646 OA
ENDBRANCH   1  20
TORSDOF 9
ENDMDL
MODEL 2
REMARK VINA RESULT:      -5.2      1.733      5.675
REMARK  9 active torsions:
REMARK  status: ('A' for Active; 'I' for Inactive)
REMARK    1  A    between atoms: N_2  and  C_14 
REMARK       I    between atoms: N_2  and  C_3 
REMARK    2  A    between atoms: C_3  and  C_11 
REMARK    3  A    between atoms: N_9  and  C_11 
REMARK    4  A    between atoms: C_12  and  C_22 
REMARK    5  A    between atoms: C_12  and  C_13 
REMARK    6  A    between atoms: C_13  and  C_14 
REMARK    7  A    between atoms: C_14  and  C_15 
REMARK    8  A    between atoms: N_20  and  C_21 
REMARK    9  A    between atoms: C_21  and  C_22 
ROOT
HETATM    1  C           1     -22.141  -4.208  -9.282  0.00  0.00     0.185 C 
ENDROOT
BRANCH   1   2
HETATM    2  N           1     -22.373  -3.279 -10.371  0.00  0.00    -0.345 N 
HETATM    3  C           1     -22.761  -3.747 -11.598  0.00  0.00     0.248 C 
HETATM    4  O           1     -22.911  -4.932 -11.773  0.00  0.00    -0.271 OA
HETATM    5  H           1     -22.249  -2.286 -10.224  0.00  0.00     0.163 HD
BRANCH   3   6
HETATM    6  C           1     -23.004  -2.780 -12.731  0.00  0.00     0.270 C 
HETATM    7  C           1     -24.498  -2.685 -13.008  0.00  0.00     0.050 C 
BRANCH   6   8
HETATM    8  N           1     -22.297  -3.265 -13.961  0.00  0.00    -0.067 N 
HETATM    9  H           1     -21.669  -4.062 -13.713  0.00  0.00     0.275 HD
HETATM   10  H           1     -23.003  -3.584 -14.664  0.00  0.00     0.275 HD
HETATM   11  H           1     -21.729  -2.487 -14.366  0.00  0.00     0.275 HD
ENDBRANCH   6   8
ENDBRANCH   3   6
ENDBRANCH   1   2
BRANCH   1  12
HETATM   12  C           1     -20.860  -3.824  -8.553  0.00  0.00     0.036 C 
BRANCH  12  13
HETATM   13  C           1     -20.002  -5.065  -8.345  0.00  0.00     0.004 C 
BRANCH  13  14
HETATM   14  C           1     -19.348  -5.007  -6.971  0.00  0.00     0.027 C 
BRANCH  14  15
HETATM   15  C           1     -20.236  -5.712  -5.955  0.00  0.00     0.229 C 
BRANCH  15  16
HETATM   16  N           1     -21.003  -6.808  -6.634  0.00  0.00    -0.079 N 
HETATM   17  H           1     -21.848  -6.405  -7.100  0.00  0.00     0.274 HD
HETATM   18  H           1     -21.299  -7.516  -5.926  0.00  0.00     0.274 HD
HETATM   19  H           1     -20.396  -7.266  -7.351  0.00  0.00     0.274 HD
ENDBRANCH  15  16
ENDBRANCH  14  15
ENDBRANCH  13  14
ENDBRANCH  12  13
ENDBRANCH   1  12
BRANCH   1  20
HETATM   20  C           1     -23.303  -4.156  -8.320  0.00  0.00     0.196 C 
HETATM   21  O           1     -24.419  -3.753  -8.710  0.00  0.00    -0.646 OA
HETATM   22  O           1     -23.147  -4.513  -7.133  0.00  0.00    -0.646 OA
ENDBRANCH   1  20
TORSDOF 9
ENDMDL
MODEL 3
REMARK VINA RESULT:      -5.2      1.721      2.031
REMARK  9 active torsions:
REMARK  status: ('A' for Active; 'I' for Inactive)
REMARK    1  A    between atoms: N_2  and  C_14 
REMARK       I    between atoms: N_2  and  C_3 
REMARK    2  A    between atoms: C_3  and  C_11 
REMARK    3  A    between atoms: N_9  and  C_11 
REMARK    4  A    between atoms: C_12  and  C_22 
REMARK    5  A    between atoms: C_12  and  C_13 
REMARK    6  A    between atoms: C_13  and  C_14 
REMARK    7  A    between atoms: C_14  and  C_15 
REMARK    8  A    between atoms: N_20  and  C_21 
REMARK    9  A    between atoms: C_21  and  C_22 
ROOT
HETATM    1  C           1     -23.006  -3.872 -10.161  0.00  0.00     0.185 C 
ENDROOT
BRANCH   1   2
HETATM    2  N           1     -22.252  -4.630  -9.182  0.00  0.00    -0.345 N 
HETATM    3  C           1     -20.889  -4.514  -9.128  0.00  0.00     0.248 C 
HETATM    4  O           1     -20.314  -3.780  -9.896  0.00  0.00    -0.271 OA
HETATM    5  H           1     -22.733  -5.244  -8.538  0.00  0.00     0.163 HD
BRANCH   3   6
HETATM    6  C           1     -20.104  -5.303  -8.109  0.00  0.00     0.270 C 
HETATM    7  C           1     -21.062  -5.934  -7.107  0.00  0.00     0.050 C 
BRANCH   6   8
HETATM    8  N           1     -19.160  -4.388  -7.388  0.00  0.00    -0.067 N 
HETATM    9  H           1     -18.296  -4.256  -7.961  0.00  0.00     0.275 HD
HETATM   10  H           1     -19.621  -3.462  -7.235  0.00  0.00     0.275 HD
HETATM   11  H           1     -18.905  -4.807  -6.465  0.00  0.00     0.275 HD
ENDBRANCH   6   8
ENDBRANCH   3   6
ENDBRANCH   1   2
BRANCH   1  12
HETATM   12  C           1     -22.859  -4.525 -11.530  0.00  0.00     0.036 C 
BRANCH  12  13
HETATM   13  C           1     -23.679  -3.750 -12.553  0.00  0.00     0.004 C 
BRANCH  13  14
HETATM   14  C           1     -22.821  -2.652 -13.166  0.00  0.00     0.027 C 
BRANCH  14  15
HETATM   15  C           1     -23.368  -2.286 -14.540  0.00  0.00     0.229 C 
BRANCH  15  16
HETATM   16  N           1     -24.045  -0.950 -14.469  0.00  0.00    -0.079 N 
HETATM   17  H           1     -25.020  -1.071 -14.113  0.00  0.00     0.274 HD
HETATM   18  H           1     -24.072  -0.522 -15.422  0.00  0.00     0.274 HD
HETATM   19  H           1     -23.514  -0.323 -13.822  0.00  0.00     0.274 HD
ENDBRANCH  15  16
ENDBRANCH  14  15
ENDBRANCH  13  14
ENDBRANCH  12  13
ENDBRANCH   1  12
BRANCH   1  20
HETATM   20  C           1     -24.462  -3.851  -9.767  0.00  0.00     0.196 C 
HETATM   21  O           1     -25.086  -4.924  -9.620  0.00  0.00    -0.646 OA
HETATM   22  O           1     -25.046  -2.760  -9.590  0.00  0.00    -0.646 OA
ENDBRANCH   1  20
TORSDOF 9
ENDMDL
MODEL 4
REMARK VINA RESULT:      -5.1      1.932      6.132
REMARK  9 active torsions:
REMARK  status: ('A' for Active; 'I' for Inactive)
REMARK    1  A    between atoms: N_2  and  C_14 
REMARK       I    between atoms: N_2  and  C_3 
REMARK    2  A    between atoms: C_3  and  C_11 
REMARK    3  A    between atoms: N_9  and  C_11 
REMARK    4  A    between atoms: C_12  and  C_22 
REMARK    5  A    between atoms: C_12  and  C_13 
REMARK    6  A    between atoms: C_13  and  C_14 
REMARK    7  A    between atoms: C_14  and  C_15 
REMARK    8  A    between atoms: N_20  and  C_21 
REMARK    9  A    between atoms: C_21  and  C_22 
ROOT
HETATM    1  C           1     -23.079  -3.398 -11.462  0.00  0.00     0.185 C 
ENDROOT
BRANCH   1   2
HETATM    2  N           1     -23.266  -2.437 -12.532  0.00  0.00    -0.345 N 
HETATM    3  C           1     -23.804  -2.838 -13.725  0.00  0.00     0.248 C 
HETATM    4  O           1     -24.123  -3.991 -13.887  0.00  0.00    -0.271 OA
HETATM    5  H           1     -22.999  -1.470 -12.396  0.00  0.00     0.163 HD
BRANCH   3   6
HETATM    6  C           1     -23.998  -1.838 -14.838  0.00  0.00     0.270 C 
HETATM    7  C           1     -22.656  -1.531 -15.488  0.00  0.00     0.050 C 
BRANCH   6   8
HETATM    8  N           1     -24.583  -0.575 -14.279  0.00  0.00    -0.067 N 
HETATM    9  H           1     -23.815   0.104 -14.072  0.00  0.00     0.275 HD
HETATM   10  H           1     -25.238  -0.156 -14.978  0.00  0.00     0.275 HD
HETATM   11  H           1     -25.103  -0.791 -13.399  0.00  0.00     0.275 HD
ENDBRANCH   6   8
ENDBRANCH   3   6
ENDBRANCH   1   2
BRANCH   1  12
HETATM   12  C           1     -21.749  -3.132 -10.769  0.00  0.00     0.036 C 
BRANCH  12  13
HETATM   13  C           1     -21.047  -4.455 -10.493  0.00  0.00     0.004 C 
BRANCH  13  14
HETATM   14  C           1     -20.294  -4.365  -9.173  0.00  0.00     0.027 C 
BRANCH  14  15
HETATM   15  C           1     -21.066  -5.113  -8.094  0.00  0.00     0.229 C 
BRANCH  15  16
HETATM   16  N           1     -21.946  -4.151  -7.351  0.00  0.00    -0.079 N 
HETATM   17  H           1     -21.634  -4.091  -6.355  0.00  0.00     0.274 HD
HETATM   18  H           1     -22.935  -4.484  -7.388  0.00  0.00     0.274 HD
HETATM   19  H           1     -21.881  -3.206  -7.793  0.00  0.00     0.274 HD
ENDBRANCH  15  16
ENDBRANCH  14  15
ENDBRANCH  13  14
ENDBRANCH  12  13
ENDBRANCH   1  12
BRANCH   1  20
HETATM   20  C           1     -24.203  -3.263 -10.464  0.00  0.00     0.196 C 
HETATM   21  O           1     -25.378  -3.118 -10.862  0.00  0.00    -0.646 OA
HETATM   22  O           1     -23.957  -3.294  -9.239  0.00  0.00    -0.646 OA
ENDBRANCH   1  20
TORSDOF 9
ENDMDL
MODEL 5
REMARK VINA RESULT:      -5.0      2.728      3.800
REMARK  9 active torsions:
REMARK  status: ('A' for Active; 'I' for Inactive)
REMARK    1  A    between atoms: N_2  and  C_14 
REMARK       I    between atoms: N_2  and  C_3 
REMARK    2  A    between atoms: C_3  and  C_11 
REMARK    3  A    between atoms: N_9  and  C_11 
REMARK    4  A    between atoms: C_12  and  C_22 
REMARK    5  A    between atoms: C_12  and  C_13 
REMARK    6  A    between atoms: C_13  and  C_14 
REMARK    7  A    between atoms: C_14  and  C_15 
REMARK    8  A    between atoms: N_20  and  C_21 
REMARK    9  A    between atoms: C_21  and  C_22 
ROOT
HETATM    1  C           1     -21.280  -5.075  -7.453  0.00  0.00     0.185 C 
ENDROOT
BRANCH   1   2
HETATM    2  N           1     -21.181  -5.330  -6.030  0.00  0.00    -0.345 N 
HETATM    3  C           1     -21.223  -6.616  -5.561  0.00  0.00     0.248 C 
HETATM    4  O           1     -21.342  -7.537  -6.332  0.00  0.00    -0.271 OA
HETATM    5  H           1     -21.081  -4.558  -5.383  0.00  0.00     0.163 HD
BRANCH   3   6
HETATM    6  C           1     -21.120  -6.881  -4.079  0.00  0.00     0.270 C 
HETATM    7  C           1     -21.344  -8.363  -3.810  0.00  0.00     0.050 C 
BRANCH   6   8
HETATM    8  N           1     -22.160  -6.080  -3.354  0.00  0.00    -0.067 N 
HETATM    9  H           1     -22.742  -5.555  -4.045  0.00  0.00     0.275 HD
HETATM   10  H           1     -22.773  -6.724  -2.802  0.00  0.00     0.275 HD
HETATM   11  H           1     -21.692  -5.405  -2.707  0.00  0.00     0.275 HD
ENDBRANCH   6   8
ENDBRANCH   3   6
ENDBRANCH   1   2
BRANCH   1  12
HETATM   12  C           1     -22.234  -3.912  -7.695  0.00  0.00     0.036 C 
BRANCH  12  13
HETATM   13  C           1     -23.312  -4.337  -8.683  0.00  0.00     0.004 C 
BRANCH  13  14
HETATM   14  C           1     -23.084  -3.636 -10.016  0.00  0.00     0.027 C 
BRANCH  14  15
HETATM   15  C           1     -24.420  -3.435 -10.720  0.00  0.00     0.229 C 
BRANCH  15  16
HETATM   16  N           1     -25.531  -3.506  -9.715  0.00  0.00    -0.079 N 
HETATM   17  H           1     -25.455  -2.701  -9.053  0.00  0.00     0.274 HD
HETATM   18  H           1     -25.462  -4.403  -9.183  0.00  0.00     0.274 HD
HETATM   19  H           1     -26.451  -3.464 -10.209  0.00  0.00     0.274 HD
ENDBRANCH  15  16
ENDBRANCH  14  15
ENDBRANCH  13  14
ENDBRANCH  12  13
ENDBRANCH   1  12
BRANCH   1  20
HETATM   20  C           1     -19.916  -4.728  -7.997  0.00  0.00     0.196 C 
HETATM   21  O           1     -18.929  -4.690  -7.232  0.00  0.00    -0.646 OA
HETATM   22  O           1     -19.774  -4.476  -9.213  0.00  0.00    -0.646 OA
ENDBRANCH   1  20
TORSDOF 9
ENDMDL
MODEL 6
REMARK VINA RESULT:      -4.9      3.759      5.727
REMARK  9 active torsions:
REMARK  status: ('A' for Active; 'I' for Inactive)
REMARK    1  A    between atoms: N_2  and  C_14 
REMARK       I    between atoms: N_2  and  C_3 
REMARK    2  A    between atoms: C_3  and  C_11 
REMARK    3  A    between atoms: N_9  and  C_11 
REMARK    4  A    between atoms: C_12  and  C_22 
REMARK    5  A    between atoms: C_12  and  C_13 
REMARK    6  A    between atoms: C_13  and  C_14 
REMARK    7  A    between atoms: C_14  and  C_15 
REMARK    8  A    between atoms: N_20  and  C_21 
REMARK    9  A    between atoms: C_21  and  C_22 
ROOT
HETATM    1  C           1     -20.711  -6.775  -5.337  0.00  0.00     0.185 C 
ENDROOT
BRANCH   1   2
HETATM    2  N           1     -20.821  -8.194  -5.617  0.00  0.00    -0.345 N 
HETATM    3  C           1     -19.996  -9.082  -4.981  0.00  0.00     0.248 C 
HETATM    4  O           1     -19.178  -8.685  -4.186  0.00  0.00    -0.271 OA
HETATM    5  H           1     -21.506  -8.526  -6.283  0.00  0.00     0.163 HD
BRANCH   3   6
HETATM    6  C           1     -20.111 -10.559  -5.273  0.00  0.00     0.270 C 
HETATM    7  C           1     -18.767 -11.088  -5.756  0.00  0.00     0.050 C 
BRANCH   6   8
HETATM    8  N           1     -21.145 -10.780  -6.335  0.00  0.00    -0.067 N 
HETATM    9  H           1     -21.053 -11.748  -6.717  0.00  0.00     0.275 HD
HETATM   10  H           1     -22.099 -10.657  -5.923  0.00  0.00     0.275 HD
HETATM   11  H           1     -21.007 -10.087  -7.106  0.00  0.00     0.275 HD
ENDBRANCH   6   8
ENDBRANCH   3   6
ENDBRANCH   1   2
BRANCH   1  12
HETATM   12  C           1     -20.651  -6.003  -6.648  0.00  0.00     0.036 C 
BRANCH  12  13
HETATM   13  C           1     -20.309  -4.546  -6.364  0.00  0.00     0.004 C 
BRANCH  13  14
HETATM   14  C           1     -21.215  -3.641  -7.188  0.00  0.00     0.027 C 
BRANCH  14  15
HETATM   15  C           1     -22.212  -4.491  -7.965  0.00  0.00     0.229 C 
BRANCH  15  16
HETATM   16  N           1     -23.594  -4.249  -7.436  0.00  0.00    -0.079 N 
HETATM   17  H           1     -23.588  -3.409  -6.814  0.00  0.00     0.274 HD
HETATM   18  H           1     -23.910  -5.084  -6.892  0.00  0.00     0.274 HD
HETATM   19  H           1     -24.250  -4.087  -8.234  0.00  0.00     0.274 HD
ENDBRANCH  15  16
ENDBRANCH  14  15
ENDBRANCH  13  14
ENDBRANCH  12  13
ENDBRANCH   1  12
BRANCH   1  20
HETATM   20  C           1     -21.913  -6.326  -4.543  0.00  0.00     0.196 C 
HETATM   21  O           1     -23.030  -6.236  -5.096  0.00  0.00    -0.646 OA
HETATM   22  O           1     -21.791  -6.042  -3.332  0.00  0.00    -0.646 OA
ENDBRANCH   1  20
TORSDOF 9
ENDMDL
MODEL 7
REMARK VINA RESULT:      -4.9     17.881     19.482
REMARK  9 active torsions:
REMARK  status: ('A' for Active; 'I' for Inactive)
REMARK    1  A    between atoms: N_2  and  C_14 
REMARK       I    between atoms: N_2  and  C_3 
REMARK    2  A    between atoms: C_3  and  C_11 
REMARK    3  A    between atoms: N_9  and  C_11 
REMARK    4  A    between atoms: C_12  and  C_22 
REMARK    5  A    between atoms: C_12  and  C_13 
REMARK    6  A    between atoms: C_13  and  C_14 
REMARK    7  A    between atoms: C_14  and  C_15 
REMARK    8  A    between atoms: N_20  and  C_21 
REMARK    9  A    between atoms: C_21  and  C_22 
ROOT
HETATM    1  C           1     -10.349   5.315 -20.653  0.00  0.00     0.185 C 
ENDROOT
BRANCH   1   2
HETATM    2  N           1     -11.540   5.461 -21.467  0.00  0.00    -0.345 N 
HETATM    3  C           1     -12.108   4.360 -22.051  0.00  0.00     0.248 C 
HETATM    4  O           1     -11.618   3.269 -21.887  0.00  0.00    -0.271 OA
HETATM    5  H           1     -11.951   6.375 -21.603  0.00  0.00     0.163 HD
BRANCH   3   6
HETATM    6  C           1     -13.348   4.512 -22.898  0.00  0.00     0.270 C 
HETATM    7  C           1     -14.190   5.664 -22.366  0.00  0.00     0.050 C 
BRANCH   6   8
HETATM    8  N           1     -14.147   3.244 -22.845  0.00  0.00    -0.067 N 
HETATM    9  H           1     -15.088   3.406 -23.270  0.00  0.00     0.275 HD
HETATM   10  H           1     -13.648   2.496 -23.380  0.00  0.00     0.275 HD
HETATM   11  H           1     -14.260   2.944 -21.850  0.00  0.00     0.275 HD
ENDBRANCH   6   8
ENDBRANCH   3   6
ENDBRANCH   1   2
BRANCH   1  12
HETATM   12  C           1      -9.365   6.427 -20.991  0.00  0.00     0.036 C 
BRANCH  12  13
HETATM   13  C           1     -10.132   7.680 -21.393  0.00  0.00     0.004 C 
BRANCH  13  14
HETATM   14  C           1      -9.653   8.859 -20.557  0.00  0.00     0.027 C 
BRANCH  14  15
HETATM   15  C           1     -10.662   9.143 -19.451  0.00  0.00     0.229 C 
BRANCH  15  16
HETATM   16  N           1     -10.003   8.964 -18.115  0.00  0.00    -0.079 N 
HETATM   17  H           1     -10.075   7.964 -17.822  0.00  0.00     0.274 HD
HETATM   18  H           1     -10.479   9.570 -17.409  0.00  0.00     0.274 HD
HETATM   19  H           1      -8.996   9.235 -18.183  0.00  0.00     0.274 HD
ENDBRANCH  15  16
ENDBRANCH  14  15
ENDBRANCH  13  14
ENDBRANCH  12  13
ENDBRANCH   1  12
BRANCH   1  20
HETATM   20  C           1     -10.724   5.402 -19.194  0.00  0.00     0.196 C 
HETATM   21  O           1      -9.903   5.843 -18.362  0.00  0.00    -0.646 OA
HETATM   22  O           1     -11.857   5.030 -18.817  0.00  0.00    -0.646 OA
ENDBRANCH   1  20
TORSDOF 9
ENDMDL
MODEL 8
REMARK VINA RESULT:      -4.9      1.743      5.853
REMARK  9 active torsions:
REMARK  status: ('A' for Active; 'I' for Inactive)
REMARK    1  A    between atoms: N_2  and  C_14 
REMARK       I    between atoms: N_2  and  C_3 
REMARK    2  A    between atoms: C_3  and  C_11 
REMARK    3  A    between atoms: N_9  and  C_11 
REMARK    4  A    between atoms: C_12  and  C_22 
REMARK    5  A    between atoms: C_12  and  C_13 
REMARK    6  A    between atoms: C_13  and  C_14 
REMARK    7  A    between atoms: C_14  and  C_15 
REMARK    8  A    between atoms: N_20  and  C_21 
REMARK    9  A    between atoms: C_21  and  C_22 
ROOT
HETATM    1  C           1     -21.559  -4.877  -8.504  0.00  0.00     0.185 C 
ENDROOT
BRANCH   1   2
HETATM    2  N           1     -21.546  -4.039  -9.687  0.00  0.00    -0.345 N 
HETATM    3  C           1     -22.633  -4.014 -10.519  0.00  0.00     0.248 C 
HETATM    4  O           1     -23.603  -4.689 -10.267  0.00  0.00    -0.271 OA
HETATM    5  H           1     -20.735  -3.472  -9.897  0.00  0.00     0.163 HD
BRANCH   3   6
HETATM    6  C           1     -22.620  -3.141 -11.750  0.00  0.00     0.270 C 
HETATM    7  C           1     -24.036  -3.011 -12.296  0.00  0.00     0.050 C 
BRANCH   6   8
HETATM    8  N           1     -21.738  -3.760 -12.792  0.00  0.00    -0.067 N 
HETATM    9  H           1     -21.524  -3.054 -13.533  0.00  0.00     0.275 HD
HETATM   10  H           1     -20.847  -4.080 -12.348  0.00  0.00     0.275 HD
HETATM   11  H           1     -22.227  -4.578 -13.221  0.00  0.00     0.275 HD
ENDBRANCH   6   8
ENDBRANCH   3   6
ENDBRANCH   1   2
BRANCH   1  12
HETATM   12  C           1     -20.135  -5.303  -8.169  0.00  0.00     0.036 C 
BRANCH  12  13
HETATM   13  C           1     -20.001  -5.488  -6.664  0.00  0.00     0.004 C 
BRANCH  13  14
HETATM   14  C           1     -20.542  -6.856  -6.270  0.00  0.00     0.027 C 
BRANCH  14  15
HETATM   15  C           1     -20.841  -6.875  -4.776  0.00  0.00     0.229 C 
BRANCH  15  16
HETATM   16  N           1     -22.188  -6.264  -4.528  0.00  0.00    -0.079 N 
HETATM   17  H           1     -22.638  -6.028  -5.442  0.00  0.00     0.274 HD
HETATM   18  H           1     -22.077  -5.394  -3.960  0.00  0.00     0.274 HD
HETATM   19  H           1     -22.789  -6.943  -4.010  0.00  0.00     0.274 HD
ENDBRANCH  15  16
ENDBRANCH  14  15
ENDBRANCH  13  14
ENDBRANCH  12  13
ENDBRANCH   1  12
BRANCH   1  20
HETATM   20  C           1     -22.138  -4.103  -7.345  0.00  0.00     0.196 C 
HETATM   21  O           1     -21.593  -3.044  -6.967  0.00  0.00    -0.646 OA
HETATM   22  O           1     -23.162  -4.521  -6.763  0.00  0.00    -0.646 OA
ENDBRANCH   1  20
TORSDOF 9
ENDMDL
MODEL 9
REMARK VINA RESULT:      -4.8      4.133      8.072
REMARK  9 active torsions:
REMARK  status: ('A' for Active; 'I' for Inactive)
REMARK    1  A    between atoms: N_2  and  C_14 
REMARK       I    between atoms: N_2  and  C_3 
REMARK    2  A    between atoms: C_3  and  C_11 
REMARK    3  A    between atoms: N_9  and  C_11 
REMARK    4  A    between atoms: C_12  and  C_22 
REMARK    5  A    between atoms: C_12  and  C_13 
REMARK    6  A    between atoms: C_13  and  C_14 
REMARK    7  A    between atoms: C_14  and  C_15 
REMARK    8  A    between atoms: N_20  and  C_21 
REMARK    9  A    between atoms: C_21  and  C_22 
ROOT
HETATM    1  C           1     -20.649  -6.982  -4.823  0.00  0.00     0.185 C 
ENDROOT
BRANCH   1   2
HETATM    2  N           1     -21.118  -6.465  -6.094  0.00  0.00    -0.345 N 
HETATM    3  C           1     -20.788  -5.194  -6.479  0.00  0.00     0.248 C 
HETATM    4  O           1     -20.104  -4.503  -5.761  0.00  0.00    -0.271 OA
HETATM    5  H           1     -21.690  -7.044  -6.695  0.00  0.00     0.163 HD
BRANCH   3   6
HETATM    6  C           1     -21.276  -4.655  -7.801  0.00  0.00     0.270 C 
HETATM    7  C           1     -20.084  -4.253  -8.659  0.00  0.00     0.050 C 
BRANCH   6   8
HETATM    8  N           1     -22.146  -3.457  -7.562  0.00  0.00    -0.067 N 
HETATM    9  H           1     -21.704  -2.613  -7.992  0.00  0.00     0.275 HD
HETATM   10  H           1     -23.085  -3.617  -7.995  0.00  0.00     0.275 HD
HETATM   11  H           1     -22.258  -3.307  -6.534  0.00  0.00     0.275 HD
ENDBRANCH   6   8
ENDBRANCH   3   6
ENDBRANCH   1   2
BRANCH   1  12
HETATM   12  C           1     -21.779  -6.925  -3.804  0.00  0.00     0.036 C 
BRANCH  12  13
HETATM   13  C           1     -21.193  -6.809  -2.402  0.00  0.00     0.004 C 
BRANCH  13  14
HETATM   14  C           1     -22.323  -6.699  -1.387  0.00  0.00     0.027 C 
BRANCH  14  15
HETATM   15  C           1     -22.202  -7.823  -0.367  0.00  0.00     0.229 C 
BRANCH  15  16
HETATM   16  N           1     -23.450  -7.882   0.463  0.00  0.00    -0.079 N 
HETATM   17  H           1     -24.105  -8.590   0.060  0.00  0.00     0.274 HD
HETATM   18  H           1     -23.910  -6.943   0.467  0.00  0.00     0.274 HD
HETATM   19  H           1     -23.205  -8.153   1.443  0.00  0.00     0.274 HD
ENDBRANCH  15  16
ENDBRANCH  14  15
ENDBRANCH  13  14
ENDBRANCH  12  13
ENDBRANCH   1  12
BRANCH   1  20
HETATM   20  C           1     -20.201  -8.413  -4.998  0.00  0.00     0.196 C 
HETATM   21  O           1     -20.912  -9.217  -5.637  0.00  0.00    -0.646 OA
HETATM   22  O           1     -19.118  -8.794  -4.502  0.00  0.00    -0.646 OA
ENDBRANCH   1  20
TORSDOF 9
ENDMDL
