MODEL 1
REMARK VINA RESULT:      -6.1      0.000      0.000
REMARK  11 active torsions:
REMARK  status: ('A' for Active; 'I' for Inactive)
REMARK    1  A    between atoms: C_2  and  C_4 
REMARK    2  A    between atoms: C_2  and  C_25 
REMARK    3  A    between atoms: N_3  and  C_11 
REMARK    4  A    between atoms: C_4  and  C_5 
REMARK    5  A    between atoms: C_5  and  C_11 
REMARK    6  A    between atoms: N_6  and  C_25 
REMARK       I    between atoms: N_6  and  C_9 
REMARK    7  A    between atoms: C_9  and  C_16 
REMARK    8  A    between atoms: O_13  and  C_23 
REMARK    9  A    between atoms: C_16  and  C_23 
REMARK   10  A    between atoms: C_16  and  N_18 
REMARK   11  A    between atoms: C_17  and  C_25 
ROOT
HETATM    1  N           1     -22.151  -4.726  -9.124  0.00  0.00    -0.345 N 
HETATM    2  H           1     -22.172  -5.691  -9.429  0.00  0.00     0.163 HD
HETATM    3  C           1     -21.491  -4.385  -7.975  0.00  0.00     0.251 C 
HETATM    4  O           1     -21.466  -3.233  -7.611  0.00  0.00    -0.271 OA
ENDROOT
BRANCH   1   5
HETATM    5  C           1     -22.821  -3.705  -9.906  0.00  0.00     0.185 C 
BRANCH   5   6
HETATM    6  C           1     -22.460  -3.874 -11.376  0.00  0.00     0.036 C 
BRANCH   6   7
HETATM    7  C           1     -22.692  -2.560 -12.111  0.00  0.00     0.004 C 
BRANCH   7   8
HETATM    8  C           1     -23.799  -2.741 -13.140  0.00  0.00     0.027 C 
BRANCH   8   9
HETATM    9  C           1     -23.393  -2.075 -14.447  0.00  0.00     0.229 C 
BRANCH   9  10
HETATM   10  N           1     -24.161  -0.798 -14.618  0.00  0.00    -0.079 N 
HETATM   11  H           1     -23.857  -0.324 -15.499  0.00  0.00     0.274 HD
HETATM   12  H           1     -23.978  -0.168 -13.804  0.00  0.00     0.274 HD
HETATM   13  H           1     -25.182  -1.011 -14.669  0.00  0.00     0.274 HD
ENDBRANCH   9  10
ENDBRANCH   8   9
ENDBRANCH   7   8
ENDBRANCH   6   7
ENDBRANCH   5   6
BRANCH   5  14
HETATM   14  C           1     -24.314  -3.839  -9.735  0.00  0.00     0.196 C 
HETATM   15  O           1     -25.008  -2.830  -9.481  0.00  0.00    -0.646 OA
HETATM   16  O           1     -24.858  -4.959  -9.849  0.00  0.00    -0.646 OA
ENDBRANCH   5  14
ENDBRANCH   1   5
BRANCH   3  17
HETATM   17  C           1     -20.794  -5.448  -7.161  0.00  0.00     0.302 C 
BRANCH  17  18
HETATM   18  C           1     -21.733  -5.953  -6.073  0.00  0.00     0.153 C 
HETATM   19  C           1     -21.071  -5.779  -4.712  0.00  0.00     0.042 C 
BRANCH  18  20
HETATM   20  O           1     -22.928  -5.219  -6.108  0.00  0.00    -0.393 OA
HETATM   21  H           1     -23.630  -5.842  -6.177  0.00  0.00     0.210 HD
ENDBRANCH  18  20
ENDBRANCH  17  18
BRANCH  17  22
HETATM   22  N           1     -19.564  -4.867  -6.531  0.00  0.00    -0.064 N 
HETATM   23  H           1     -18.716  -5.229  -7.023  0.00  0.00     0.275 HD
HETATM   24  H           1     -19.592  -3.825  -6.607  0.00  0.00     0.275 HD
HETATM   25  H           1     -19.527  -5.141  -5.523  0.00  0.00     0.275 HD
ENDBRANCH  17  22
ENDBRANCH   3  17
TORSDOF 11
ENDMDL
MODEL 2
REMARK VINA RESULT:      -5.9      9.412     11.481
REMARK  11 active torsions:
REMARK  status: ('A' for Active; 'I' for Inactive)
REMARK    1  A    between atoms: C_2  and  C_4 
REMARK    2  A    between atoms: C_2  and  C_25 
REMARK    3  A    between atoms: N_3  and  C_11 
REMARK    4  A    between atoms: C_4  and  C_5 
REMARK    5  A    between atoms: C_5  and  C_11 
REMARK    6  A    between atoms: N_6  and  C_25 
REMARK       I    between atoms: N_6  and  C_9 
REMARK    7  A    between atoms: C_9  and  C_16 
REMARK    8  A    between atoms: O_13  and  C_23 
REMARK    9  A    between atoms: C_16  and  C_23 
REMARK   10  A    between atoms: C_16  and  N_18 
REMARK   11  A    between atoms: C_17  and  C_25 
ROOT
HETATM    1  N           1     -27.118  -6.708 -17.645  0.00  0.00    -0.345 N 
HETATM    2  H           1     -26.409  -7.199 -17.114  0.00  0.00     0.163 HD
HETATM    3  C           1     -26.854  -6.297 -18.922  0.00  0.00     0.251 C 
HETATM    4  O           1     -27.700  -5.711 -19.557  0.00  0.00    -0.271 OA
ENDROOT
BRANCH   1   5
HETATM    5  C           1     -28.414  -6.443 -17.051  0.00  0.00     0.185 C 
BRANCH   5   6
HETATM    6  C           1     -29.410  -7.497 -17.515  0.00  0.00     0.036 C 
BRANCH   6   7
HETATM    7  C           1     -30.820  -6.925 -17.459  0.00  0.00     0.004 C 
BRANCH   7   8
HETATM    8  C           1     -30.778  -5.437 -17.781  0.00  0.00     0.027 C 
BRANCH   8   9
HETATM    9  C           1     -31.736  -4.691 -16.862  0.00  0.00     0.229 C 
BRANCH   9  10
HETATM   10  N           1     -31.986  -3.317 -17.408  0.00  0.00    -0.079 N 
HETATM   11  H           1     -31.085  -2.909 -17.747  0.00  0.00     0.274 HD
HETATM   12  H           1     -32.381  -2.709 -16.656  0.00  0.00     0.274 HD
HETATM   13  H           1     -32.663  -3.375 -18.201  0.00  0.00     0.274 HD
ENDBRANCH   9  10
ENDBRANCH   8   9
ENDBRANCH   7   8
ENDBRANCH   6   7
ENDBRANCH   5   6
BRANCH   5  14
HETATM   14  C           1     -28.297  -6.488 -15.548  0.00  0.00     0.196 C 
HETATM   15  O           1     -28.663  -5.508 -14.862  0.00  0.00    -0.646 OA
HETATM   16  O           1     -27.836  -7.506 -14.987  0.00  0.00    -0.646 OA
ENDBRANCH   5  14
ENDBRANCH   1   5
BRANCH   3  17
HETATM   17  C           1     -25.505  -6.573 -19.540  0.00  0.00     0.302 C 
BRANCH  17  18
HETATM   18  C           1     -25.689  -7.349 -20.838  0.00  0.00     0.153 C 
HETATM   19  C           1     -24.399  -8.085 -21.176  0.00  0.00     0.042 C 
BRANCH  18  20
HETATM   20  O           1     -26.729  -8.278 -20.684  0.00  0.00    -0.393 OA
HETATM   21  H           1     -26.393  -8.980 -20.154  0.00  0.00     0.210 HD
ENDBRANCH  18  20
ENDBRANCH  17  18
BRANCH  17  22
HETATM   22  N           1     -24.676  -7.382 -18.588  0.00  0.00    -0.064 N 
HETATM   23  H           1     -23.677  -7.367 -18.896  0.00  0.00     0.275 HD
HETATM   24  H           1     -24.750  -6.973 -17.629  0.00  0.00     0.275 HD
HETATM   25  H           1     -25.023  -8.367 -18.574  0.00  0.00     0.275 HD
ENDBRANCH  17  22
ENDBRANCH   3  17
TORSDOF 11
ENDMDL
MODEL 3
REMARK VINA RESULT:      -5.7      2.293      6.986
REMARK  11 active torsions:
REMARK  status: ('A' for Active; 'I' for Inactive)
REMARK    1  A    between atoms: C_2  and  C_4 
REMARK    2  A    between atoms: C_2  and  C_25 
REMARK    3  A    between atoms: N_3  and  C_11 
REMARK    4  A    between atoms: C_4  and  C_5 
REMARK    5  A    between atoms: C_5  and  C_11 
REMARK    6  A    between atoms: N_6  and  C_25 
REMARK       I    between atoms: N_6  and  C_9 
REMARK    7  A    between atoms: C_9  and  C_16 
REMARK    8  A    between atoms: O_13  and  C_23 
REMARK    9  A    between atoms: C_16  and  C_23 
REMARK   10  A    between atoms: C_16  and  N_18 
REMARK   11  A    between atoms: C_17  and  C_25 
ROOT
HETATM    1  N           1     -22.235  -5.226  -8.662  0.00  0.00    -0.345 N 
HETATM    2  H           1     -22.316  -6.165  -9.032  0.00  0.00     0.163 HD
HETATM    3  C           1     -23.111  -4.254  -9.064  0.00  0.00     0.251 C 
HETATM    4  O           1     -23.014  -3.133  -8.623  0.00  0.00    -0.271 OA
ENDROOT
BRANCH   1   5
HETATM    5  C           1     -21.189  -4.910  -7.708  0.00  0.00     0.185 C 
BRANCH   5   6
HETATM    6  C           1     -21.001  -6.084  -6.756  0.00  0.00     0.036 C 
BRANCH   6   7
HETATM    7  C           1     -21.125  -5.598  -5.318  0.00  0.00     0.004 C 
BRANCH   7   8
HETATM    8  C           1     -21.854  -6.646  -4.488  0.00  0.00     0.027 C 
BRANCH   8   9
HETATM    9  C           1     -21.374  -6.576  -3.045  0.00  0.00     0.229 C 
BRANCH   9  10
HETATM   10  N           1     -22.409  -5.888  -2.206  0.00  0.00    -0.079 N 
HETATM   11  H           1     -22.360  -4.857  -2.369  0.00  0.00     0.274 HD
HETATM   12  H           1     -22.230  -6.090  -1.196  0.00  0.00     0.274 HD
HETATM   13  H           1     -23.358  -6.239  -2.467  0.00  0.00     0.274 HD
ENDBRANCH   9  10
ENDBRANCH   8   9
ENDBRANCH   7   8
ENDBRANCH   6   7
ENDBRANCH   5   6
BRANCH   5  14
HETATM   14  C           1     -19.899  -4.647  -8.444  0.00  0.00     0.196 C 
HETATM   15  O           1     -19.855  -4.756  -9.689  0.00  0.00    -0.646 OA
HETATM   16  O           1     -18.873  -4.318  -7.810  0.00  0.00    -0.646 OA
ENDBRANCH   5  14
ENDBRANCH   1   5
BRANCH   3  17
HETATM   17  C           1     -24.198  -4.583 -10.057  0.00  0.00     0.302 C 
BRANCH  17  18
HETATM   18  C           1     -23.661  -4.421 -11.473  0.00  0.00     0.153 C 
HETATM   19  C           1     -24.248  -3.161 -12.097  0.00  0.00     0.042 C 
BRANCH  18  20
HETATM   20  O           1     -22.263  -4.314 -11.432  0.00  0.00    -0.393 OA
HETATM   21  H           1     -21.922  -5.191 -11.398  0.00  0.00     0.210 HD
ENDBRANCH  18  20
ENDBRANCH  17  18
BRANCH  17  22
HETATM   22  N           1     -25.357  -3.654  -9.853  0.00  0.00    -0.064 N 
HETATM   23  H           1     -26.033  -4.082  -9.179  0.00  0.00     0.275 HD
HETATM   24  H           1     -25.013  -2.745  -9.469  0.00  0.00     0.275 HD
HETATM   25  H           1     -25.834  -3.487 -10.767  0.00  0.00     0.275 HD
ENDBRANCH  17  22
ENDBRANCH   3  17
TORSDOF 11
ENDMDL
MODEL 4
REMARK VINA RESULT:      -5.3      4.151      6.342
REMARK  11 active torsions:
REMARK  status: ('A' for Active; 'I' for Inactive)
REMARK    1  A    between atoms: C_2  and  C_4 
REMARK    2  A    between atoms: C_2  and  C_25 
REMARK    3  A    between atoms: N_3  and  C_11 
REMARK    4  A    between atoms: C_4  and  C_5 
REMARK    5  A    between atoms: C_5  and  C_11 
REMARK    6  A    between atoms: N_6  and  C_25 
REMARK       I    between atoms: N_6  and  C_9 
REMARK    7  A    between atoms: C_9  and  C_16 
REMARK    8  A    between atoms: O_13  and  C_23 
REMARK    9  A    between atoms: C_16  and  C_23 
REMARK   10  A    between atoms: C_16  and  N_18 
REMARK   11  A    between atoms: C_17  and  C_25 
ROOT
HETATM    1  N           1     -20.669  -8.123  -5.722  0.00  0.00    -0.345 N 
HETATM    2  H           1     -21.231  -8.455  -6.496  0.00  0.00     0.163 HD
HETATM    3  C           1     -19.967  -9.011  -4.954  0.00  0.00     0.251 C 
HETATM    4  O           1     -19.296  -8.615  -4.030  0.00  0.00    -0.271 OA
ENDROOT
BRANCH   1   5
HETATM    5  C           1     -20.608  -6.704  -5.427  0.00  0.00     0.185 C 
BRANCH   5   6
HETATM    6  C           1     -20.591  -5.916  -6.730  0.00  0.00     0.036 C 
BRANCH   6   7
HETATM    7  C           1     -20.293  -4.452  -6.436  0.00  0.00     0.004 C 
BRANCH   7   8
HETATM    8  C           1     -21.268  -3.570  -7.204  0.00  0.00     0.027 C 
BRANCH   8   9
HETATM    9  C           1     -22.240  -4.445  -7.983  0.00  0.00     0.229 C 
BRANCH   9  10
HETATM   10  N           1     -23.629  -4.247  -7.451  0.00  0.00    -0.079 N 
HETATM   11  H           1     -23.862  -5.022  -6.790  0.00  0.00     0.274 HD
HETATM   12  H           1     -24.310  -4.249  -8.243  0.00  0.00     0.274 HD
HETATM   13  H           1     -23.682  -3.332  -6.949  0.00  0.00     0.274 HD
ENDBRANCH   9  10
ENDBRANCH   8   9
ENDBRANCH   7   8
ENDBRANCH   6   7
ENDBRANCH   5   6
BRANCH   5  14
HETATM   14  C           1     -21.816  -6.307  -4.616  0.00  0.00     0.196 C 
HETATM   15  O           1     -22.950  -6.297  -5.144  0.00  0.00    -0.646 OA
HETATM   16  O           1     -21.684  -5.989  -3.414  0.00  0.00    -0.646 OA
ENDBRANCH   5  14
ENDBRANCH   1   5
BRANCH   3  17
HETATM   17  C           1     -20.030 -10.488  -5.261  0.00  0.00     0.302 C 
BRANCH  17  18
HETATM   18  C           1     -18.713 -10.935  -5.881  0.00  0.00     0.153 C 
HETATM   19  C           1     -18.989 -11.972  -6.962  0.00  0.00     0.042 C 
BRANCH  18  20
HETATM   20  O           1     -18.064  -9.829  -6.450  0.00  0.00    -0.393 OA
HETATM   21  H           1     -18.584  -9.556  -7.186  0.00  0.00     0.210 HD
ENDBRANCH  18  20
ENDBRANCH  17  18
BRANCH  17  22
HETATM   22  N           1     -21.150 -10.750  -6.222  0.00  0.00    -0.064 N 
HETATM   23  H           1     -20.791 -11.303  -7.033  0.00  0.00     0.275 HD
HETATM   24  H           1     -21.904 -11.291  -5.740  0.00  0.00     0.275 HD
HETATM   25  H           1     -21.537  -9.841  -6.562  0.00  0.00     0.275 HD
ENDBRANCH  17  22
ENDBRANCH   3  17
TORSDOF 11
ENDMDL
MODEL 5
REMARK VINA RESULT:      -5.2      4.113      8.462
REMARK  11 active torsions:
REMARK  status: ('A' for Active; 'I' for Inactive)
REMARK    1  A    between atoms: C_2  and  C_4 
REMARK    2  A    between atoms: C_2  and  C_25 
REMARK    3  A    between atoms: N_3  and  C_11 
REMARK    4  A    between atoms: C_4  and  C_5 
REMARK    5  A    between atoms: C_5  and  C_11 
REMARK    6  A    between atoms: N_6  and  C_25 
REMARK       I    between atoms: N_6  and  C_9 
REMARK    7  A    between atoms: C_9  and  C_16 
REMARK    8  A    between atoms: O_13  and  C_23 
REMARK    9  A    between atoms: C_16  and  C_23 
REMARK   10  A    between atoms: C_16  and  N_18 
REMARK   11  A    between atoms: C_17  and  C_25 
ROOT
HETATM    1  N           1     -21.537  -6.359  -5.380  0.00  0.00    -0.345 N 
HETATM    2  H           1     -22.253  -6.895  -5.855  0.00  0.00     0.163 HD
HETATM    3  C           1     -21.119  -5.164  -5.899  0.00  0.00     0.251 C 
HETATM    4  O           1     -20.264  -4.525  -5.332  0.00  0.00    -0.271 OA
ENDROOT
BRANCH   1   5
HETATM    5  C           1     -20.954  -6.859  -4.151  0.00  0.00     0.185 C 
BRANCH   5   6
HETATM    6  C           1     -22.065  -7.239  -3.180  0.00  0.00     0.036 C 
BRANCH   6   7
HETATM    7  C           1     -22.073  -6.264  -2.010  0.00  0.00     0.004 C 
BRANCH   7   8
HETATM    8  C           1     -22.317  -7.026  -0.715  0.00  0.00     0.027 C 
BRANCH   8   9
HETATM    9  C           1     -22.183  -8.521  -0.971  0.00  0.00     0.229 C 
BRANCH   9  10
HETATM   10  N           1     -20.832  -8.988  -0.516  0.00  0.00    -0.079 N 
HETATM   11  H           1     -20.119  -8.256  -0.736  0.00  0.00     0.274 HD
HETATM   12  H           1     -20.584  -9.875  -1.011  0.00  0.00     0.274 HD
HETATM   13  H           1     -20.852  -9.159   0.514  0.00  0.00     0.274 HD
ENDBRANCH   9  10
ENDBRANCH   8   9
ENDBRANCH   7   8
ENDBRANCH   6   7
ENDBRANCH   5   6
BRANCH   5  14
HETATM   14  C           1     -20.112  -8.075  -4.451  0.00  0.00     0.196 C 
HETATM   15  O           1     -19.793  -8.858  -3.530  0.00  0.00    -0.646 OA
HETATM   16  O           1     -19.734  -8.300  -5.621  0.00  0.00    -0.646 OA
ENDBRANCH   5  14
ENDBRANCH   1   5
BRANCH   3  17
HETATM   17  C           1     -21.726  -4.643  -7.179  0.00  0.00     0.302 C 
BRANCH  17  18
HETATM   18  C           1     -20.980  -5.229  -8.371  0.00  0.00     0.153 C 
HETATM   19  C           1     -20.322  -4.105  -9.160  0.00  0.00     0.042 C 
BRANCH  18  20
HETATM   20  O           1     -19.995  -6.118  -7.915  0.00  0.00    -0.393 OA
HETATM   21  H           1     -20.311  -6.486  -7.107  0.00  0.00     0.210 HD
ENDBRANCH  18  20
ENDBRANCH  17  18
BRANCH  17  22
HETATM   22  N           1     -21.620  -3.148  -7.209  0.00  0.00    -0.064 N 
HETATM   23  H           1     -22.458  -2.730  -6.744  0.00  0.00     0.275 HD
HETATM   24  H           1     -20.756  -2.849  -6.703  0.00  0.00     0.275 HD
HETATM   25  H           1     -21.572  -2.823  -8.201  0.00  0.00     0.275 HD
ENDBRANCH  17  22
ENDBRANCH   3  17
TORSDOF 11
ENDMDL
MODEL 6
REMARK VINA RESULT:      -5.0      2.536      7.096
REMARK  11 active torsions:
REMARK  status: ('A' for Active; 'I' for Inactive)
REMARK    1  A    between atoms: C_2  and  C_4 
REMARK    2  A    between atoms: C_2  and  C_25 
REMARK    3  A    between atoms: N_3  and  C_11 
REMARK    4  A    between atoms: C_4  and  C_5 
REMARK    5  A    between atoms: C_5  and  C_11 
REMARK    6  A    between atoms: N_6  and  C_25 
REMARK       I    between atoms: N_6  and  C_9 
REMARK    7  A    between atoms: C_9  and  C_16 
REMARK    8  A    between atoms: O_13  and  C_23 
REMARK    9  A    between atoms: C_16  and  C_23 
REMARK   10  A    between atoms: C_16  and  N_18 
REMARK   11  A    between atoms: C_17  and  C_25 
ROOT
HETATM    1  N           1     -22.337  -5.255  -7.410  0.00  0.00    -0.345 N 
HETATM    2  H           1     -22.833  -6.083  -7.713  0.00  0.00     0.163 HD
HETATM    3  C           1     -22.428  -4.098  -8.135  0.00  0.00     0.251 C 
HETATM    4  O           1     -21.835  -3.109  -7.773  0.00  0.00    -0.271 OA
ENDROOT
BRANCH   1   5
HETATM    5  C           1     -21.529  -5.294  -6.206  0.00  0.00     0.185 C 
BRANCH   5   6
HETATM    6  C           1     -22.058  -6.377  -5.276  0.00  0.00     0.036 C 
BRANCH   6   7
HETATM    7  C           1     -21.290  -6.338  -3.961  0.00  0.00     0.004 C 
BRANCH   7   8
HETATM    8  C           1     -20.831  -7.744  -3.599  0.00  0.00     0.027 C 
BRANCH   8   9
HETATM    9  C           1     -21.321  -8.727  -4.653  0.00  0.00     0.229 C 
BRANCH   9  10
HETATM   10  N           1     -20.149  -9.266  -5.418  0.00  0.00    -0.079 N 
HETATM   11  H           1     -19.660  -9.988  -4.842  0.00  0.00     0.274 HD
HETATM   12  H           1     -19.487  -8.488  -5.636  0.00  0.00     0.274 HD
HETATM   13  H           1     -20.484  -9.697  -6.308  0.00  0.00     0.274 HD
ENDBRANCH   9  10
ENDBRANCH   8   9
ENDBRANCH   7   8
ENDBRANCH   6   7
ENDBRANCH   5   6
BRANCH   5  14
HETATM   14  C           1     -20.097  -5.600  -6.571  0.00  0.00     0.196 C 
HETATM   15  O           1     -19.207  -4.742  -6.383  0.00  0.00    -0.646 OA
HETATM   16  O           1     -19.801  -6.711  -7.061  0.00  0.00    -0.646 OA
ENDBRANCH   5  14
ENDBRANCH   1   5
BRANCH   3  17
HETATM   17  C           1     -23.268  -4.057  -9.388  0.00  0.00     0.302 C 
BRANCH  17  18
HETATM   18  C           1     -22.489  -3.368 -10.501  0.00  0.00     0.153 C 
HETATM   19  C           1     -21.507  -4.354 -11.119  0.00  0.00     0.042 C 
BRANCH  18  20
HETATM   20  O           1     -23.381  -2.918 -11.486  0.00  0.00    -0.393 OA
HETATM   21  H           1     -23.038  -2.105 -11.815  0.00  0.00     0.210 HD
ENDBRANCH  18  20
ENDBRANCH  17  18
BRANCH  17  22
HETATM   22  N           1     -24.531  -3.296  -9.116  0.00  0.00    -0.064 N 
HETATM   23  H           1     -24.960  -3.638  -8.227  0.00  0.00     0.275 HD
HETATM   24  H           1     -24.312  -2.278  -9.027  0.00  0.00     0.275 HD
HETATM   25  H           1     -25.200  -3.440  -9.905  0.00  0.00     0.275 HD
ENDBRANCH  17  22
ENDBRANCH   3  17
TORSDOF 11
ENDMDL
MODEL 7
REMARK VINA RESULT:      -4.8      6.337      8.924
REMARK  11 active torsions:
REMARK  status: ('A' for Active; 'I' for Inactive)
REMARK    1  A    between atoms: C_2  and  C_4 
REMARK    2  A    between atoms: C_2  and  C_25 
REMARK    3  A    between atoms: N_3  and  C_11 
REMARK    4  A    between atoms: C_4  and  C_5 
REMARK    5  A    between atoms: C_5  and  C_11 
REMARK    6  A    between atoms: N_6  and  C_25 
REMARK       I    between atoms: N_6  and  C_9 
REMARK    7  A    between atoms: C_9  and  C_16 
REMARK    8  A    between atoms: O_13  and  C_23 
REMARK    9  A    between atoms: C_16  and  C_23 
REMARK   10  A    between atoms: C_16  and  N_18 
REMARK   11  A    between atoms: C_17  and  C_25 
ROOT
HETATM    1  N           1     -20.579  -7.902  -4.152  0.00  0.00    -0.345 N 
HETATM    2  H           1     -19.670  -7.463  -4.238  0.00  0.00     0.163 HD
HETATM    3  C           1     -20.714  -9.246  -4.368  0.00  0.00     0.251 C 
HETATM    4  O           1     -21.798  -9.770  -4.265  0.00  0.00    -0.271 OA
ENDROOT
BRANCH   1   5
HETATM    5  C           1     -21.738  -7.105  -3.799  0.00  0.00     0.185 C 
BRANCH   5   6
HETATM    6  C           1     -21.415  -6.253  -2.579  0.00  0.00     0.036 C 
BRANCH   6   7
HETATM    7  C           1     -22.313  -6.664  -1.420  0.00  0.00     0.004 C 
BRANCH   7   8
HETATM    8  C           1     -21.624  -7.747  -0.600  0.00  0.00     0.027 C 
BRANCH   8   9
HETATM    9  C           1     -22.607  -8.874  -0.318  0.00  0.00     0.229 C 
BRANCH   9  10
HETATM   10  N           1     -22.381  -9.992  -1.292  0.00  0.00    -0.079 N 
HETATM   11  H           1     -21.475 -10.466  -1.073  0.00  0.00     0.274 HD
HETATM   12  H           1     -22.347  -9.608  -2.263  0.00  0.00     0.274 HD
HETATM   13  H           1     -23.162 -10.681  -1.218  0.00  0.00     0.274 HD
ENDBRANCH   9  10
ENDBRANCH   8   9
ENDBRANCH   7   8
ENDBRANCH   6   7
ENDBRANCH   5   6
BRANCH   5  14
HETATM   14  C           1     -22.102  -6.208  -4.956  0.00  0.00     0.196 C 
HETATM   15  O           1     -23.303  -6.041  -5.265  0.00  0.00    -0.646 OA
HETATM   16  O           1     -21.204  -5.629  -5.606  0.00  0.00    -0.646 OA
ENDBRANCH   5  14
ENDBRANCH   1   5
BRANCH   3  17
HETATM   17  C           1     -19.508 -10.076  -4.735  0.00  0.00     0.302 C 
BRANCH  17  18
HETATM   18  C           1     -18.709 -10.397  -3.478  0.00  0.00     0.153 C 
HETATM   19  C           1     -17.433  -9.566  -3.463  0.00  0.00     0.042 C 
BRANCH  18  20
HETATM   20  O           1     -19.478 -10.092  -2.346  0.00  0.00    -0.393 OA
HETATM   21  H           1     -19.125 -10.596  -1.632  0.00  0.00     0.210 HD
ENDBRANCH  18  20
ENDBRANCH  17  18
BRANCH  17  22
HETATM   22  N           1     -18.646  -9.308  -5.692  0.00  0.00    -0.064 N 
HETATM   23  H           1     -17.656  -9.632  -5.607  0.00  0.00     0.275 HD
HETATM   24  H           1     -18.981  -9.469  -6.669  0.00  0.00     0.275 HD
HETATM   25  H           1     -18.701  -8.289  -5.469  0.00  0.00     0.275 HD
ENDBRANCH  17  22
ENDBRANCH   3  17
TORSDOF 11
ENDMDL
MODEL 8
REMARK VINA RESULT:      -4.8      4.203      8.263
REMARK  11 active torsions:
REMARK  status: ('A' for Active; 'I' for Inactive)
REMARK    1  A    between atoms: C_2  and  C_4 
REMARK    2  A    between atoms: C_2  and  C_25 
REMARK    3  A    between atoms: N_3  and  C_11 
REMARK    4  A    between atoms: C_4  and  C_5 
REMARK    5  A    between atoms: C_5  and  C_11 
REMARK    6  A    between atoms: N_6  and  C_25 
REMARK       I    between atoms: N_6  and  C_9 
REMARK    7  A    between atoms: C_9  and  C_16 
REMARK    8  A    between atoms: O_13  and  C_23 
REMARK    9  A    between atoms: C_16  and  C_23 
REMARK   10  A    between atoms: C_16  and  N_18 
REMARK   11  A    between atoms: C_17  and  C_25 
ROOT
HETATM    1  N           1     -20.779  -6.575  -3.996  0.00  0.00    -0.345 N 
HETATM    2  H           1     -20.494  -5.675  -3.630  0.00  0.00     0.163 HD
HETATM    3  C           1     -20.790  -6.793  -5.347  0.00  0.00     0.251 C 
HETATM    4  O           1     -21.131  -7.867  -5.783  0.00  0.00    -0.271 OA
ENDROOT
BRANCH   1   5
HETATM    5  C           1     -21.177  -7.633  -3.088  0.00  0.00     0.185 C 
BRANCH   5   6
HETATM    6  C           1     -19.935  -8.284  -2.492  0.00  0.00     0.036 C 
BRANCH   6   7
HETATM    7  C           1     -19.730  -9.656  -3.120  0.00  0.00     0.004 C 
BRANCH   7   8
HETATM    8  C           1     -18.385  -9.692  -3.834  0.00  0.00     0.027 C 
BRANCH   8   9
HETATM    9  C           1     -18.560 -10.305  -5.217  0.00  0.00     0.229 C 
BRANCH   9  10
HETATM   10  N           1     -18.311  -9.260  -6.263  0.00  0.00    -0.079 N 
HETATM   11  H           1     -17.511  -9.556  -6.867  0.00  0.00     0.274 HD
HETATM   12  H           1     -18.080  -8.351  -5.801  0.00  0.00     0.274 HD
HETATM   13  H           1     -19.167  -9.143  -6.850  0.00  0.00     0.274 HD
ENDBRANCH   9  10
ENDBRANCH   8   9
ENDBRANCH   7   8
ENDBRANCH   6   7
ENDBRANCH   5   6
BRANCH   5  14
HETATM   14  C           1     -22.022  -7.054  -1.980  0.00  0.00     0.196 C 
HETATM   15  O           1     -22.154  -7.677  -0.903  0.00  0.00    -0.646 OA
HETATM   16  O           1     -22.588  -5.951  -2.137  0.00  0.00    -0.646 OA
ENDBRANCH   5  14
ENDBRANCH   1   5
BRANCH   3  17
HETATM   17  C           1     -20.376  -5.692  -6.292  0.00  0.00     0.302 C 
BRANCH  17  18
HETATM   18  C           1     -21.577  -4.804  -6.596  0.00  0.00     0.153 C 
HETATM   19  C           1     -21.793  -4.744  -8.102  0.00  0.00     0.042 C 
BRANCH  18  20
HETATM   20  O           1     -22.719  -5.336  -5.981  0.00  0.00    -0.393 OA
HETATM   21  H           1     -23.178  -5.832  -6.637  0.00  0.00     0.210 HD
ENDBRANCH  18  20
ENDBRANCH  17  18
BRANCH  17  22
HETATM   22  N           1     -19.864  -6.294  -7.566  0.00  0.00    -0.064 N 
HETATM   23  H           1     -20.661  -6.709  -8.100  0.00  0.00     0.275 HD
HETATM   24  H           1     -19.408  -5.552  -8.143  0.00  0.00     0.275 HD
HETATM   25  H           1     -19.167  -7.039  -7.343  0.00  0.00     0.275 HD
ENDBRANCH  17  22
ENDBRANCH   3  17
TORSDOF 11
ENDMDL
MODEL 9
REMARK VINA RESULT:      -4.7      9.672     11.884
REMARK  11 active torsions:
REMARK  status: ('A' for Active; 'I' for Inactive)
REMARK    1  A    between atoms: C_2  and  C_4 
REMARK    2  A    between atoms: C_2  and  C_25 
REMARK    3  A    between atoms: N_3  and  C_11 
REMARK    4  A    between atoms: C_4  and  C_5 
REMARK    5  A    between atoms: C_5  and  C_11 
REMARK    6  A    between atoms: N_6  and  C_25 
REMARK       I    between atoms: N_6  and  C_9 
REMARK    7  A    between atoms: C_9  and  C_16 
REMARK    8  A    between atoms: O_13  and  C_23 
REMARK    9  A    between atoms: C_16  and  C_23 
REMARK   10  A    between atoms: C_16  and  N_18 
REMARK   11  A    between atoms: C_17  and  C_25 
ROOT
HETATM    1  N           1     -26.533  -7.048 -19.042  0.00  0.00    -0.345 N 
HETATM    2  H           1     -26.122  -7.899 -18.679  0.00  0.00     0.163 HD
HETATM    3  C           1     -26.243  -6.637 -20.315  0.00  0.00     0.251 C 
HETATM    4  O           1     -26.734  -5.621 -20.749  0.00  0.00    -0.271 OA
ENDROOT
BRANCH   1   5
HETATM    5  C           1     -27.428  -6.264 -18.213  0.00  0.00     0.185 C 
BRANCH   5   6
HETATM    6  C           1     -28.763  -6.986 -18.085  0.00  0.00     0.036 C 
BRANCH   6   7
HETATM    7  C           1     -29.900  -5.995 -18.295  0.00  0.00     0.004 C 
BRANCH   7   8
HETATM    8  C           1     -30.951  -6.190 -17.211  0.00  0.00     0.027 C 
BRANCH   8   9
HETATM    9  C           1     -31.562  -4.844 -16.847  0.00  0.00     0.229 C 
BRANCH   9  10
HETATM   10  N           1     -33.048  -4.991 -16.701  0.00  0.00    -0.079 N 
HETATM   11  H           1     -33.270  -5.952 -16.356  0.00  0.00     0.274 HD
HETATM   12  H           1     -33.506  -4.840 -17.628  0.00  0.00     0.274 HD
HETATM   13  H           1     -33.402  -4.284 -16.019  0.00  0.00     0.274 HD
ENDBRANCH   9  10
ENDBRANCH   8   9
ENDBRANCH   7   8
ENDBRANCH   6   7
ENDBRANCH   5   6
BRANCH   5  14
HETATM   14  C           1     -26.819  -6.086 -16.845  0.00  0.00     0.196 C 
HETATM   15  O           1     -25.578  -5.993 -16.719  0.00  0.00    -0.646 OA
HETATM   16  O           1     -27.555  -6.028 -15.836  0.00  0.00    -0.646 OA
ENDBRANCH   5  14
ENDBRANCH   1   5
BRANCH   3  17
HETATM   17  C           1     -25.312  -7.453 -21.177  0.00  0.00     0.302 C 
BRANCH  17  18
HETATM   18  C           1     -24.214  -8.056 -20.311  0.00  0.00     0.153 C 
HETATM   19  C           1     -22.989  -8.342 -21.171  0.00  0.00     0.042 C 
BRANCH  18  20
HETATM   20  O           1     -23.870  -7.152 -19.295  0.00  0.00    -0.393 OA
HETATM   21  H           1     -24.525  -7.233 -18.623  0.00  0.00     0.210 HD
ENDBRANCH  18  20
ENDBRANCH  17  18
BRANCH  17  22
HETATM   22  N           1     -24.697  -6.570 -22.221  0.00  0.00    -0.064 N 
HETATM   23  H           1     -25.376  -5.821 -22.489  0.00  0.00     0.275 HD
HETATM   24  H           1     -23.829  -6.130 -21.838  0.00  0.00     0.275 HD
HETATM   25  H           1     -24.456  -7.141 -23.062  0.00  0.00     0.275 HD
ENDBRANCH  17  22
ENDBRANCH   3  17
TORSDOF 11
ENDMDL
