MODEL 1
REMARK VINA RESULT:      -6.8      0.000      0.000
REMARK  5 active torsions:
REMARK  status: ('A' for Active; 'I' for Inactive)
REMARK       I    between atoms: C_1  and  N_8 
REMARK    1  A    between atoms: C_1  and  C_9 
REMARK    2  A    between atoms: C_9  and  C_10 
REMARK    3  A    between atoms: C_10  and  C_11 
REMARK    4  A    between atoms: C_10  and  N_13 
REMARK       I    between atoms: N_13  and  C_16 
REMARK    5  A    between atoms: C_16  and  C_17 
ROOT
HETATM    1  C           1     -22.350  -4.394 -10.996  0.00  0.00     0.194 C 
ENDROOT
BRANCH   1   2
HETATM    2  C           1     -23.767  -4.912 -10.781  0.00  0.00     0.138 C 
BRANCH   2   3
HETATM    3  C           1     -24.531  -3.943  -9.911  0.00  0.00     0.217 C 
HETATM    4  O           1     -25.296  -3.155 -10.414  0.00  0.00    -0.274 OA
HETATM    5  N           1     -24.357  -3.958  -8.554  0.00  0.00    -0.370 N 
HETATM    6  H           1     -23.716  -4.619  -8.133  0.00  0.00     0.159 HD
HETATM    7  H           1     -24.869  -3.308  -7.971  0.00  0.00     0.159 HD
ENDBRANCH   2   3
ENDBRANCH   1   2
BRANCH   1   8
HETATM    8  C           1     -22.371  -3.283 -12.015  0.00  0.00     0.197 C 
HETATM    9  O           1     -21.740  -2.225 -11.801  0.00  0.00    -0.646 OA
HETATM   10  O           1     -23.019  -3.418 -13.076  0.00  0.00    -0.646 OA
ENDBRANCH   1   8
BRANCH   1  11
HETATM   11  N           1     -21.824  -3.890  -9.742  0.00  0.00    -0.344 N 
HETATM   12  H           1     -22.370  -3.241  -9.189  0.00  0.00     0.163 HD
HETATM   13  C           1     -20.590  -4.291  -9.306  0.00  0.00     0.251 C 
HETATM   14  O           1     -19.940  -5.065  -9.967  0.00  0.00    -0.271 OA
BRANCH  13  15
HETATM   15  C           1     -20.043  -3.766  -8.001  0.00  0.00     0.311 C 
HETATM   16  C           1     -19.115  -4.781  -7.358  0.00  0.00     0.047 C 
HETATM   17  C           1     -19.992  -5.559  -6.383  0.00  0.00     0.033 C 
HETATM   18  C           1     -21.373  -4.943  -6.516  0.00  0.00     0.271 C 
HETATM   19  N           1     -21.110  -3.598  -7.019  0.00  0.00     0.097 N 
HETATM   20  H           1     -20.804  -3.001  -6.251  0.00  0.00     0.317 HD
ENDBRANCH  13  15
ENDBRANCH   1  11
TORSDOF 5
ENDMDL
MODEL 2
REMARK VINA RESULT:      -5.9      4.544      7.110
REMARK  5 active torsions:
REMARK  status: ('A' for Active; 'I' for Inactive)
REMARK       I    between atoms: C_1  and  N_8 
REMARK    1  A    between atoms: C_1  and  C_9 
REMARK    2  A    between atoms: C_9  and  C_10 
REMARK    3  A    between atoms: C_10  and  C_11 
REMARK    4  A    between atoms: C_10  and  N_13 
REMARK       I    between atoms: N_13  and  C_16 
REMARK    5  A    between atoms: C_16  and  C_17 
ROOT
HETATM    1  C           1     -21.395  -7.321  -3.831  0.00  0.00     0.194 C 
ENDROOT
BRANCH   1   2
HETATM    2  C           1     -20.528  -8.574  -3.803  0.00  0.00     0.138 C 
BRANCH   2   3
HETATM    3  C           1     -20.207  -8.995  -5.217  0.00  0.00     0.217 C 
HETATM    4  O           1     -19.311  -8.454  -5.818  0.00  0.00    -0.274 OA
HETATM    5  N           1     -20.931  -9.990  -5.815  0.00  0.00    -0.370 N 
HETATM    6  H           1     -21.683 -10.444  -5.311  0.00  0.00     0.159 HD
HETATM    7  H           1     -20.716 -10.272  -6.763  0.00  0.00     0.159 HD
ENDBRANCH   2   3
ENDBRANCH   1   2
BRANCH   1   8
HETATM    8  C           1     -21.687  -6.882  -2.418  0.00  0.00     0.197 C 
HETATM    9  O           1     -21.148  -7.471  -1.456  0.00  0.00    -0.646 OA
HETATM   10  O           1     -22.469  -5.929  -2.207  0.00  0.00    -0.646 OA
ENDBRANCH   1   8
BRANCH   1  11
HETATM   11  N           1     -20.693  -6.262  -4.531  0.00  0.00    -0.344 N 
HETATM   12  H           1     -19.712  -6.096  -4.344  0.00  0.00     0.163 HD
HETATM   13  C           1     -21.356  -5.488  -5.444  0.00  0.00     0.251 C 
HETATM   14  O           1     -22.527  -5.687  -5.666  0.00  0.00    -0.271 OA
BRANCH  13  15
HETATM   15  C           1     -20.627  -4.386  -6.172  0.00  0.00     0.311 C 
HETATM   16  C           1     -21.506  -3.777  -7.251  0.00  0.00     0.047 C 
HETATM   17  C           1     -21.137  -4.520  -8.530  0.00  0.00     0.033 C 
HETATM   18  C           1     -20.061  -5.510  -8.117  0.00  0.00     0.271 C 
HETATM   19  N           1     -19.486  -4.918  -6.912  0.00  0.00     0.097 N 
HETATM   20  H           1     -18.844  -4.171  -7.174  0.00  0.00     0.317 HD
ENDBRANCH  13  15
ENDBRANCH   1  11
TORSDOF 5
ENDMDL
MODEL 3
REMARK VINA RESULT:      -5.6      6.871      8.966
REMARK  5 active torsions:
REMARK  status: ('A' for Active; 'I' for Inactive)
REMARK       I    between atoms: C_1  and  N_8 
REMARK    1  A    between atoms: C_1  and  C_9 
REMARK    2  A    between atoms: C_9  and  C_10 
REMARK    3  A    between atoms: C_10  and  C_11 
REMARK    4  A    between atoms: C_10  and  N_13 
REMARK       I    between atoms: N_13  and  C_16 
REMARK    5  A    between atoms: C_16  and  C_17 
ROOT
HETATM    1  C           1     -21.000  -7.835  -3.553  0.00  0.00     0.194 C 
ENDROOT
BRANCH   1   2
HETATM    2  C           1     -21.300  -8.597  -4.838  0.00  0.00     0.138 C 
BRANCH   2   3
HETATM    3  C           1     -20.117  -9.460  -5.200  0.00  0.00     0.217 C 
HETATM    4  O           1     -20.257 -10.387  -5.962  0.00  0.00    -0.274 OA
HETATM    5  N           1     -18.886  -9.193  -4.665  0.00  0.00    -0.370 N 
HETATM    6  H           1     -18.768  -8.416  -4.027  0.00  0.00     0.159 HD
HETATM    7  H           1     -18.092  -9.772  -4.908  0.00  0.00     0.159 HD
ENDBRANCH   2   3
ENDBRANCH   1   2
BRANCH   1   8
HETATM    8  C           1     -21.514  -6.422  -3.675  0.00  0.00     0.197 C 
HETATM    9  O           1     -21.133  -5.698  -4.620  0.00  0.00    -0.646 OA
HETATM   10  O           1     -22.320  -5.974  -2.831  0.00  0.00    -0.646 OA
ENDBRANCH   1   8
BRANCH   1  11
HETATM   11  N           1     -21.653  -8.492  -2.437  0.00  0.00    -0.344 N 
HETATM   12  H           1     -22.656  -8.412  -2.319  0.00  0.00     0.163 HD
HETATM   13  C           1     -20.916  -9.220  -1.543  0.00  0.00     0.251 C 
HETATM   14  O           1     -19.720  -9.315  -1.685  0.00  0.00    -0.271 OA
BRANCH  13  15
HETATM   15  C           1     -21.595  -9.904  -0.382  0.00  0.00     0.311 C 
HETATM   16  C           1     -23.067  -9.532  -0.323  0.00  0.00     0.047 C 
HETATM   17  C           1     -23.142  -8.362   0.652  0.00  0.00     0.033 C 
HETATM   18  C           1     -21.710  -8.131   1.104  0.00  0.00     0.271 C 
HETATM   19  N           1     -21.063  -9.422   0.889  0.00  0.00     0.097 N 
HETATM   20  H           1     -21.310 -10.057   1.648  0.00  0.00     0.317 HD
ENDBRANCH  13  15
ENDBRANCH   1  11
TORSDOF 5
ENDMDL
MODEL 4
REMARK VINA RESULT:      -5.5      6.397      8.571
REMARK  5 active torsions:
REMARK  status: ('A' for Active; 'I' for Inactive)
REMARK       I    between atoms: C_1  and  N_8 
REMARK    1  A    between atoms: C_1  and  C_9 
REMARK    2  A    between atoms: C_9  and  C_10 
REMARK    3  A    between atoms: C_10  and  C_11 
REMARK    4  A    between atoms: C_10  and  N_13 
REMARK       I    between atoms: N_13  and  C_16 
REMARK    5  A    between atoms: C_16  and  C_17 
ROOT
HETATM    1  C           1     -20.430  -8.372  -4.219  0.00  0.00     0.194 C 
ENDROOT
BRANCH   1   2
HETATM    2  C           1     -20.524  -6.906  -4.622  0.00  0.00     0.138 C 
BRANCH   2   3
HETATM    3  C           1     -21.855  -6.347  -4.181  0.00  0.00     0.217 C 
HETATM    4  O           1     -22.012  -5.995  -3.037  0.00  0.00    -0.274 OA
HETATM    5  N           1     -22.883  -6.239  -5.078  0.00  0.00    -0.370 N 
HETATM    6  H           1     -22.751  -6.534  -6.038  0.00  0.00     0.159 HD
HETATM    7  H           1     -23.775  -5.864  -4.783  0.00  0.00     0.159 HD
ENDBRANCH   2   3
ENDBRANCH   1   2
BRANCH   1   8
HETATM    8  C           1     -19.167  -8.969  -4.788  0.00  0.00     0.197 C 
HETATM    9  O           1     -19.060  -9.150  -6.020  0.00  0.00    -0.646 OA
HETATM   10  O           1     -18.226  -9.285  -4.027  0.00  0.00    -0.646 OA
ENDBRANCH   1   8
BRANCH   1  11
HETATM   11  N           1     -20.404  -8.476  -2.773  0.00  0.00    -0.344 N 
HETATM   12  H           1     -19.765  -7.903  -2.236  0.00  0.00     0.163 HD
HETATM   13  C           1     -21.244  -9.347  -2.133  0.00  0.00     0.251 C 
HETATM   14  O           1     -22.006 -10.031  -2.775  0.00  0.00    -0.271 OA
BRANCH  13  15
HETATM   15  C           1     -21.218  -9.455  -0.628  0.00  0.00     0.311 C 
HETATM   16  C           1     -22.504 -10.072  -0.108  0.00  0.00     0.047 C 
HETATM   17  C           1     -23.397  -8.889   0.246  0.00  0.00     0.033 C 
HETATM   18  C           1     -22.571  -7.657  -0.083  0.00  0.00     0.271 C 
HETATM   19  N           1     -21.192  -8.132  -0.012  0.00  0.00     0.097 N 
HETATM   20  H           1     -20.903  -8.193   0.964  0.00  0.00     0.317 HD
ENDBRANCH  13  15
ENDBRANCH   1  11
TORSDOF 5
ENDMDL
MODEL 5
REMARK VINA RESULT:      -5.5      6.995      9.410
REMARK  5 active torsions:
REMARK  status: ('A' for Active; 'I' for Inactive)
REMARK       I    between atoms: C_1  and  N_8 
REMARK    1  A    between atoms: C_1  and  C_9 
REMARK    2  A    between atoms: C_9  and  C_10 
REMARK    3  A    between atoms: C_10  and  C_11 
REMARK    4  A    between atoms: C_10  and  N_13 
REMARK       I    between atoms: N_13  and  C_16 
REMARK    5  A    between atoms: C_16  and  C_17 
ROOT
HETATM    1  C           1     -21.089  -9.277  -1.261  0.00  0.00     0.194 C 
ENDROOT
BRANCH   1   2
HETATM    2  C           1     -21.203  -8.340  -0.065  0.00  0.00     0.138 C 
BRANCH   2   3
HETATM    3  C           1     -22.508  -7.586  -0.138  0.00  0.00     0.217 C 
HETATM    4  O           1     -22.596  -6.598  -0.828  0.00  0.00    -0.274 OA
HETATM    5  N           1     -23.591  -8.021   0.576  0.00  0.00    -0.370 N 
HETATM    6  H           1     -23.518  -8.849   1.153  0.00  0.00     0.159 HD
HETATM    7  H           1     -24.466  -7.515   0.526  0.00  0.00     0.159 HD
ENDBRANCH   2   3
ENDBRANCH   1   2
BRANCH   1   8
HETATM    8  C           1     -21.722 -10.603  -0.922  0.00  0.00     0.197 C 
HETATM    9  O           1     -22.968 -10.715  -0.908  0.00  0.00    -0.646 OA
HETATM   10  O           1     -21.004 -11.590  -0.655  0.00  0.00    -0.646 OA
ENDBRANCH   1   8
BRANCH   1  11
HETATM   11  N           1     -21.770  -8.692  -2.400  0.00  0.00    -0.344 N 
HETATM   12  H           1     -22.765  -8.511  -2.356  0.00  0.00     0.163 HD
HETATM   13  C           1     -21.069  -8.385  -3.534  0.00  0.00     0.251 C 
HETATM   14  O           1     -19.881  -8.601  -3.586  0.00  0.00    -0.271 OA
BRANCH  13  15
HETATM   15  C           1     -21.778  -7.777  -4.720  0.00  0.00     0.311 C 
HETATM   16  C           1     -20.818  -7.580  -5.880  0.00  0.00     0.047 C 
HETATM   17  C           1     -20.333  -6.140  -5.754  0.00  0.00     0.033 C 
HETATM   18  C           1     -21.047  -5.587  -4.532  0.00  0.00     0.271 C 
HETATM   19  N           1     -22.237  -6.425  -4.414  0.00  0.00     0.097 N 
HETATM   20  H           1     -22.937  -6.119  -5.089  0.00  0.00     0.317 HD
ENDBRANCH  13  15
ENDBRANCH   1  11
TORSDOF 5
ENDMDL
MODEL 6
REMARK VINA RESULT:      -5.4      7.315      9.458
REMARK  5 active torsions:
REMARK  status: ('A' for Active; 'I' for Inactive)
REMARK       I    between atoms: C_1  and  N_8 
REMARK    1  A    between atoms: C_1  and  C_9 
REMARK    2  A    between atoms: C_9  and  C_10 
REMARK    3  A    between atoms: C_10  and  C_11 
REMARK    4  A    between atoms: C_10  and  N_13 
REMARK       I    between atoms: N_13  and  C_16 
REMARK    5  A    between atoms: C_16  and  C_17 
ROOT
HETATM    1  C           1     -21.261  -7.776  -2.799  0.00  0.00     0.194 C 
ENDROOT
BRANCH   1   2
HETATM    2  C           1     -21.451  -7.275  -4.225  0.00  0.00     0.138 C 
BRANCH   2   3
HETATM    3  C           1     -20.238  -7.632  -5.050  0.00  0.00     0.217 C 
HETATM    4  O           1     -19.436  -8.430  -4.628  0.00  0.00    -0.274 OA
HETATM    5  N           1     -20.048  -7.051  -6.274  0.00  0.00    -0.370 N 
HETATM    6  H           1     -20.721  -6.382  -6.628  0.00  0.00     0.159 HD
HETATM    7  H           1     -19.235  -7.290  -6.827  0.00  0.00     0.159 HD
ENDBRANCH   2   3
ENDBRANCH   1   2
BRANCH   1   8
HETATM    8  C           1     -21.953  -6.839  -1.841  0.00  0.00     0.197 C 
HETATM    9  O           1     -22.239  -5.676  -2.201  0.00  0.00    -0.646 OA
HETATM   10  O           1     -22.241  -7.223  -0.687  0.00  0.00    -0.646 OA
ENDBRANCH   1   8
BRANCH   1  11
HETATM   11  N           1     -21.831  -9.103  -2.673  0.00  0.00    -0.344 N 
HETATM   12  H           1     -22.760  -9.291  -3.030  0.00  0.00     0.163 HD
HETATM   13  C           1     -21.114 -10.103  -2.072  0.00  0.00     0.251 C 
HETATM   14  O           1     -20.006  -9.878  -1.646  0.00  0.00    -0.271 OA
BRANCH  13  15
HETATM   15  C           1     -21.707 -11.484  -1.940  0.00  0.00     0.311 C 
HETATM   16  C           1     -23.216 -11.443  -2.110  0.00  0.00     0.047 C 
HETATM   17  C           1     -23.772 -11.347  -0.693  0.00  0.00     0.033 C 
HETATM   18  C           1     -22.552 -11.345   0.211  0.00  0.00     0.271 C 
HETATM   19  N           1     -21.522 -12.003  -0.588  0.00  0.00     0.097 N 
HETATM   20  H           1     -21.667 -13.012  -0.565  0.00  0.00     0.317 HD
ENDBRANCH  13  15
ENDBRANCH   1  11
TORSDOF 5
ENDMDL
MODEL 7
REMARK VINA RESULT:      -5.3      8.914     10.662
REMARK  5 active torsions:
REMARK  status: ('A' for Active; 'I' for Inactive)
REMARK       I    between atoms: C_1  and  N_8 
REMARK    1  A    between atoms: C_1  and  C_9 
REMARK    2  A    between atoms: C_9  and  C_10 
REMARK    3  A    between atoms: C_10  and  C_11 
REMARK    4  A    between atoms: C_10  and  N_13 
REMARK       I    between atoms: N_13  and  C_16 
REMARK    5  A    between atoms: C_16  and  C_17 
ROOT
HETATM    1  C           1     -21.132  -9.053  -2.136  0.00  0.00     0.194 C 
ENDROOT
BRANCH   1   2
HETATM    2  C           1     -20.862  -7.747  -1.399  0.00  0.00     0.138 C 
BRANCH   2   3
HETATM    3  C           1     -22.141  -6.951  -1.300  0.00  0.00     0.217 C 
HETATM    4  O           1     -22.947  -7.209  -0.439  0.00  0.00    -0.274 OA
HETATM    5  N           1     -22.385  -5.937  -2.186  0.00  0.00    -0.370 N 
HETATM    6  H           1     -21.708  -5.720  -2.908  0.00  0.00     0.159 HD
HETATM    7  H           1     -23.242  -5.403  -2.120  0.00  0.00     0.159 HD
ENDBRANCH   2   3
ENDBRANCH   1   2
BRANCH   1   8
HETATM    8  C           1     -19.855  -9.849  -2.231  0.00  0.00     0.197 C 
HETATM    9  O           1     -19.113  -9.724  -3.230  0.00  0.00    -0.646 OA
HETATM   10  O           1     -19.537 -10.635  -1.312  0.00  0.00    -0.646 OA
ENDBRANCH   1   8
BRANCH   1  11
HETATM   11  N           1     -22.128  -9.820  -1.413  0.00  0.00    -0.344 N 
HETATM   12  H           1     -22.251  -9.679  -0.419  0.00  0.00     0.163 HD
HETATM   13  C           1     -22.901 -10.735  -2.075  0.00  0.00     0.251 C 
HETATM   14  O           1     -22.753 -10.903  -3.263  0.00  0.00    -0.271 OA
BRANCH  13  15
HETATM   15  C           1     -23.937 -11.534  -1.323  0.00  0.00     0.311 C 
HETATM   16  C           1     -23.808 -11.313   0.173  0.00  0.00     0.047 C 
HETATM   17  C           1     -22.933 -12.458   0.671  0.00  0.00     0.033 C 
HETATM   18  C           1     -22.614 -13.278  -0.567  0.00  0.00     0.271 C 
HETATM   19  N           1     -23.707 -12.967  -1.484  0.00  0.00     0.097 N 
HETATM   20  H           1     -24.536 -13.499  -1.219  0.00  0.00     0.317 HD
ENDBRANCH  13  15
ENDBRANCH   1  11
TORSDOF 5
ENDMDL
MODEL 8
REMARK VINA RESULT:      -5.3      6.578      8.607
REMARK  5 active torsions:
REMARK  status: ('A' for Active; 'I' for Inactive)
REMARK       I    between atoms: C_1  and  N_8 
REMARK    1  A    between atoms: C_1  and  C_9 
REMARK    2  A    between atoms: C_9  and  C_10 
REMARK    3  A    between atoms: C_10  and  C_11 
REMARK    4  A    between atoms: C_10  and  N_13 
REMARK       I    between atoms: N_13  and  C_16 
REMARK    5  A    between atoms: C_16  and  C_17 
ROOT
HETATM    1  C           1     -20.678  -7.689  -4.144  0.00  0.00     0.194 C 
ENDROOT
BRANCH   1   2
HETATM    2  C           1     -19.719  -8.675  -4.799  0.00  0.00     0.138 C 
BRANCH   2   3
HETATM    3  C           1     -20.383 -10.025  -4.910  0.00  0.00     0.217 C 
HETATM    4  O           1     -20.330 -10.801  -3.986  0.00  0.00    -0.274 OA
HETATM    5  N           1     -21.046 -10.369  -6.056  0.00  0.00    -0.370 N 
HETATM    6  H           1     -21.091  -9.718  -6.831  0.00  0.00     0.159 HD
HETATM    7  H           1     -21.492 -11.275  -6.131  0.00  0.00     0.159 HD
ENDBRANCH   2   3
ENDBRANCH   1   2
BRANCH   1   8
HETATM    8  C           1     -21.511  -7.017  -5.207  0.00  0.00     0.197 C 
HETATM    9  O           1     -22.483  -6.302  -4.881  0.00  0.00    -0.646 OA
HETATM   10  O           1     -21.230  -7.175  -6.415  0.00  0.00    -0.646 OA
ENDBRANCH   1   8
BRANCH   1  11
HETATM   11  N           1     -21.547  -8.397  -3.224  0.00  0.00    -0.344 N 
HETATM   12  H           1     -22.292  -8.982  -3.582  0.00  0.00     0.163 HD
HETATM   13  C           1     -21.361  -8.276  -1.874  0.00  0.00     0.251 C 
HETATM   14  O           1     -20.471  -7.577  -1.448  0.00  0.00    -0.271 OA
BRANCH  13  15
HETATM   15  C           1     -22.265  -9.013  -0.917  0.00  0.00     0.311 C 
HETATM   16  C           1     -21.767  -8.876   0.511  0.00  0.00     0.047 C 
HETATM   17  C           1     -20.918 -10.119   0.756  0.00  0.00     0.033 C 
HETATM   18  C           1     -20.982 -10.904  -0.542  0.00  0.00     0.271 C 
HETATM   19  N           1     -22.223 -10.451  -1.164  0.00  0.00     0.097 N 
HETATM   20  H           1     -23.015 -10.917  -0.722  0.00  0.00     0.317 HD
ENDBRANCH  13  15
ENDBRANCH   1  11
TORSDOF 5
ENDMDL
MODEL 9
REMARK VINA RESULT:      -5.2      8.747     10.942
REMARK  5 active torsions:
REMARK  status: ('A' for Active; 'I' for Inactive)
REMARK       I    between atoms: C_1  and  N_8 
REMARK    1  A    between atoms: C_1  and  C_9 
REMARK    2  A    between atoms: C_9  and  C_10 
REMARK    3  A    between atoms: C_10  and  C_11 
REMARK    4  A    between atoms: C_10  and  N_13 
REMARK       I    between atoms: N_13  and  C_16 
REMARK    5  A    between atoms: C_16  and  C_17 
ROOT
HETATM    1  C           1     -21.780  -8.281  -0.474  0.00  0.00     0.194 C 
ENDROOT
BRANCH   1   2
HETATM    2  C           1     -22.335  -6.977  -1.033  0.00  0.00     0.138 C 
BRANCH   2   3
HETATM    3  C           1     -21.791  -6.753  -2.423  0.00  0.00     0.217 C 
HETATM    4  O           1     -22.366  -6.011  -3.183  0.00  0.00    -0.274 OA
HETATM    5  N           1     -20.647  -7.389  -2.821  0.00  0.00    -0.370 N 
HETATM    6  H           1     -20.165  -8.010  -2.183  0.00  0.00     0.159 HD
HETATM    7  H           1     -20.282  -7.239  -3.753  0.00  0.00     0.159 HD
ENDBRANCH   2   3
ENDBRANCH   1   2
BRANCH   1   8
HETATM    8  C           1     -21.765  -8.216   1.033  0.00  0.00     0.197 C 
HETATM    9  O           1     -20.782  -8.656   1.668  0.00  0.00    -0.646 OA
HETATM   10  O           1     -22.734  -7.722   1.648  0.00  0.00    -0.646 OA
ENDBRANCH   1   8
BRANCH   1  11
HETATM   11  N           1     -22.618  -9.386  -0.901  0.00  0.00    -0.344 N 
HETATM   12  H           1     -23.596  -9.408  -0.642  0.00  0.00     0.163 HD
HETATM   13  C           1     -22.087 -10.397  -1.655  0.00  0.00     0.251 C 
HETATM   14  O           1     -20.919 -10.369  -1.964  0.00  0.00    -0.271 OA
BRANCH  13  15
HETATM   15  C           1     -22.958 -11.546  -2.100  0.00  0.00     0.311 C 
HETATM   16  C           1     -24.124 -11.740  -1.146  0.00  0.00     0.047 C 
HETATM   17  C           1     -23.658 -12.807  -0.162  0.00  0.00     0.033 C 
HETATM   18  C           1     -22.253 -13.172  -0.609  0.00  0.00     0.271 C 
HETATM   19  N           1     -22.231 -12.810  -2.023  0.00  0.00     0.097 N 
HETATM   20  H           1     -22.704 -13.532  -2.567  0.00  0.00     0.317 HD
ENDBRANCH  13  15
ENDBRANCH   1  11
TORSDOF 5
ENDMDL
