MODEL 1
REMARK VINA RESULT:      -7.4      0.000      0.000
REMARK  17 active torsions:
REMARK  status: ('A' for Active; 'I' for Inactive)
REMARK    1  A    between atoms: C_1  and  C_11 
REMARK    2  A    between atoms: C_1  and  C_7 
REMARK    3  A    between atoms: C_1  and  N_23 
REMARK    4  A    between atoms: C_2  and  C_3 
REMARK    5  A    between atoms: C_2  and  C_38 
REMARK    6  A    between atoms: C_2  and  N_12 
REMARK    7  A    between atoms: C_3  and  C_4 
REMARK    8  A    between atoms: C_4  and  N_5 
REMARK    9  A    between atoms: N_5  and  C_16 
REMARK   10  A    between atoms: C_7  and  C_18 
REMARK       I    between atoms: N_8  and  C_9 
REMARK       I    between atoms: C_9  and  N_10 
REMARK       I    between atoms: C_11  and  N_12 
REMARK   11  A    between atoms: C_15  and  C_16 
REMARK   12  A    between atoms: C_16  and  C_17 
REMARK   13  A    between atoms: C_17  and  C_35 
REMARK   14  A    between atoms: C_18  and  C_28 
REMARK       I    between atoms: N_24  and  C_26 
REMARK       I    between atoms: N_25  and  C_26 
REMARK   15  A    between atoms: N_27  and  C_28 
REMARK   16  A    between atoms: N_33  and  C_34 
REMARK   17  A    between atoms: C_34  and  C_35 
ROOT
HETATM    1  C           1     -21.097  -5.424  -6.431  0.00  0.00     0.187 C 
ENDROOT
BRANCH   1   2
HETATM    2  C           1     -21.673  -4.069  -6.819  0.00  0.00     0.066 C 
BRANCH   2   3
HETATM    3  C           1     -22.873  -4.270  -7.736  0.00  0.00     0.273 C 
BRANCH   3   4
HETATM    4  N           1     -22.641  -3.593  -8.984  0.00  0.00     0.098 N 
HETATM    5  H           1     -21.885  -2.918  -8.869  0.00  0.00     0.317 HD
BRANCH   4   6
HETATM    6  C           1     -22.258  -4.584  -9.953  0.00  0.00     0.320 C 
BRANCH   6   7
HETATM    7  C           1     -20.993  -4.143 -10.648  0.00  0.00     0.207 C 
HETATM    8  O           1     -20.991  -3.107 -11.347  0.00  0.00    -0.646 OA
HETATM    9  O           1     -19.947  -4.817 -10.526  0.00  0.00    -0.646 OA
ENDBRANCH   6   7
BRANCH   6  10
HETATM   10  C           1     -23.372  -4.745 -10.980  0.00  0.00     0.048 C 
BRANCH  10  11
HETATM   11  C           1     -24.331  -3.566 -10.877  0.00  0.00     0.023 C 
BRANCH  11  12
HETATM   12  C           1     -24.651  -3.047 -12.273  0.00  0.00     0.138 C 
BRANCH  12  13
HETATM   13  N           1     -23.572  -3.428 -13.197  0.00  0.00    -0.227 N 
HETATM   14  C           1     -23.246  -2.653 -14.144  0.00  0.00     0.665 C 
HETATM   15  N           1     -23.849  -1.550 -14.295  0.00  0.00    -0.235 N 
HETATM   16  N           1     -22.292  -2.990 -14.960  0.00  0.00    -0.235 N 
HETATM   17  H           1     -24.619  -1.278 -13.635  0.00  0.00     0.174 HD
HETATM   18  H           1     -23.578  -0.908 -15.080  0.00  0.00     0.174 HD
HETATM   19  H           1     -21.795  -3.900 -14.835  0.00  0.00     0.174 HD
HETATM   20  H           1     -22.024  -2.350 -15.741  0.00  0.00     0.174 HD
HETATM   21  H           1     -23.072  -4.343 -13.071  0.00  0.00     0.177 HD
ENDBRANCH  12  13
ENDBRANCH  11  12
ENDBRANCH  10  11
ENDBRANCH   6  10
ENDBRANCH   4   6
ENDBRANCH   3   4
ENDBRANCH   2   3
ENDBRANCH   1   2
BRANCH   1  22
HETATM   22  C           1     -19.739  -5.595  -7.068  0.00  0.00     0.196 C 
HETATM   23  O           1     -19.046  -4.591  -7.340  0.00  0.00    -0.646 OA
HETATM   24  O           1     -19.308  -6.740  -7.323  0.00  0.00    -0.646 OA
ENDBRANCH   1  22
BRANCH   1  25
HETATM   25  N           1     -20.966  -5.499  -4.989  0.00  0.00    -0.345 N 
HETATM   26  C           1     -21.437  -6.592  -4.315  0.00  0.00     0.249 C 
HETATM   27  O           1     -21.962  -7.496  -4.920  0.00  0.00    -0.271 OA
HETATM   28  H           1     -20.525  -4.742  -4.481  0.00  0.00     0.163 HD
BRANCH  26  29
HETATM   29  C           1     -21.299  -6.670  -2.814  0.00  0.00     0.274 C 
BRANCH  29  30
HETATM   30  C           1     -21.566  -8.097  -2.352  0.00  0.00     0.044 C 
BRANCH  30  31
HETATM   31  C           1     -20.276  -8.711  -1.825  0.00  0.00     0.023 C 
BRANCH  31  32
HETATM   32  C           1     -19.354  -9.036  -2.994  0.00  0.00     0.138 C 
BRANCH  32  33
HETATM   33  N           1     -20.017  -9.996  -3.889  0.00  0.00    -0.227 N 
HETATM   34  C           1     -19.856  -9.909  -5.141  0.00  0.00     0.665 C 
HETATM   35  N           1     -19.107  -8.968  -5.636  0.00  0.00    -0.235 N 
HETATM   36  N           1     -20.426 -10.735  -5.912  0.00  0.00    -0.235 N 
HETATM   37  H           1     -18.975  -8.896  -6.671  0.00  0.00     0.174 HD
HETATM   38  H           1     -18.637  -8.285  -5.000  0.00  0.00     0.174 HD
HETATM   39  H           1     -20.294 -10.662  -6.951  0.00  0.00     0.174 HD
HETATM   40  H           1     -21.033 -11.494  -5.512  0.00  0.00     0.174 HD
HETATM   41  H           1     -20.622 -10.755  -3.489  0.00  0.00     0.177 HD
ENDBRANCH  32  33
ENDBRANCH  31  32
ENDBRANCH  30  31
ENDBRANCH  29  30
BRANCH  29  42
HETATM   42  N           1     -22.292  -5.745  -2.173  0.00  0.00    -0.067 N 
HETATM   43  H           1     -23.253  -6.143  -2.271  0.00  0.00     0.275 HD
HETATM   44  H           1     -22.062  -5.636  -1.160  0.00  0.00     0.275 HD
HETATM   45  H           1     -22.252  -4.812  -2.642  0.00  0.00     0.275 HD
ENDBRANCH  29  42
ENDBRANCH  26  29
ENDBRANCH   1  25
TORSDOF 17
ENDMDL
MODEL 2
REMARK VINA RESULT:      -7.1      2.155      2.964
REMARK  17 active torsions:
REMARK  status: ('A' for Active; 'I' for Inactive)
REMARK    1  A    between atoms: C_1  and  C_11 
REMARK    2  A    between atoms: C_1  and  C_7 
REMARK    3  A    between atoms: C_1  and  N_23 
REMARK    4  A    between atoms: C_2  and  C_3 
REMARK    5  A    between atoms: C_2  and  C_38 
REMARK    6  A    between atoms: C_2  and  N_12 
REMARK    7  A    between atoms: C_3  and  C_4 
REMARK    8  A    between atoms: C_4  and  N_5 
REMARK    9  A    between atoms: N_5  and  C_16 
REMARK   10  A    between atoms: C_7  and  C_18 
REMARK       I    between atoms: N_8  and  C_9 
REMARK       I    between atoms: C_9  and  N_10 
REMARK       I    between atoms: C_11  and  N_12 
REMARK   11  A    between atoms: C_15  and  C_16 
REMARK   12  A    between atoms: C_16  and  C_17 
REMARK   13  A    between atoms: C_17  and  C_35 
REMARK   14  A    between atoms: C_18  and  C_28 
REMARK       I    between atoms: N_24  and  C_26 
REMARK       I    between atoms: N_25  and  C_26 
REMARK   15  A    between atoms: N_27  and  C_28 
REMARK   16  A    between atoms: N_33  and  C_34 
REMARK   17  A    between atoms: C_34  and  C_35 
ROOT
HETATM    1  C           1     -21.009  -5.451  -6.287  0.00  0.00     0.187 C 
ENDROOT
BRANCH   1   2
HETATM    2  C           1     -21.475  -4.066  -6.715  0.00  0.00     0.066 C 
BRANCH   2   3
HETATM    3  C           1     -22.737  -4.193  -7.560  0.00  0.00     0.273 C 
BRANCH   3   4
HETATM    4  N           1     -22.389  -4.655  -8.877  0.00  0.00     0.098 N 
HETATM    5  H           1     -22.798  -5.576  -9.034  0.00  0.00     0.317 HD
BRANCH   4   6
HETATM    6  C           1     -22.931  -3.720  -9.825  0.00  0.00     0.320 C 
BRANCH   6   7
HETATM    7  C           1     -24.426  -3.908  -9.916  0.00  0.00     0.207 C 
HETATM    8  O           1     -24.900  -5.038 -10.164  0.00  0.00    -0.646 OA
HETATM    9  O           1     -25.189  -2.933  -9.746  0.00  0.00    -0.646 OA
ENDBRANCH   6   7
BRANCH   6  10
HETATM   10  C           1     -22.305  -3.964 -11.192  0.00  0.00     0.048 C 
BRANCH  10  11
HETATM   11  C           1     -22.344  -2.676 -12.005  0.00  0.00     0.023 C 
BRANCH  11  12
HETATM   12  C           1     -23.044  -2.935 -13.333  0.00  0.00     0.138 C 
BRANCH  12  13
HETATM   13  N           1     -23.931  -1.806 -13.647  0.00  0.00    -0.227 N 
HETATM   14  C           1     -23.797  -1.181 -14.741  0.00  0.00     0.665 C 
HETATM   15  N           1     -22.899  -1.528 -15.562  0.00  0.00    -0.235 N 
HETATM   16  N           1     -24.581  -0.182 -15.019  0.00  0.00    -0.235 N 
HETATM   17  H           1     -22.265  -2.335 -15.337  0.00  0.00     0.174 HD
HETATM   18  H           1     -22.787  -1.010 -16.468  0.00  0.00     0.174 HD
HETATM   19  H           1     -25.322   0.105 -14.341  0.00  0.00     0.174 HD
HETATM   20  H           1     -24.470   0.334 -15.921  0.00  0.00     0.174 HD
HETATM   21  H           1     -24.676  -1.517 -12.966  0.00  0.00     0.177 HD
ENDBRANCH  12  13
ENDBRANCH  11  12
ENDBRANCH  10  11
ENDBRANCH   6  10
ENDBRANCH   4   6
ENDBRANCH   3   4
ENDBRANCH   2   3
ENDBRANCH   1   2
BRANCH   1  22
HETATM   22  C           1     -19.678  -5.756  -6.930  0.00  0.00     0.196 C 
HETATM   23  O           1     -19.302  -6.942  -7.052  0.00  0.00    -0.646 OA
HETATM   24  O           1     -18.954  -4.825  -7.342  0.00  0.00    -0.646 OA
ENDBRANCH   1  22
BRANCH   1  25
HETATM   25  N           1     -20.867  -5.489  -4.845  0.00  0.00    -0.345 N 
HETATM   26  C           1     -21.481  -6.475  -4.122  0.00  0.00     0.249 C 
HETATM   27  O           1     -22.141  -7.316  -4.685  0.00  0.00    -0.271 OA
HETATM   28  H           1     -20.313  -4.785  -4.372  0.00  0.00     0.163 HD
BRANCH  26  29
HETATM   29  C           1     -21.332  -6.514  -2.620  0.00  0.00     0.274 C 
BRANCH  29  30
HETATM   30  C           1     -21.591  -7.929  -2.120  0.00  0.00     0.044 C 
BRANCH  30  31
HETATM   31  C           1     -21.781  -7.908  -0.609  0.00  0.00     0.023 C 
BRANCH  31  32
HETATM   32  C           1     -22.277  -9.270  -0.140  0.00  0.00     0.138 C 
BRANCH  32  33
HETATM   33  N           1     -21.331 -10.311  -0.566  0.00  0.00    -0.227 N 
HETATM   34  C           1     -20.489 -10.775   0.256  0.00  0.00     0.665 C 
HETATM   35  N           1     -20.458 -10.330   1.477  0.00  0.00    -0.235 N 
HETATM   36  N           1     -19.674 -11.672  -0.111  0.00  0.00    -0.235 N 
HETATM   37  H           1     -19.762 -10.713   2.156  0.00  0.00     0.174 HD
HETATM   38  H           1     -21.130  -9.589   1.780  0.00  0.00     0.174 HD
HETATM   39  H           1     -18.975 -12.057   0.571  0.00  0.00     0.174 HD
HETATM   40  H           1     -19.698 -12.031  -1.098  0.00  0.00     0.174 HD
HETATM   41  H           1     -21.356 -10.670  -1.552  0.00  0.00     0.177 HD
ENDBRANCH  32  33
ENDBRANCH  31  32
ENDBRANCH  30  31
ENDBRANCH  29  30
BRANCH  29  42
HETATM   42  N           1     -22.322  -5.576  -1.996  0.00  0.00    -0.067 N 
HETATM   43  H           1     -23.288  -5.956  -2.119  0.00  0.00     0.275 HD
HETATM   44  H           1     -22.114  -5.478  -0.977  0.00  0.00     0.275 HD
HETATM   45  H           1     -22.255  -4.641  -2.458  0.00  0.00     0.275 HD
ENDBRANCH  29  42
ENDBRANCH  26  29
ENDBRANCH   1  25
TORSDOF 17
ENDMDL
MODEL 3
REMARK VINA RESULT:      -6.9      2.086      9.916
REMARK  17 active torsions:
REMARK  status: ('A' for Active; 'I' for Inactive)
REMARK    1  A    between atoms: C_1  and  C_11 
REMARK    2  A    between atoms: C_1  and  C_7 
REMARK    3  A    between atoms: C_1  and  N_23 
REMARK    4  A    between atoms: C_2  and  C_3 
REMARK    5  A    between atoms: C_2  and  C_38 
REMARK    6  A    between atoms: C_2  and  N_12 
REMARK    7  A    between atoms: C_3  and  C_4 
REMARK    8  A    between atoms: C_4  and  N_5 
REMARK    9  A    between atoms: N_5  and  C_16 
REMARK   10  A    between atoms: C_7  and  C_18 
REMARK       I    between atoms: N_8  and  C_9 
REMARK       I    between atoms: C_9  and  N_10 
REMARK       I    between atoms: C_11  and  N_12 
REMARK   11  A    between atoms: C_15  and  C_16 
REMARK   12  A    between atoms: C_16  and  C_17 
REMARK   13  A    between atoms: C_17  and  C_35 
REMARK   14  A    between atoms: C_18  and  C_28 
REMARK       I    between atoms: N_24  and  C_26 
REMARK       I    between atoms: N_25  and  C_26 
REMARK   15  A    between atoms: N_27  and  C_28 
REMARK   16  A    between atoms: N_33  and  C_34 
REMARK   17  A    between atoms: C_34  and  C_35 
ROOT
HETATM    1  C           1     -21.042  -4.407  -7.242  0.00  0.00     0.187 C 
ENDROOT
BRANCH   1   2
HETATM    2  C           1     -20.966  -5.305  -6.015  0.00  0.00     0.066 C 
BRANCH   2   3
HETATM    3  C           1     -22.306  -5.999  -5.808  0.00  0.00     0.273 C 
BRANCH   3   4
HETATM    4  N           1     -22.413  -6.440  -4.443  0.00  0.00     0.098 N 
HETATM    5  H           1     -23.212  -7.067  -4.350  0.00  0.00     0.317 HD
BRANCH   4   6
HETATM    6  C           1     -21.205  -7.149  -4.117  0.00  0.00     0.320 C 
BRANCH   6   7
HETATM    7  C           1     -21.365  -8.605  -4.480  0.00  0.00     0.207 C 
HETATM    8  O           1     -20.957  -9.023  -5.585  0.00  0.00    -0.646 OA
HETATM    9  O           1     -21.906  -9.393  -3.675  0.00  0.00    -0.646 OA
ENDBRANCH   6   7
BRANCH   6  10
HETATM   10  C           1     -20.933  -7.025  -2.624  0.00  0.00     0.048 C 
BRANCH  10  11
HETATM   11  C           1     -22.118  -6.347  -1.947  0.00  0.00     0.023 C 
BRANCH  11  12
HETATM   12  C           1     -22.431  -7.061  -0.638  0.00  0.00     0.138 C 
BRANCH  12  13
HETATM   13  N           1     -22.204  -8.504  -0.799  0.00  0.00    -0.227 N 
HETATM   14  C           1     -21.656  -9.166   0.131  0.00  0.00     0.665 C 
HETATM   15  N           1     -21.305  -8.586   1.199  0.00  0.00    -0.235 N 
HETATM   16  N           1     -21.455 -10.443  -0.012  0.00  0.00    -0.235 N 
HETATM   17  H           1     -21.468  -7.555   1.315  0.00  0.00     0.174 HD
HETATM   18  H           1     -20.851  -9.136   1.970  0.00  0.00     0.174 HD
HETATM   19  H           1     -21.745 -10.921  -0.895  0.00  0.00     0.174 HD
HETATM   20  H           1     -21.003 -10.989   0.755  0.00  0.00     0.174 HD
HETATM   21  H           1     -22.495  -8.985  -1.686  0.00  0.00     0.177 HD
ENDBRANCH  12  13
ENDBRANCH  11  12
ENDBRANCH  10  11
ENDBRANCH   6  10
ENDBRANCH   4   6
ENDBRANCH   3   4
ENDBRANCH   2   3
ENDBRANCH   1   2
BRANCH   1  22
HETATM   22  C           1     -19.668  -4.266  -7.850  0.00  0.00     0.196 C 
HETATM   23  O           1     -19.541  -3.803  -9.004  0.00  0.00    -0.646 OA
HETATM   24  O           1     -18.658  -4.612  -7.200  0.00  0.00    -0.646 OA
ENDBRANCH   1  22
BRANCH   1  25
HETATM   25  N           1     -21.943  -4.993  -8.215  0.00  0.00    -0.345 N 
HETATM   26  C           1     -22.885  -4.216  -8.831  0.00  0.00     0.249 C 
HETATM   27  O           1     -22.968  -3.040  -8.565  0.00  0.00    -0.271 OA
HETATM   28  H           1     -21.873  -5.979  -8.438  0.00  0.00     0.163 HD
BRANCH  26  29
HETATM   29  C           1     -23.822  -4.827  -9.845  0.00  0.00     0.274 C 
BRANCH  29  30
HETATM   30  C           1     -23.293  -4.567 -11.249  0.00  0.00     0.044 C 
BRANCH  30  31
HETATM   31  C           1     -23.792  -3.213 -11.737  0.00  0.00     0.023 C 
BRANCH  31  32
HETATM   32  C           1     -23.859  -3.215 -13.259  0.00  0.00     0.138 C 
BRANCH  32  33
HETATM   33  N           1     -24.307  -1.898 -13.732  0.00  0.00    -0.227 N 
HETATM   34  C           1     -23.767  -1.374 -14.750  0.00  0.00     0.665 C 
HETATM   35  N           1     -22.814  -2.000 -15.376  0.00  0.00    -0.235 N 
HETATM   36  N           1     -24.152  -0.239 -15.158  0.00  0.00    -0.235 N 
HETATM   37  H           1     -22.368  -1.568 -16.216  0.00  0.00     0.174 HD
HETATM   38  H           1     -22.496  -2.937 -15.038  0.00  0.00     0.174 HD
HETATM   39  H           1     -23.704   0.196 -16.002  0.00  0.00     0.174 HD
HETATM   40  H           1     -24.921   0.267 -14.652  0.00  0.00     0.174 HD
HETATM   41  H           1     -25.076  -1.392 -13.228  0.00  0.00     0.177 HD
ENDBRANCH  32  33
ENDBRANCH  31  32
ENDBRANCH  30  31
ENDBRANCH  29  30
BRANCH  29  42
HETATM   42  N           1     -25.182  -4.211  -9.702  0.00  0.00    -0.067 N 
HETATM   43  H           1     -25.103  -3.172  -9.774  0.00  0.00     0.275 HD
HETATM   44  H           1     -25.806  -4.566 -10.461  0.00  0.00     0.275 HD
HETATM   45  H           1     -25.585  -4.466  -8.772  0.00  0.00     0.275 HD
ENDBRANCH  29  42
ENDBRANCH  26  29
ENDBRANCH   1  25
TORSDOF 17
ENDMDL
MODEL 4
REMARK VINA RESULT:      -6.9      2.219      3.180
REMARK  17 active torsions:
REMARK  status: ('A' for Active; 'I' for Inactive)
REMARK    1  A    between atoms: C_1  and  C_11 
REMARK    2  A    between atoms: C_1  and  C_7 
REMARK    3  A    between atoms: C_1  and  N_23 
REMARK    4  A    between atoms: C_2  and  C_3 
REMARK    5  A    between atoms: C_2  and  C_38 
REMARK    6  A    between atoms: C_2  and  N_12 
REMARK    7  A    between atoms: C_3  and  C_4 
REMARK    8  A    between atoms: C_4  and  N_5 
REMARK    9  A    between atoms: N_5  and  C_16 
REMARK   10  A    between atoms: C_7  and  C_18 
REMARK       I    between atoms: N_8  and  C_9 
REMARK       I    between atoms: C_9  and  N_10 
REMARK       I    between atoms: C_11  and  N_12 
REMARK   11  A    between atoms: C_15  and  C_16 
REMARK   12  A    between atoms: C_16  and  C_17 
REMARK   13  A    between atoms: C_17  and  C_35 
REMARK   14  A    between atoms: C_18  and  C_28 
REMARK       I    between atoms: N_24  and  C_26 
REMARK       I    between atoms: N_25  and  C_26 
REMARK   15  A    between atoms: N_27  and  C_28 
REMARK   16  A    between atoms: N_33  and  C_34 
REMARK   17  A    between atoms: C_34  and  C_35 
ROOT
HETATM    1  C           1     -21.483  -5.964  -6.325  0.00  0.00     0.187 C 
ENDROOT
BRANCH   1   2
HETATM    2  C           1     -22.495  -4.839  -6.487  0.00  0.00     0.066 C 
BRANCH   2   3
HETATM    3  C           1     -23.133  -4.924  -7.868  0.00  0.00     0.273 C 
BRANCH   3   4
HETATM    4  N           1     -23.688  -3.644  -8.221  0.00  0.00     0.098 N 
HETATM    5  H           1     -23.213  -2.911  -7.694  0.00  0.00     0.317 HD
BRANCH   4   6
HETATM    6  C           1     -23.468  -3.445  -9.628  0.00  0.00     0.320 C 
BRANCH   6   7
HETATM    7  C           1     -24.795  -3.428 -10.346  0.00  0.00     0.207 C 
HETATM    8  O           1     -25.835  -3.107  -9.732  0.00  0.00    -0.646 OA
HETATM    9  O           1     -24.853  -3.737 -11.556  0.00  0.00    -0.646 OA
ENDBRANCH   6   7
BRANCH   6  10
HETATM   10  C           1     -22.611  -4.582 -10.171  0.00  0.00     0.048 C 
BRANCH  10  11
HETATM   11  C           1     -21.277  -4.026 -10.652  0.00  0.00     0.023 C 
BRANCH  11  12
HETATM   12  C           1     -21.524  -2.870 -11.612  0.00  0.00     0.138 C 
BRANCH  12  13
HETATM   13  N           1     -21.873  -3.399 -12.938  0.00  0.00    -0.227 N 
HETATM   14  C           1     -22.779  -2.841 -13.625  0.00  0.00     0.665 C 
HETATM   15  N           1     -23.384  -1.827 -13.170  0.00  0.00    -0.235 N 
HETATM   16  N           1     -23.087  -3.309 -14.798  0.00  0.00    -0.235 N 
HETATM   17  H           1     -23.135  -1.448 -12.222  0.00  0.00     0.174 HD
HETATM   18  H           1     -24.134  -1.364 -13.739  0.00  0.00     0.174 HD
HETATM   19  H           1     -22.587  -4.146 -15.173  0.00  0.00     0.174 HD
HETATM   20  H           1     -23.834  -2.848 -15.364  0.00  0.00     0.174 HD
HETATM   21  H           1     -21.371  -4.240 -13.316  0.00  0.00     0.177 HD
ENDBRANCH  12  13
ENDBRANCH  11  12
ENDBRANCH  10  11
ENDBRANCH   6  10
ENDBRANCH   4   6
ENDBRANCH   3   4
ENDBRANCH   2   3
ENDBRANCH   1   2
BRANCH   1  22
HETATM   22  C           1     -20.142  -5.515  -6.851  0.00  0.00     0.196 C 
HETATM   23  O           1     -19.712  -5.971  -7.933  0.00  0.00    -0.646 OA
HETATM   24  O           1     -19.462  -4.688  -6.207  0.00  0.00    -0.646 OA
ENDBRANCH   1  22
BRANCH   1  25
HETATM   25  N           1     -21.360  -6.305  -4.921  0.00  0.00    -0.345 N 
HETATM   26  C           1     -21.320  -7.617  -4.536  0.00  0.00     0.249 C 
HETATM   27  O           1     -21.388  -8.493  -5.366  0.00  0.00    -0.271 OA
HETATM   28  H           1     -21.303  -5.571  -4.225  0.00  0.00     0.163 HD
BRANCH  26  29
HETATM   29  C           1     -21.192  -7.972  -3.074  0.00  0.00     0.274 C 
BRANCH  29  30
HETATM   30  C           1     -21.207  -6.698  -2.239  0.00  0.00     0.044 C 
BRANCH  30  31
HETATM   31  C           1     -22.346  -6.764  -1.230  0.00  0.00     0.023 C 
BRANCH  31  32
HETATM   32  C           1     -22.024  -7.808  -0.168  0.00  0.00     0.138 C 
BRANCH  32  33
HETATM   33  N           1     -23.186  -8.688   0.022  0.00  0.00    -0.227 N 
HETATM   34  C           1     -23.074  -9.934  -0.171  0.00  0.00     0.665 C 
HETATM   35  N           1     -21.933 -10.435  -0.540  0.00  0.00    -0.235 N 
HETATM   36  N           1     -24.074 -10.692  -0.007  0.00  0.00    -0.235 N 
HETATM   37  H           1     -21.841 -11.464  -0.700  0.00  0.00     0.174 HD
HETATM   38  H           1     -21.107  -9.809  -0.676  0.00  0.00     0.174 HD
HETATM   39  H           1     -23.982 -11.726  -0.167  0.00  0.00     0.174 HD
HETATM   40  H           1     -24.997 -10.287   0.291  0.00  0.00     0.174 HD
HETATM   41  H           1     -24.108  -8.284   0.320  0.00  0.00     0.177 HD
ENDBRANCH  32  33
ENDBRANCH  31  32
ENDBRANCH  30  31
ENDBRANCH  29  30
BRANCH  29  42
HETATM   42  N           1     -19.901  -8.701  -2.849  0.00  0.00    -0.067 N 
HETATM   43  H           1     -20.101  -9.671  -2.517  0.00  0.00     0.275 HD
HETATM   44  H           1     -19.365  -8.745  -3.746  0.00  0.00     0.275 HD
HETATM   45  H           1     -19.336  -8.196  -2.129  0.00  0.00     0.275 HD
ENDBRANCH  29  42
ENDBRANCH  26  29
ENDBRANCH   1  25
TORSDOF 17
ENDMDL
MODEL 5
REMARK VINA RESULT:      -6.6      2.287      9.496
REMARK  17 active torsions:
REMARK  status: ('A' for Active; 'I' for Inactive)
REMARK    1  A    between atoms: C_1  and  C_11 
REMARK    2  A    between atoms: C_1  and  C_7 
REMARK    3  A    between atoms: C_1  and  N_23 
REMARK    4  A    between atoms: C_2  and  C_3 
REMARK    5  A    between atoms: C_2  and  C_38 
REMARK    6  A    between atoms: C_2  and  N_12 
REMARK    7  A    between atoms: C_3  and  C_4 
REMARK    8  A    between atoms: C_4  and  N_5 
REMARK    9  A    between atoms: N_5  and  C_16 
REMARK   10  A    between atoms: C_7  and  C_18 
REMARK       I    between atoms: N_8  and  C_9 
REMARK       I    between atoms: C_9  and  N_10 
REMARK       I    between atoms: C_11  and  N_12 
REMARK   11  A    between atoms: C_15  and  C_16 
REMARK   12  A    between atoms: C_16  and  C_17 
REMARK   13  A    between atoms: C_17  and  C_35 
REMARK   14  A    between atoms: C_18  and  C_28 
REMARK       I    between atoms: N_24  and  C_26 
REMARK       I    between atoms: N_25  and  C_26 
REMARK   15  A    between atoms: N_27  and  C_28 
REMARK   16  A    between atoms: N_33  and  C_34 
REMARK   17  A    between atoms: C_34  and  C_35 
ROOT
HETATM    1  C           1     -20.998  -6.761  -4.873  0.00  0.00     0.187 C 
ENDROOT
BRANCH   1   2
HETATM    2  C           1     -21.998  -6.700  -3.727  0.00  0.00     0.066 C 
BRANCH   2   3
HETATM    3  C           1     -21.286  -6.262  -2.453  0.00  0.00     0.273 C 
BRANCH   3   4
HETATM    4  N           1     -20.767  -7.417  -1.771  0.00  0.00     0.098 N 
HETATM    5  H           1     -20.293  -7.123  -0.917  0.00  0.00     0.317 HD
BRANCH   4   6
HETATM    6  C           1     -21.881  -8.262  -1.436  0.00  0.00     0.320 C 
BRANCH   6   7
HETATM    7  C           1     -22.306  -7.991  -0.014  0.00  0.00     0.207 C 
HETATM    8  O           1     -23.450  -7.545   0.223  0.00  0.00    -0.646 OA
HETATM    9  O           1     -21.514  -8.212   0.928  0.00  0.00    -0.646 OA
ENDBRANCH   6   7
BRANCH   6  10
HETATM   10  C           1     -21.467  -9.722  -1.572  0.00  0.00     0.048 C 
BRANCH  10  11
HETATM   11  C           1     -22.707 -10.606  -1.545  0.00  0.00     0.023 C 
BRANCH  11  12
HETATM   12  C           1     -22.680 -11.557  -2.735  0.00  0.00     0.138 C 
BRANCH  12  13
HETATM   13  N           1     -21.604 -11.161  -3.654  0.00  0.00    -0.227 N 
HETATM   14  C           1     -21.068 -12.024  -4.411  0.00  0.00     0.665 C 
HETATM   15  N           1     -21.459 -13.227  -4.375  0.00  0.00    -0.235 N 
HETATM   16  N           1     -20.117 -11.673  -5.225  0.00  0.00    -0.235 N 
HETATM   17  H           1     -22.227 -13.510  -3.718  0.00  0.00     0.174 HD
HETATM   18  H           1     -21.014 -13.942  -5.002  0.00  0.00     0.174 HD
HETATM   19  H           1     -19.794 -10.680  -5.254  0.00  0.00     0.174 HD
HETATM   20  H           1     -19.675 -12.385  -5.849  0.00  0.00     0.174 HD
HETATM   21  H           1     -21.280 -10.163  -3.684  0.00  0.00     0.177 HD
ENDBRANCH  12  13
ENDBRANCH  11  12
ENDBRANCH  10  11
ENDBRANCH   6  10
ENDBRANCH   4   6
ENDBRANCH   3   4
ENDBRANCH   2   3
ENDBRANCH   1   2
BRANCH   1  22
HETATM   22  C           1     -20.591  -8.195  -5.112  0.00  0.00     0.196 C 
HETATM   23  O           1     -19.697  -8.715  -4.410  0.00  0.00    -0.646 OA
HETATM   24  O           1     -21.148  -8.861  -6.010  0.00  0.00    -0.646 OA
ENDBRANCH   1  22
BRANCH   1  25
HETATM   25  N           1     -21.607  -6.226  -6.075  0.00  0.00    -0.345 N 
HETATM   26  C           1     -20.892  -5.392  -6.892  0.00  0.00     0.249 C 
HETATM   27  O           1     -19.753  -5.102  -6.612  0.00  0.00    -0.271 OA
HETATM   28  H           1     -22.561  -6.469  -6.310  0.00  0.00     0.163 HD
BRANCH  26  29
HETATM   29  C           1     -21.527  -4.836  -8.143  0.00  0.00     0.274 C 
BRANCH  29  30
HETATM   30  C           1     -20.480  -4.082  -8.953  0.00  0.00     0.044 C 
BRANCH  30  31
HETATM   31  C           1     -20.663  -4.389 -10.433  0.00  0.00     0.023 C 
BRANCH  31  32
HETATM   32  C           1     -21.585  -3.349 -11.057  0.00  0.00     0.138 C 
BRANCH  32  33
HETATM   33  N           1     -21.660  -3.568 -12.508  0.00  0.00    -0.227 N 
HETATM   34  C           1     -22.573  -3.011 -13.186  0.00  0.00     0.665 C 
HETATM   35  N           1     -23.444  -2.246 -12.598  0.00  0.00    -0.235 N 
HETATM   36  N           1     -22.638  -3.200 -14.436  0.00  0.00    -0.235 N 
HETATM   37  H           1     -24.198  -1.786 -13.157  0.00  0.00     0.174 HD
HETATM   38  H           1     -23.391  -2.091 -11.566  0.00  0.00     0.174 HD
HETATM   39  H           1     -23.395  -2.737 -14.998  0.00  0.00     0.174 HD
HETATM   40  H           1     -21.934  -3.818 -14.911  0.00  0.00     0.174 HD
HETATM   41  H           1     -20.957  -4.186 -12.984  0.00  0.00     0.177 HD
ENDBRANCH  32  33
ENDBRANCH  31  32
ENDBRANCH  30  31
ENDBRANCH  29  30
BRANCH  29  42
HETATM   42  N           1     -22.635  -3.897  -7.765  0.00  0.00    -0.067 N 
HETATM   43  H           1     -23.249  -3.731  -8.594  0.00  0.00     0.275 HD
HETATM   44  H           1     -23.200  -4.319  -6.994  0.00  0.00     0.275 HD
HETATM   45  H           1     -22.229  -2.989  -7.445  0.00  0.00     0.275 HD
ENDBRANCH  29  42
ENDBRANCH  26  29
ENDBRANCH   1  25
TORSDOF 17
ENDMDL
MODEL 6
REMARK VINA RESULT:      -6.4      2.468     10.335
REMARK  17 active torsions:
REMARK  status: ('A' for Active; 'I' for Inactive)
REMARK    1  A    between atoms: C_1  and  C_11 
REMARK    2  A    between atoms: C_1  and  C_7 
REMARK    3  A    between atoms: C_1  and  N_23 
REMARK    4  A    between atoms: C_2  and  C_3 
REMARK    5  A    between atoms: C_2  and  C_38 
REMARK    6  A    between atoms: C_2  and  N_12 
REMARK    7  A    between atoms: C_3  and  C_4 
REMARK    8  A    between atoms: C_4  and  N_5 
REMARK    9  A    between atoms: N_5  and  C_16 
REMARK   10  A    between atoms: C_7  and  C_18 
REMARK       I    between atoms: N_8  and  C_9 
REMARK       I    between atoms: C_9  and  N_10 
REMARK       I    between atoms: C_11  and  N_12 
REMARK   11  A    between atoms: C_15  and  C_16 
REMARK   12  A    between atoms: C_16  and  C_17 
REMARK   13  A    between atoms: C_17  and  C_35 
REMARK   14  A    between atoms: C_18  and  C_28 
REMARK       I    between atoms: N_24  and  C_26 
REMARK       I    between atoms: N_25  and  C_26 
REMARK   15  A    between atoms: N_27  and  C_28 
REMARK   16  A    between atoms: N_33  and  C_34 
REMARK   17  A    between atoms: C_34  and  C_35 
ROOT
HETATM    1  C           1     -20.934  -6.437  -5.076  0.00  0.00     0.187 C 
ENDROOT
BRANCH   1   2
HETATM    2  C           1     -21.986  -6.417  -3.976  0.00  0.00     0.066 C 
BRANCH   2   3
HETATM    3  C           1     -21.299  -6.408  -2.616  0.00  0.00     0.273 C 
BRANCH   3   4
HETATM    4  N           1     -22.137  -7.069  -1.651  0.00  0.00     0.098 N 
HETATM    5  H           1     -22.913  -7.525  -2.131  0.00  0.00     0.317 HD
BRANCH   4   6
HETATM    6  C           1     -21.336  -8.059  -0.984  0.00  0.00     0.320 C 
BRANCH   6   7
HETATM    7  C           1     -20.995  -9.165  -1.952  0.00  0.00     0.207 C 
HETATM    8  O           1     -21.900  -9.719  -2.614  0.00  0.00    -0.646 OA
HETATM    9  O           1     -19.807  -9.529  -2.091  0.00  0.00    -0.646 OA
ENDBRANCH   6   7
BRANCH   6  10
HETATM   10  C           1     -22.118  -8.636   0.190  0.00  0.00     0.048 C 
BRANCH  10  11
HETATM   11  C           1     -21.222  -8.688   1.420  0.00  0.00     0.023 C 
BRANCH  11  12
HETATM   12  C           1     -20.405  -9.974   1.400  0.00  0.00     0.138 C 
BRANCH  12  13
HETATM   13  N           1     -21.256 -11.088   0.958  0.00  0.00    -0.227 N 
HETATM   14  C           1     -20.770 -12.007   0.235  0.00  0.00     0.665 C 
HETATM   15  N           1     -19.552 -11.966  -0.108  0.00  0.00    -0.235 N 
HETATM   16  N           1     -21.522 -12.993  -0.156  0.00  0.00    -0.235 N 
HETATM   17  H           1     -18.944 -11.170   0.207  0.00  0.00     0.174 HD
HETATM   18  H           1     -19.150 -12.728  -0.707  0.00  0.00     0.174 HD
HETATM   19  H           1     -22.527 -13.026   0.127  0.00  0.00     0.174 HD
HETATM   20  H           1     -21.121 -13.751  -0.753  0.00  0.00     0.174 HD
HETATM   21  H           1     -22.266 -11.122   1.242  0.00  0.00     0.177 HD
ENDBRANCH  12  13
ENDBRANCH  11  12
ENDBRANCH  10  11
ENDBRANCH   6  10
ENDBRANCH   4   6
ENDBRANCH   3   4
ENDBRANCH   2   3
ENDBRANCH   1   2
BRANCH   1  22
HETATM   22  C           1     -20.453  -7.851  -5.289  0.00  0.00     0.196 C 
HETATM   23  O           1     -19.305  -8.182  -4.921  0.00  0.00    -0.646 OA
HETATM   24  O           1     -21.201  -8.691  -5.832  0.00  0.00    -0.646 OA
ENDBRANCH   1  22
BRANCH   1  25
HETATM   25  N           1     -21.513  -5.934  -6.307  0.00  0.00    -0.345 N 
HETATM   26  C           1     -20.848  -4.989  -7.040  0.00  0.00     0.249 C 
HETATM   27  O           1     -19.779  -4.572  -6.662  0.00  0.00    -0.271 OA
HETATM   28  H           1     -22.409  -6.284  -6.625  0.00  0.00     0.163 HD
BRANCH  26  29
HETATM   29  C           1     -21.451  -4.466  -8.322  0.00  0.00     0.274 C 
BRANCH  29  30
HETATM   30  C           1     -20.339  -4.015  -9.260  0.00  0.00     0.044 C 
BRANCH  30  31
HETATM   31  C           1     -20.692  -4.401 -10.690  0.00  0.00     0.023 C 
BRANCH  31  32
HETATM   32  C           1     -21.038  -3.148 -11.484  0.00  0.00     0.138 C 
BRANCH  32  33
HETATM   33  N           1     -21.667  -3.532 -12.756  0.00  0.00    -0.227 N 
HETATM   34  C           1     -22.856  -3.179 -13.006  0.00  0.00     0.665 C 
HETATM   35  N           1     -23.523  -2.480 -12.137  0.00  0.00    -0.235 N 
HETATM   36  N           1     -23.398  -3.510 -14.102  0.00  0.00    -0.235 N 
HETATM   37  H           1     -24.506  -2.188 -12.343  0.00  0.00     0.174 HD
HETATM   38  H           1     -23.076  -2.207 -11.232  0.00  0.00     0.174 HD
HETATM   39  H           1     -24.385  -3.217 -14.309  0.00  0.00     0.174 HD
HETATM   40  H           1     -22.860  -4.076 -14.804  0.00  0.00     0.174 HD
HETATM   41  H           1     -21.129  -4.097 -13.459  0.00  0.00     0.177 HD
ENDBRANCH  32  33
ENDBRANCH  31  32
ENDBRANCH  30  31
ENDBRANCH  29  30
BRANCH  29  42
HETATM   42  N           1     -22.347  -3.303  -8.014  0.00  0.00    -0.067 N 
HETATM   43  H           1     -22.039  -2.853  -7.122  0.00  0.00     0.275 HD
HETATM   44  H           1     -22.292  -2.607  -8.791  0.00  0.00     0.275 HD
HETATM   45  H           1     -23.331  -3.638  -7.913  0.00  0.00     0.275 HD
ENDBRANCH  29  42
ENDBRANCH  26  29
ENDBRANCH   1  25
TORSDOF 17
ENDMDL
MODEL 7
REMARK VINA RESULT:      -6.4      2.274     10.160
REMARK  17 active torsions:
REMARK  status: ('A' for Active; 'I' for Inactive)
REMARK    1  A    between atoms: C_1  and  C_11 
REMARK    2  A    between atoms: C_1  and  C_7 
REMARK    3  A    between atoms: C_1  and  N_23 
REMARK    4  A    between atoms: C_2  and  C_3 
REMARK    5  A    between atoms: C_2  and  C_38 
REMARK    6  A    between atoms: C_2  and  N_12 
REMARK    7  A    between atoms: C_3  and  C_4 
REMARK    8  A    between atoms: C_4  and  N_5 
REMARK    9  A    between atoms: N_5  and  C_16 
REMARK   10  A    between atoms: C_7  and  C_18 
REMARK       I    between atoms: N_8  and  C_9 
REMARK       I    between atoms: C_9  and  N_10 
REMARK       I    between atoms: C_11  and  N_12 
REMARK   11  A    between atoms: C_15  and  C_16 
REMARK   12  A    between atoms: C_16  and  C_17 
REMARK   13  A    between atoms: C_17  and  C_35 
REMARK   14  A    between atoms: C_18  and  C_28 
REMARK       I    between atoms: N_24  and  C_26 
REMARK       I    between atoms: N_25  and  C_26 
REMARK   15  A    between atoms: N_27  and  C_28 
REMARK   16  A    between atoms: N_33  and  C_34 
REMARK   17  A    between atoms: C_34  and  C_35 
ROOT
HETATM    1  C           1     -21.551  -5.062  -6.711  0.00  0.00     0.187 C 
ENDROOT
BRANCH   1   2
HETATM    2  C           1     -22.016  -5.960  -5.573  0.00  0.00     0.066 C 
BRANCH   2   3
HETATM    3  C           1     -21.444  -7.359  -5.762  0.00  0.00     0.273 C 
BRANCH   3   4
HETATM    4  N           1     -20.542  -7.659  -4.683  0.00  0.00     0.098 N 
HETATM    5  H           1     -20.074  -6.804  -4.383  0.00  0.00     0.317 HD
BRANCH   4   6
HETATM    6  C           1     -21.322  -8.187  -3.596  0.00  0.00     0.320 C 
BRANCH   6   7
HETATM    7  C           1     -21.092  -7.351  -2.361  0.00  0.00     0.207 C 
HETATM    8  O           1     -21.823  -6.364  -2.128  0.00  0.00    -0.646 OA
HETATM    9  O           1     -20.169  -7.646  -1.571  0.00  0.00    -0.646 OA
ENDBRANCH   6   7
BRANCH   6  10
HETATM   10  C           1     -20.900  -9.625  -3.322  0.00  0.00     0.048 C 
BRANCH  10  11
HETATM   11  C           1     -22.133 -10.468  -3.026  0.00  0.00     0.023 C 
BRANCH  11  12
HETATM   12  C           1     -22.189 -10.781  -1.536  0.00  0.00     0.138 C 
BRANCH  12  13
HETATM   13  N           1     -23.135  -9.868  -0.878  0.00  0.00    -0.227 N 
HETATM   14  C           1     -22.762  -9.178   0.116  0.00  0.00     0.665 C 
HETATM   15  N           1     -21.575  -9.274   0.543  0.00  0.00    -0.235 N 
HETATM   16  N           1     -23.599  -8.371   0.697  0.00  0.00    -0.235 N 
HETATM   17  H           1     -20.899  -9.926   0.074  0.00  0.00     0.174 HD
HETATM   18  H           1     -21.266  -8.702   1.367  0.00  0.00     0.174 HD
HETATM   19  H           1     -24.579  -8.292   0.344  0.00  0.00     0.174 HD
HETATM   20  H           1     -23.291  -7.801   1.517  0.00  0.00     0.174 HD
HETATM   21  H           1     -24.120  -9.789  -1.232  0.00  0.00     0.177 HD
ENDBRANCH  12  13
ENDBRANCH  11  12
ENDBRANCH  10  11
ENDBRANCH   6  10
ENDBRANCH   4   6
ENDBRANCH   3   4
ENDBRANCH   2   3
ENDBRANCH   1   2
BRANCH   1  22
HETATM   22  C           1     -20.075  -5.268  -6.945  0.00  0.00     0.196 C 
HETATM   23  O           1     -19.245  -4.830  -6.120  0.00  0.00    -0.646 OA
HETATM   24  O           1     -19.683  -5.877  -7.963  0.00  0.00    -0.646 OA
ENDBRANCH   1  22
BRANCH   1  25
HETATM   25  N           1     -22.283  -5.395  -7.918  0.00  0.00    -0.345 N 
HETATM   26  C           1     -22.728  -4.399  -8.745  0.00  0.00     0.249 C 
HETATM   27  O           1     -22.513  -3.243  -8.469  0.00  0.00    -0.271 OA
HETATM   28  H           1     -22.463  -6.364  -8.149  0.00  0.00     0.163 HD
BRANCH  26  29
HETATM   29  C           1     -23.489  -4.746 -10.001  0.00  0.00     0.274 C 
BRANCH  29  30
HETATM   30  C           1     -22.788  -4.132 -11.206  0.00  0.00     0.044 C 
BRANCH  30  31
HETATM   31  C           1     -23.583  -2.932 -11.700  0.00  0.00     0.023 C 
BRANCH  31  32
HETATM   32  C           1     -23.790  -3.044 -13.206  0.00  0.00     0.138 C 
BRANCH  32  33
HETATM   33  N           1     -24.258  -1.754 -13.734  0.00  0.00    -0.227 N 
HETATM   34  C           1     -23.757  -1.286 -14.798  0.00  0.00     0.665 C 
HETATM   35  N           1     -22.826  -1.945 -15.422  0.00  0.00    -0.235 N 
HETATM   36  N           1     -24.160  -0.176 -15.253  0.00  0.00    -0.235 N 
HETATM   37  H           1     -22.411  -1.559 -16.300  0.00  0.00     0.174 HD
HETATM   38  H           1     -22.492  -2.861 -15.046  0.00  0.00     0.174 HD
HETATM   39  H           1     -23.744   0.212 -16.135  0.00  0.00     0.174 HD
HETATM   40  H           1     -24.912   0.356 -14.748  0.00  0.00     0.174 HD
HETATM   41  H           1     -25.010  -1.222 -13.230  0.00  0.00     0.177 HD
ENDBRANCH  32  33
ENDBRANCH  31  32
ENDBRANCH  30  31
ENDBRANCH  29  30
BRANCH  29  42
HETATM   42  N           1     -24.884  -4.203  -9.906  0.00  0.00    -0.067 N 
HETATM   43  H           1     -24.901  -3.221 -10.261  0.00  0.00     0.275 HD
HETATM   44  H           1     -25.527  -4.792 -10.483  0.00  0.00     0.275 HD
HETATM   45  H           1     -25.196  -4.218  -8.909  0.00  0.00     0.275 HD
ENDBRANCH  29  42
ENDBRANCH  26  29
ENDBRANCH   1  25
TORSDOF 17
ENDMDL
MODEL 8
REMARK VINA RESULT:      -6.4      2.368      9.886
REMARK  17 active torsions:
REMARK  status: ('A' for Active; 'I' for Inactive)
REMARK    1  A    between atoms: C_1  and  C_11 
REMARK    2  A    between atoms: C_1  and  C_7 
REMARK    3  A    between atoms: C_1  and  N_23 
REMARK    4  A    between atoms: C_2  and  C_3 
REMARK    5  A    between atoms: C_2  and  C_38 
REMARK    6  A    between atoms: C_2  and  N_12 
REMARK    7  A    between atoms: C_3  and  C_4 
REMARK    8  A    between atoms: C_4  and  N_5 
REMARK    9  A    between atoms: N_5  and  C_16 
REMARK   10  A    between atoms: C_7  and  C_18 
REMARK       I    between atoms: N_8  and  C_9 
REMARK       I    between atoms: C_9  and  N_10 
REMARK       I    between atoms: C_11  and  N_12 
REMARK   11  A    between atoms: C_15  and  C_16 
REMARK   12  A    between atoms: C_16  and  C_17 
REMARK   13  A    between atoms: C_17  and  C_35 
REMARK   14  A    between atoms: C_18  and  C_28 
REMARK       I    between atoms: N_24  and  C_26 
REMARK       I    between atoms: N_25  and  C_26 
REMARK   15  A    between atoms: N_27  and  C_28 
REMARK   16  A    between atoms: N_33  and  C_34 
REMARK   17  A    between atoms: C_34  and  C_35 
ROOT
HETATM    1  C           1     -20.734  -6.911  -5.091  0.00  0.00     0.187 C 
ENDROOT
BRANCH   1   2
HETATM    2  C           1     -21.787  -6.801  -3.997  0.00  0.00     0.066 C 
BRANCH   2   3
HETATM    3  C           1     -21.105  -6.767  -2.635  0.00  0.00     0.273 C 
BRANCH   3   4
HETATM    4  N           1     -22.098  -6.872  -1.599  0.00  0.00     0.098 N 
HETATM    5  H           1     -23.007  -6.596  -1.970  0.00  0.00     0.317 HD
BRANCH   4   6
HETATM    6  C           1     -22.147  -8.247  -1.180  0.00  0.00     0.320 C 
BRANCH   6   7
HETATM    7  C           1     -22.606  -8.318   0.256  0.00  0.00     0.207 C 
HETATM    8  O           1     -23.720  -8.813   0.533  0.00  0.00    -0.646 OA
HETATM    9  O           1     -21.872  -7.880   1.168  0.00  0.00    -0.646 OA
ENDBRANCH   6   7
BRANCH   6  10
HETATM   10  C           1     -20.759  -8.863  -1.300  0.00  0.00     0.048 C 
BRANCH  10  11
HETATM   11  C           1     -20.846 -10.364  -1.056  0.00  0.00     0.023 C 
BRANCH  11  12
HETATM   12  C           1     -19.664 -11.057  -1.723  0.00  0.00     0.138 C 
BRANCH  12  13
HETATM   13  N           1     -18.755 -10.046  -2.282  0.00  0.00    -0.227 N 
HETATM   14  C           1     -17.537 -10.332  -2.482  0.00  0.00     0.665 C 
HETATM   15  N           1     -17.104 -11.487  -2.201  0.00  0.00    -0.235 N 
HETATM   16  N           1     -16.733  -9.438  -2.976  0.00  0.00    -0.235 N 
HETATM   17  H           1     -17.754 -12.209  -1.801  0.00  0.00     0.174 HD
HETATM   18  H           1     -16.095 -11.724  -2.367  0.00  0.00     0.174 HD
HETATM   19  H           1     -17.091  -8.485  -3.208  0.00  0.00     0.174 HD
HETATM   20  H           1     -15.729  -9.674  -3.141  0.00  0.00     0.174 HD
HETATM   21  H           1     -19.114  -9.088  -2.515  0.00  0.00     0.177 HD
ENDBRANCH  12  13
ENDBRANCH  11  12
ENDBRANCH  10  11
ENDBRANCH   6  10
ENDBRANCH   4   6
ENDBRANCH   3   4
ENDBRANCH   2   3
ENDBRANCH   1   2
BRANCH   1  22
HETATM   22  C           1     -20.275  -8.344  -5.207  0.00  0.00     0.196 C 
HETATM   23  O           1     -19.104  -8.652  -4.899  0.00  0.00    -0.646 OA
HETATM   24  O           1     -21.067  -9.223  -5.611  0.00  0.00    -0.646 OA
ENDBRANCH   1  22
BRANCH   1  25
HETATM   25  N           1     -21.301  -6.482  -6.354  0.00  0.00    -0.345 N 
HETATM   26  C           1     -21.082  -5.209  -6.807  0.00  0.00     0.249 C 
HETATM   27  O           1     -20.415  -4.442  -6.154  0.00  0.00    -0.271 OA
HETATM   28  H           1     -21.860  -7.125  -6.902  0.00  0.00     0.163 HD
BRANCH  26  29
HETATM   29  C           1     -21.673  -4.764  -8.122  0.00  0.00     0.274 C 
BRANCH  29  30
HETATM   30  C           1     -20.566  -4.638  -9.161  0.00  0.00     0.044 C 
BRANCH  30  31
HETATM   31  C           1     -21.008  -3.686 -10.263  0.00  0.00     0.023 C 
BRANCH  31  32
HETATM   32  C           1     -21.906  -4.428 -11.246  0.00  0.00     0.138 C 
BRANCH  32  33
HETATM   33  N           1     -23.068  -3.591 -11.576  0.00  0.00    -0.227 N 
HETATM   34  C           1     -23.170  -3.075 -12.727  0.00  0.00     0.665 C 
HETATM   35  N           1     -22.245  -3.281 -13.616  0.00  0.00    -0.235 N 
HETATM   36  N           1     -24.171  -2.355 -13.011  0.00  0.00    -0.235 N 
HETATM   37  H           1     -22.328  -2.854 -14.566  0.00  0.00     0.174 HD
HETATM   38  H           1     -21.417  -3.875 -13.381  0.00  0.00     0.174 HD
HETATM   39  H           1     -24.256  -1.925 -13.966  0.00  0.00     0.174 HD
HETATM   40  H           1     -24.919  -2.187 -12.292  0.00  0.00     0.174 HD
HETATM   41  H           1     -23.816  -3.424 -10.858  0.00  0.00     0.177 HD
ENDBRANCH  32  33
ENDBRANCH  31  32
ENDBRANCH  30  31
ENDBRANCH  29  30
BRANCH  29  42
HETATM   42  N           1     -22.342  -3.433  -7.943  0.00  0.00    -0.067 N 
HETATM   43  H           1     -22.345  -3.178  -6.930  0.00  0.00     0.275 HD
HETATM   44  H           1     -21.820  -2.706  -8.483  0.00  0.00     0.275 HD
HETATM   45  H           1     -23.325  -3.488  -8.292  0.00  0.00     0.275 HD
ENDBRANCH  29  42
ENDBRANCH  26  29
ENDBRANCH   1  25
TORSDOF 17
ENDMDL
MODEL 9
REMARK VINA RESULT:      -6.2      3.085      9.785
REMARK  17 active torsions:
REMARK  status: ('A' for Active; 'I' for Inactive)
REMARK    1  A    between atoms: C_1  and  C_11 
REMARK    2  A    between atoms: C_1  and  C_7 
REMARK    3  A    between atoms: C_1  and  N_23 
REMARK    4  A    between atoms: C_2  and  C_3 
REMARK    5  A    between atoms: C_2  and  C_38 
REMARK    6  A    between atoms: C_2  and  N_12 
REMARK    7  A    between atoms: C_3  and  C_4 
REMARK    8  A    between atoms: C_4  and  N_5 
REMARK    9  A    between atoms: N_5  and  C_16 
REMARK   10  A    between atoms: C_7  and  C_18 
REMARK       I    between atoms: N_8  and  C_9 
REMARK       I    between atoms: C_9  and  N_10 
REMARK       I    between atoms: C_11  and  N_12 
REMARK   11  A    between atoms: C_15  and  C_16 
REMARK   12  A    between atoms: C_16  and  C_17 
REMARK   13  A    between atoms: C_17  and  C_35 
REMARK   14  A    between atoms: C_18  and  C_28 
REMARK       I    between atoms: N_24  and  C_26 
REMARK       I    between atoms: N_25  and  C_26 
REMARK   15  A    between atoms: N_27  and  C_28 
REMARK   16  A    between atoms: N_33  and  C_34 
REMARK   17  A    between atoms: C_34  and  C_35 
ROOT
HETATM    1  C           1     -20.128  -9.683  -4.238  0.00  0.00     0.187 C 
ENDROOT
BRANCH   1   2
HETATM    2  C           1     -19.382  -9.716  -2.911  0.00  0.00     0.066 C 
BRANCH   2   3
HETATM    3  C           1     -19.974  -8.674  -1.970  0.00  0.00     0.273 C 
BRANCH   3   4
HETATM    4  N           1     -20.687  -9.335  -0.910  0.00  0.00     0.098 N 
HETATM    5  H           1     -20.359  -8.986  -0.010  0.00  0.00     0.317 HD
BRANCH   4   6
HETATM    6  C           1     -22.083  -9.026  -1.065  0.00  0.00     0.320 C 
BRANCH   6   7
HETATM    7  C           1     -22.397  -7.743  -0.335  0.00  0.00     0.207 C 
HETATM    8  O           1     -22.393  -7.717   0.915  0.00  0.00    -0.646 OA
HETATM    9  O           1     -22.663  -6.707  -0.981  0.00  0.00    -0.646 OA
ENDBRANCH   6   7
BRANCH   6  10
HETATM   10  C           1     -22.920 -10.159  -0.483  0.00  0.00     0.048 C 
BRANCH  10  11
HETATM   11  C           1     -22.000 -11.279  -0.013  0.00  0.00     0.023 C 
BRANCH  11  12
HETATM   12  C           1     -22.578 -12.623  -0.438  0.00  0.00     0.138 C 
BRANCH  12  13
HETATM   13  N           1     -22.396 -12.799  -1.886  0.00  0.00    -0.227 N 
HETATM   14  C           1     -22.933 -13.782  -2.477  0.00  0.00     0.665 C 
HETATM   15  N           1     -23.626 -14.613  -1.820  0.00  0.00    -0.235 N 
HETATM   16  N           1     -22.773 -13.937  -3.758  0.00  0.00    -0.235 N 
HETATM   17  H           1     -23.756 -14.488  -0.786  0.00  0.00     0.174 HD
HETATM   18  H           1     -24.071 -15.428  -2.310  0.00  0.00     0.174 HD
HETATM   19  H           1     -22.201 -13.251  -4.299  0.00  0.00     0.174 HD
HETATM   20  H           1     -23.216 -14.748  -4.245  0.00  0.00     0.174 HD
HETATM   21  H           1     -21.822 -12.109  -2.431  0.00  0.00     0.177 HD
ENDBRANCH  12  13
ENDBRANCH  11  12
ENDBRANCH  10  11
ENDBRANCH   6  10
ENDBRANCH   4   6
ENDBRANCH   3   4
ENDBRANCH   2   3
ENDBRANCH   1   2
BRANCH   1  22
HETATM   22  C           1     -21.053 -10.872  -4.326  0.00  0.00     0.196 C 
HETATM   23  O           1     -20.593 -12.003  -4.595  0.00  0.00    -0.646 OA
HETATM   24  O           1     -22.279 -10.726  -4.130  0.00  0.00    -0.646 OA
ENDBRANCH   1  22
BRANCH   1  25
HETATM   25  N           1     -20.903  -8.461  -4.327  0.00  0.00    -0.345 N 
HETATM   26  C           1     -20.600  -7.526  -5.279  0.00  0.00     0.249 C 
HETATM   27  O           1     -19.687  -7.718  -6.046  0.00  0.00    -0.271 OA
HETATM   28  H           1     -21.669  -8.300  -3.685  0.00  0.00     0.163 HD
BRANCH  26  29
HETATM   29  C           1     -21.408  -6.254  -5.371  0.00  0.00     0.274 C 
BRANCH  29  30
HETATM   30  C           1     -20.467  -5.060  -5.464  0.00  0.00     0.044 C 
BRANCH  30  31
HETATM   31  C           1     -20.839  -4.212  -6.673  0.00  0.00     0.023 C 
BRANCH  31  32
HETATM   32  C           1     -21.877  -4.948  -7.510  0.00  0.00     0.138 C 
BRANCH  32  33
HETATM   33  N           1     -23.040  -4.076  -7.728  0.00  0.00    -0.227 N 
HETATM   34  C           1     -23.577  -4.012  -8.873  0.00  0.00     0.665 C 
HETATM   35  N           1     -23.099  -4.716  -9.856  0.00  0.00    -0.235 N 
HETATM   36  N           1     -24.579  -3.261  -9.061  0.00  0.00    -0.235 N 
HETATM   37  H           1     -23.542  -4.663 -10.801  0.00  0.00     0.174 HD
HETATM   38  H           1     -22.272  -5.335  -9.701  0.00  0.00     0.174 HD
HETATM   39  H           1     -25.025  -3.208 -10.010  0.00  0.00     0.174 HD
HETATM   40  H           1     -24.965  -2.692  -8.267  0.00  0.00     0.174 HD
HETATM   41  H           1     -23.426  -3.508  -6.935  0.00  0.00     0.177 HD
ENDBRANCH  32  33
ENDBRANCH  31  32
ENDBRANCH  30  31
ENDBRANCH  29  30
BRANCH  29  42
HETATM   42  N           1     -22.266  -6.119  -4.149  0.00  0.00    -0.067 N 
HETATM   43  H           1     -22.133  -5.170  -3.733  0.00  0.00     0.275 HD
HETATM   44  H           1     -23.270  -6.245  -4.412  0.00  0.00     0.275 HD
HETATM   45  H           1     -21.995  -6.846  -3.450  0.00  0.00     0.275 HD
ENDBRANCH  29  42
ENDBRANCH  26  29
ENDBRANCH   1  25
TORSDOF 17
ENDMDL
