MODEL 1
REMARK VINA RESULT:      -6.4      0.000      0.000
REMARK  8 active torsions:
REMARK  status: ('A' for Active; 'I' for Inactive)
REMARK    1  A    between atoms: O_2  and  C_21 
REMARK    2  A    between atoms: O_2  and  P_3 
REMARK    3  A    between atoms: P_3  and  O_16 
REMARK    4  A    between atoms: N_10  and  C_12 
REMARK    5  A    between atoms: C_12  and  C_13 
REMARK       I    between atoms: C_13  and  N_14 
REMARK    6  A    between atoms: N_14  and  C_20 
REMARK    7  A    between atoms: C_18  and  C_20 
REMARK    8  A    between atoms: C_20  and  C_21 
ROOT
HETATM    1  C           1     -22.754  -3.598  -9.617  0.00  0.00     0.210 C 
ENDROOT
BRANCH   1   2
HETATM    2  N           1     -22.197  -4.653  -8.794  0.00  0.00    -0.343 N 
HETATM    3  H           1     -22.243  -5.615  -9.106  0.00  0.00     0.163 HD
HETATM    4  C           1     -21.606  -4.349  -7.597  0.00  0.00     0.248 C 
HETATM    5  O           1     -21.551  -3.201  -7.226  0.00  0.00    -0.271 OA
BRANCH   4   6
HETATM    6  C           1     -21.026  -5.448  -6.741  0.00  0.00     0.270 C 
HETATM    7  C           1     -20.364  -4.839  -5.512  0.00  0.00     0.050 C 
BRANCH   6   8
HETATM    8  N           1     -20.004  -6.210  -7.532  0.00  0.00    -0.067 N 
HETATM    9  H           1     -19.059  -6.069  -7.108  0.00  0.00     0.275 HD
HETATM   10  H           1     -20.242  -7.227  -7.522  0.00  0.00     0.275 HD
HETATM   11  H           1     -19.999  -5.863  -8.518  0.00  0.00     0.275 HD
ENDBRANCH   6   8
ENDBRANCH   4   6
ENDBRANCH   1   2
BRANCH   1  12
HETATM   12  C           1     -24.254  -3.751  -9.683  0.00  0.00     0.198 C 
HETATM   13  O           1     -24.994  -2.775  -9.433  0.00  0.00    -0.646 OA
HETATM   14  O           1     -24.756  -4.854  -9.988  0.00  0.00    -0.646 OA
ENDBRANCH   1  12
BRANCH   1  15
HETATM   15  C           1     -22.172  -3.689 -11.022  0.00  0.00     0.217 C 
BRANCH  15  16
HETATM   16  O           1     -22.699  -2.660 -11.815  0.00  0.00    -0.287 OA
BRANCH  16  17
HETATM   17  P           1     -23.570  -3.127 -13.092  0.00  0.00     0.406 P 
HETATM   18  O           1     -22.842  -2.789 -14.337  0.00  0.00    -0.624 OA
HETATM   19  O           1     -24.875  -2.429 -13.080  0.00  0.00    -0.624 OA
BRANCH  17  20
HETATM   20  O           1     -23.810  -4.722 -13.026  0.00  0.00    -0.300 OA
HETATM   21  H           1     -23.083  -5.057 -12.530  0.00  0.00     0.223 HD
ENDBRANCH  17  20
ENDBRANCH  16  17
ENDBRANCH  15  16
ENDBRANCH   1  15
TORSDOF 8
ENDMDL
MODEL 2
REMARK VINA RESULT:      -6.4      9.156     11.103
REMARK  8 active torsions:
REMARK  status: ('A' for Active; 'I' for Inactive)
REMARK    1  A    between atoms: O_2  and  C_21 
REMARK    2  A    between atoms: O_2  and  P_3 
REMARK    3  A    between atoms: P_3  and  O_16 
REMARK    4  A    between atoms: N_10  and  C_12 
REMARK    5  A    between atoms: C_12  and  C_13 
REMARK       I    between atoms: C_13  and  N_14 
REMARK    6  A    between atoms: N_14  and  C_20 
REMARK    7  A    between atoms: C_18  and  C_20 
REMARK    8  A    between atoms: C_20  and  C_21 
ROOT
HETATM    1  C           1     -26.376  -6.757 -19.722  0.00  0.00     0.210 C 
ENDROOT
BRANCH   1   2
HETATM    2  N           1     -27.608  -7.305 -19.191  0.00  0.00    -0.343 N 
HETATM    3  H           1     -27.720  -8.307 -19.105  0.00  0.00     0.163 HD
HETATM    4  C           1     -28.620  -6.467 -18.806  0.00  0.00     0.248 C 
HETATM    5  O           1     -28.486  -5.272 -18.909  0.00  0.00    -0.271 OA
BRANCH   4   6
HETATM    6  C           1     -29.903  -7.038 -18.254  0.00  0.00     0.270 C 
HETATM    7  C           1     -30.553  -6.022 -17.324  0.00  0.00     0.050 C 
BRANCH   6   8
HETATM    8  N           1     -29.602  -8.293 -17.488  0.00  0.00    -0.067 N 
HETATM    9  H           1     -30.235  -8.356 -16.659  0.00  0.00     0.275 HD
HETATM   10  H           1     -29.752  -9.123 -18.105  0.00  0.00     0.275 HD
HETATM   11  H           1     -28.608  -8.274 -17.166  0.00  0.00     0.275 HD
ENDBRANCH   6   8
ENDBRANCH   4   6
ENDBRANCH   1   2
BRANCH   1  12
HETATM   12  C           1     -25.908  -7.601 -20.882  0.00  0.00     0.198 C 
HETATM   13  O           1     -24.788  -7.393 -21.396  0.00  0.00    -0.646 OA
HETATM   14  O           1     -26.642  -8.509 -21.330  0.00  0.00    -0.646 OA
ENDBRANCH   1  12
BRANCH   1  15
HETATM   15  C           1     -25.311  -6.756 -18.633  0.00  0.00     0.217 C 
BRANCH  15  16
HETATM   16  O           1     -25.801  -6.090 -17.501  0.00  0.00    -0.287 OA
BRANCH  16  17
HETATM   17  P           1     -25.397  -6.727 -16.074  0.00  0.00     0.406 P 
HETATM   18  O           1     -26.575  -7.400 -15.481  0.00  0.00    -0.624 OA
HETATM   19  O           1     -24.935  -5.652 -15.167  0.00  0.00    -0.624 OA
BRANCH  17  20
HETATM   20  O           1     -24.211  -7.803 -16.282  0.00  0.00    -0.300 OA
HETATM   21  H           1     -24.631  -8.644 -16.220  0.00  0.00     0.223 HD
ENDBRANCH  17  20
ENDBRANCH  16  17
ENDBRANCH  15  16
ENDBRANCH   1  15
TORSDOF 8
ENDMDL
MODEL 3
REMARK VINA RESULT:      -5.7      8.894     10.984
REMARK  8 active torsions:
REMARK  status: ('A' for Active; 'I' for Inactive)
REMARK    1  A    between atoms: O_2  and  C_21 
REMARK    2  A    between atoms: O_2  and  P_3 
REMARK    3  A    between atoms: P_3  and  O_16 
REMARK    4  A    between atoms: N_10  and  C_12 
REMARK    5  A    between atoms: C_12  and  C_13 
REMARK       I    between atoms: C_13  and  N_14 
REMARK    6  A    between atoms: N_14  and  C_20 
REMARK    7  A    between atoms: C_18  and  C_20 
REMARK    8  A    between atoms: C_20  and  C_21 
ROOT
HETATM    1  C           1     -29.152  -7.142 -16.884  0.00  0.00     0.210 C 
ENDROOT
BRANCH   1   2
HETATM    2  N           1     -28.432  -6.946 -18.127  0.00  0.00    -0.343 N 
HETATM    3  H           1     -27.758  -6.195 -18.207  0.00  0.00     0.163 HD
HETATM    4  C           1     -28.661  -7.778 -19.190  0.00  0.00     0.248 C 
HETATM    5  O           1     -29.464  -8.674 -19.094  0.00  0.00    -0.271 OA
BRANCH   4   6
HETATM    6  C           1     -27.911  -7.573 -20.483  0.00  0.00     0.270 C 
HETATM    7  C           1     -27.788  -8.903 -21.216  0.00  0.00     0.050 C 
BRANCH   6   8
HETATM    8  N           1     -26.540  -7.040 -20.186  0.00  0.00    -0.067 N 
HETATM    9  H           1     -26.307  -7.216 -19.182  0.00  0.00     0.275 HD
HETATM   10  H           1     -25.840  -7.518 -20.795  0.00  0.00     0.275 HD
HETATM   11  H           1     -26.520  -6.011 -20.373  0.00  0.00     0.275 HD
ENDBRANCH   6   8
ENDBRANCH   4   6
ENDBRANCH   1   2
BRANCH   1  12
HETATM   12  C           1     -30.377  -6.261 -16.869  0.00  0.00     0.198 C 
HETATM   13  O           1     -31.441  -6.660 -17.390  0.00  0.00    -0.646 OA
HETATM   14  O           1     -30.328  -5.132 -16.334  0.00  0.00    -0.646 OA
ENDBRANCH   1  12
BRANCH   1  15
HETATM   15  C           1     -28.249  -6.778 -15.712  0.00  0.00     0.217 C 
BRANCH  15  16
HETATM   16  O           1     -27.277  -5.862 -16.138  0.00  0.00    -0.287 OA
BRANCH  16  17
HETATM   17  P           1     -25.752  -6.394 -16.130  0.00  0.00     0.406 P 
HETATM   18  O           1     -25.278  -6.556 -17.523  0.00  0.00    -0.624 OA
HETATM   19  O           1     -25.689  -7.698 -15.433  0.00  0.00    -0.624 OA
BRANCH  17  20
HETATM   20  O           1     -24.815  -5.326 -15.362  0.00  0.00    -0.300 OA
HETATM   21  H           1     -25.245  -4.496 -15.480  0.00  0.00     0.223 HD
ENDBRANCH  17  20
ENDBRANCH  16  17
ENDBRANCH  15  16
ENDBRANCH   1  15
TORSDOF 8
ENDMDL
MODEL 4
REMARK VINA RESULT:      -5.6      8.509     10.552
REMARK  8 active torsions:
REMARK  status: ('A' for Active; 'I' for Inactive)
REMARK    1  A    between atoms: O_2  and  C_21 
REMARK    2  A    between atoms: O_2  and  P_3 
REMARK    3  A    between atoms: P_3  and  O_16 
REMARK    4  A    between atoms: N_10  and  C_12 
REMARK    5  A    between atoms: C_12  and  C_13 
REMARK       I    between atoms: C_13  and  N_14 
REMARK    6  A    between atoms: N_14  and  C_20 
REMARK    7  A    between atoms: C_18  and  C_20 
REMARK    8  A    between atoms: C_20  and  C_21 
ROOT
HETATM    1  C           1     -26.388  -6.289 -17.044  0.00  0.00     0.210 C 
ENDROOT
BRANCH   1   2
HETATM    2  N           1     -25.650  -6.852 -18.157  0.00  0.00    -0.343 N 
HETATM    3  H           1     -24.813  -7.394 -17.986  0.00  0.00     0.163 HD
HETATM    4  C           1     -26.087  -6.653 -19.440  0.00  0.00     0.248 C 
HETATM    5  O           1     -27.086  -6.007 -19.644  0.00  0.00    -0.271 OA
BRANCH   4   6
HETATM    6  C           1     -25.318  -7.239 -20.598  0.00  0.00     0.270 C 
HETATM    7  C           1     -26.174  -8.285 -21.299  0.00  0.00     0.050 C 
BRANCH   6   8
HETATM    8  N           1     -24.062  -7.883 -20.088  0.00  0.00    -0.067 N 
HETATM    9  H           1     -23.260  -7.222 -20.202  0.00  0.00     0.275 HD
HETATM   10  H           1     -24.177  -8.120 -19.077  0.00  0.00     0.275 HD
HETATM   11  H           1     -23.874  -8.756 -20.631  0.00  0.00     0.275 HD
ENDBRANCH   6   8
ENDBRANCH   4   6
ENDBRANCH   1   2
BRANCH   1  12
HETATM   12  C           1     -25.552  -6.373 -15.792  0.00  0.00     0.198 C 
HETATM   13  O           1     -24.904  -5.377 -15.404  0.00  0.00    -0.646 OA
HETATM   14  O           1     -25.506  -7.440 -15.141  0.00  0.00    -0.646 OA
ENDBRANCH   1  12
BRANCH   1  15
HETATM   15  C           1     -27.681  -7.070 -16.845  0.00  0.00     0.217 C 
BRANCH  15  16
HETATM   16  O           1     -28.700  -6.195 -16.446  0.00  0.00    -0.287 OA
BRANCH  16  17
HETATM   17  P           1     -30.030  -6.192 -17.362  0.00  0.00     0.406 P 
HETATM   18  O           1     -30.211  -7.526 -17.976  0.00  0.00    -0.624 OA
HETATM   19  O           1     -29.892  -5.173 -18.427  0.00  0.00    -0.624 OA
BRANCH  17  20
HETATM   20  O           1     -31.313  -5.843 -16.445  0.00  0.00    -0.300 OA
HETATM   21  H           1     -31.128  -4.995 -16.079  0.00  0.00     0.223 HD
ENDBRANCH  17  20
ENDBRANCH  16  17
ENDBRANCH  15  16
ENDBRANCH   1  15
TORSDOF 8
ENDMDL
MODEL 5
REMARK VINA RESULT:      -5.6      2.325      3.335
REMARK  8 active torsions:
REMARK  status: ('A' for Active; 'I' for Inactive)
REMARK    1  A    between atoms: O_2  and  C_21 
REMARK    2  A    between atoms: O_2  and  P_3 
REMARK    3  A    between atoms: P_3  and  O_16 
REMARK    4  A    between atoms: N_10  and  C_12 
REMARK    5  A    between atoms: C_12  and  C_13 
REMARK       I    between atoms: C_13  and  N_14 
REMARK    6  A    between atoms: N_14  and  C_20 
REMARK    7  A    between atoms: C_18  and  C_20 
REMARK    8  A    between atoms: C_20  and  C_21 
ROOT
HETATM    1  C           1     -21.593  -4.923  -8.248  0.00  0.00     0.210 C 
ENDROOT
BRANCH   1   2
HETATM    2  N           1     -21.476  -4.983  -6.804  0.00  0.00    -0.343 N 
HETATM    3  H           1     -21.578  -4.140  -6.254  0.00  0.00     0.163 HD
HETATM    4  C           1     -21.229  -6.179  -6.186  0.00  0.00     0.248 C 
HETATM    5  O           1     -21.107  -7.185  -6.844  0.00  0.00    -0.271 OA
BRANCH   4   6
HETATM    6  C           1     -21.107  -6.241  -4.684  0.00  0.00     0.270 C 
HETATM    7  C           1     -20.521  -7.587  -4.276  0.00  0.00     0.050 C 
BRANCH   6   8
HETATM    8  N           1     -22.465  -6.081  -4.066  0.00  0.00    -0.067 N 
HETATM    9  H           1     -23.107  -5.618  -4.749  0.00  0.00     0.275 HD
HETATM   10  H           1     -22.846  -7.021  -3.813  0.00  0.00     0.275 HD
HETATM   11  H           1     -22.388  -5.494  -3.205  0.00  0.00     0.275 HD
ENDBRANCH   6   8
ENDBRANCH   4   6
ENDBRANCH   1   2
BRANCH   1  12
HETATM   12  C           1     -20.278  -4.481  -8.841  0.00  0.00     0.198 C 
HETATM   13  O           1     -20.025  -4.711 -10.043  0.00  0.00    -0.646 OA
HETATM   14  O           1     -19.441  -3.884  -8.129  0.00  0.00    -0.646 OA
ENDBRANCH   1  12
BRANCH   1  15
HETATM   15  C           1     -22.682  -3.927  -8.627  0.00  0.00     0.217 C 
BRANCH  15  16
HETATM   16  O           1     -23.581  -4.533  -9.516  0.00  0.00    -0.287 OA
BRANCH  16  17
HETATM   17  P           1     -23.666  -3.881 -10.991  0.00  0.00     0.406 P 
HETATM   18  O           1     -22.565  -2.907 -11.166  0.00  0.00    -0.624 OA
HETATM   19  O           1     -24.966  -3.188 -11.148  0.00  0.00    -0.624 OA
BRANCH  17  20
HETATM   20  O           1     -23.538  -5.045 -12.102  0.00  0.00    -0.300 OA
HETATM   21  H           1     -24.126  -4.789 -12.792  0.00  0.00     0.223 HD
ENDBRANCH  17  20
ENDBRANCH  16  17
ENDBRANCH  15  16
ENDBRANCH   1  15
TORSDOF 8
ENDMDL
MODEL 6
REMARK VINA RESULT:      -5.5      9.315     10.581
REMARK  8 active torsions:
REMARK  status: ('A' for Active; 'I' for Inactive)
REMARK    1  A    between atoms: O_2  and  C_21 
REMARK    2  A    between atoms: O_2  and  P_3 
REMARK    3  A    between atoms: P_3  and  O_16 
REMARK    4  A    between atoms: N_10  and  C_12 
REMARK    5  A    between atoms: C_12  and  C_13 
REMARK       I    between atoms: C_13  and  N_14 
REMARK    6  A    between atoms: N_14  and  C_20 
REMARK    7  A    between atoms: C_18  and  C_20 
REMARK    8  A    between atoms: C_20  and  C_21 
ROOT
HETATM    1  C           1     -28.546  -6.419 -17.399  0.00  0.00     0.210 C 
ENDROOT
BRANCH   1   2
HETATM    2  N           1     -27.452  -6.708 -18.305  0.00  0.00    -0.343 N 
HETATM    3  H           1     -27.631  -7.189 -19.177  0.00  0.00     0.163 HD
HETATM    4  C           1     -26.176  -6.330 -17.982  0.00  0.00     0.248 C 
HETATM    5  O           1     -25.963  -5.755 -16.941  0.00  0.00    -0.271 OA
BRANCH   4   6
HETATM    6  C           1     -25.038  -6.632 -18.924  0.00  0.00     0.270 C 
HETATM    7  C           1     -25.590  -7.219 -20.217  0.00  0.00     0.050 C 
BRANCH   6   8
HETATM    8  N           1     -24.109  -7.621 -18.284  0.00  0.00    -0.067 N 
HETATM    9  H           1     -24.188  -7.551 -17.244  0.00  0.00     0.275 HD
HETATM   10  H           1     -24.365  -8.587 -18.588  0.00  0.00     0.275 HD
HETATM   11  H           1     -23.127  -7.414 -18.574  0.00  0.00     0.275 HD
ENDBRANCH   6   8
ENDBRANCH   4   6
ENDBRANCH   1   2
BRANCH   1  12
HETATM   12  C           1     -28.704  -7.556 -16.421  0.00  0.00     0.198 C 
HETATM   13  O           1     -28.161  -7.494 -15.297  0.00  0.00    -0.646 OA
HETATM   14  O           1     -29.379  -8.561 -16.735  0.00  0.00    -0.646 OA
ENDBRANCH   1  12
BRANCH   1  15
HETATM   15  C           1     -29.833  -6.252 -18.197  0.00  0.00     0.217 C 
BRANCH  15  16
HETATM   16  O           1     -30.287  -4.930 -18.081  0.00  0.00    -0.287 OA
BRANCH  16  17
HETATM   17  P           1     -31.475  -4.681 -17.016  0.00  0.00     0.406 P 
HETATM   18  O           1     -32.125  -3.380 -17.295  0.00  0.00    -0.624 OA
HETATM   19  O           1     -30.913  -4.667 -15.646  0.00  0.00    -0.624 OA
BRANCH  17  20
HETATM   20  O           1     -32.566  -5.865 -17.139  0.00  0.00    -0.300 OA
HETATM   21  H           1     -32.232  -6.434 -17.811  0.00  0.00     0.223 HD
ENDBRANCH  17  20
ENDBRANCH  16  17
ENDBRANCH  15  16
ENDBRANCH   1  15
TORSDOF 8
ENDMDL
MODEL 7
REMARK VINA RESULT:      -5.3      3.201      5.967
REMARK  8 active torsions:
REMARK  status: ('A' for Active; 'I' for Inactive)
REMARK    1  A    between atoms: O_2  and  C_21 
REMARK    2  A    between atoms: O_2  and  P_3 
REMARK    3  A    between atoms: P_3  and  O_16 
REMARK    4  A    between atoms: N_10  and  C_12 
REMARK    5  A    between atoms: C_12  and  C_13 
REMARK       I    between atoms: C_13  and  N_14 
REMARK    6  A    between atoms: N_14  and  C_20 
REMARK    7  A    between atoms: C_18  and  C_20 
REMARK    8  A    between atoms: C_20  and  C_21 
ROOT
HETATM    1  C           1     -22.357  -4.220  -9.658  0.00  0.00     0.210 C 
ENDROOT
BRANCH   1   2
HETATM    2  N           1     -22.429  -3.276 -10.756  0.00  0.00    -0.343 N 
HETATM    3  H           1     -22.067  -2.338 -10.640  0.00  0.00     0.163 HD
HETATM    4  C           1     -22.985  -3.653 -11.949  0.00  0.00     0.248 C 
HETATM    5  O           1     -23.417  -4.773 -12.086  0.00  0.00    -0.271 OA
BRANCH   4   6
HETATM    6  C           1     -23.061  -2.670 -13.090  0.00  0.00     0.270 C 
HETATM    7  C           1     -24.520  -2.389 -13.425  0.00  0.00     0.050 C 
BRANCH   6   8
HETATM    8  N           1     -22.376  -3.249 -14.293  0.00  0.00    -0.067 N 
HETATM    9  H           1     -22.490  -4.288 -14.293  0.00  0.00     0.275 HD
HETATM   10  H           1     -22.802  -2.852 -15.161  0.00  0.00     0.275 HD
HETATM   11  H           1     -21.359  -3.009 -14.264  0.00  0.00     0.275 HD
ENDBRANCH   6   8
ENDBRANCH   4   6
ENDBRANCH   1   2
BRANCH   1  12
HETATM   12  C           1     -23.507  -3.980  -8.712  0.00  0.00     0.198 C 
HETATM   13  O           1     -23.424  -4.351  -7.521  0.00  0.00    -0.646 OA
HETATM   14  O           1     -24.542  -3.410  -9.118  0.00  0.00    -0.646 OA
ENDBRANCH   1  12
BRANCH   1  15
HETATM   15  C           1     -21.040  -4.034  -8.916  0.00  0.00     0.217 C 
BRANCH  15  16
HETATM   16  O           1     -20.509  -5.288  -8.584  0.00  0.00    -0.287 OA
BRANCH  16  17
HETATM   17  P           1     -19.905  -5.429  -7.093  0.00  0.00     0.406 P 
HETATM   18  O           1     -18.661  -4.633  -6.985  0.00  0.00    -0.624 OA
HETATM   19  O           1     -19.604  -6.852  -6.816  0.00  0.00    -0.624 OA
BRANCH  17  20
HETATM   20  O           1     -20.985  -4.888  -6.021  0.00  0.00    -0.300 OA
HETATM   21  H           1     -21.268  -4.056  -6.361  0.00  0.00     0.223 HD
ENDBRANCH  17  20
ENDBRANCH  16  17
ENDBRANCH  15  16
ENDBRANCH   1  15
TORSDOF 8
ENDMDL
MODEL 8
REMARK VINA RESULT:      -5.2      8.556     10.145
REMARK  8 active torsions:
REMARK  status: ('A' for Active; 'I' for Inactive)
REMARK    1  A    between atoms: O_2  and  C_21 
REMARK    2  A    between atoms: O_2  and  P_3 
REMARK    3  A    between atoms: P_3  and  O_16 
REMARK    4  A    between atoms: N_10  and  C_12 
REMARK    5  A    between atoms: C_12  and  C_13 
REMARK       I    between atoms: C_13  and  N_14 
REMARK    6  A    between atoms: N_14  and  C_20 
REMARK    7  A    between atoms: C_18  and  C_20 
REMARK    8  A    between atoms: C_20  and  C_21 
ROOT
HETATM    1  C           1     -27.543  -5.990 -18.869  0.00  0.00     0.210 C 
ENDROOT
BRANCH   1   2
HETATM    2  N           1     -26.519  -6.641 -18.076  0.00  0.00    -0.343 N 
HETATM    3  H           1     -25.838  -7.241 -18.525  0.00  0.00     0.163 HD
HETATM    4  C           1     -26.471  -6.443 -16.723  0.00  0.00     0.248 C 
HETATM    5  O           1     -27.284  -5.727 -16.188  0.00  0.00    -0.271 OA
BRANCH   4   6
HETATM    6  C           1     -25.405  -7.121 -15.898  0.00  0.00     0.270 C 
HETATM    7  C           1     -24.824  -6.127 -14.901  0.00  0.00     0.050 C 
BRANCH   6   8
HETATM    8  N           1     -24.315  -7.616 -16.802  0.00  0.00    -0.067 N 
HETATM    9  H           1     -23.464  -7.020 -16.680  0.00  0.00     0.275 HD
HETATM   10  H           1     -24.084  -8.606 -16.561  0.00  0.00     0.275 HD
HETATM   11  H           1     -24.636  -7.564 -17.795  0.00  0.00     0.275 HD
ENDBRANCH   6   8
ENDBRANCH   4   6
ENDBRANCH   1   2
BRANCH   1  12
HETATM   12  C           1     -28.899  -6.518 -18.471  0.00  0.00     0.198 C 
HETATM   13  O           1     -29.772  -5.735 -18.037  0.00  0.00    -0.646 OA
HETATM   14  O           1     -29.150  -7.738 -18.575  0.00  0.00    -0.646 OA
ENDBRANCH   1  12
BRANCH   1  15
HETATM   15  C           1     -27.300  -6.277 -20.346  0.00  0.00     0.217 C 
BRANCH  15  16
HETATM   16  O           1     -25.926  -6.204 -20.616  0.00  0.00    -0.287 OA
BRANCH  16  17
HETATM   17  P           1     -25.211  -7.592 -21.029  0.00  0.00     0.406 P 
HETATM   18  O           1     -24.331  -7.366 -22.197  0.00  0.00    -0.624 OA
HETATM   19  O           1     -26.244  -8.594 -21.376  0.00  0.00    -0.624 OA
BRANCH  17  20
HETATM   20  O           1     -24.331  -8.133 -19.788  0.00  0.00    -0.300 OA
HETATM   21  H           1     -24.781  -8.904 -19.488  0.00  0.00     0.223 HD
ENDBRANCH  17  20
ENDBRANCH  16  17
ENDBRANCH  15  16
ENDBRANCH   1  15
TORSDOF 8
ENDMDL
MODEL 9
REMARK VINA RESULT:      -5.1      6.533      8.930
REMARK  8 active torsions:
REMARK  status: ('A' for Active; 'I' for Inactive)
REMARK    1  A    between atoms: O_2  and  C_21 
REMARK    2  A    between atoms: O_2  and  P_3 
REMARK    3  A    between atoms: P_3  and  O_16 
REMARK    4  A    between atoms: N_10  and  C_12 
REMARK    5  A    between atoms: C_12  and  C_13 
REMARK       I    between atoms: C_13  and  N_14 
REMARK    6  A    between atoms: N_14  and  C_20 
REMARK    7  A    between atoms: C_18  and  C_20 
REMARK    8  A    between atoms: C_20  and  C_21 
ROOT
HETATM    1  C           1     -25.568  -6.173 -16.086  0.00  0.00     0.210 C 
ENDROOT
BRANCH   1   2
HETATM    2  N           1     -26.907  -6.693 -15.891  0.00  0.00    -0.343 N 
HETATM    3  H           1     -27.132  -7.206 -15.049  0.00  0.00     0.163 HD
HETATM    4  C           1     -27.867  -6.488 -16.845  0.00  0.00     0.248 C 
HETATM    5  O           1     -27.598  -5.875 -17.850  0.00  0.00    -0.271 OA
BRANCH   4   6
HETATM    6  C           1     -29.260  -7.030 -16.642  0.00  0.00     0.270 C 
HETATM    7  C           1     -29.848  -7.440 -17.986  0.00  0.00     0.050 C 
BRANCH   6   8
HETATM    8  N           1     -30.123  -5.970 -16.024  0.00  0.00    -0.067 N 
HETATM    9  H           1     -30.703  -6.391 -15.263  0.00  0.00     0.275 HD
HETATM   10  H           1     -29.518  -5.218 -15.624  0.00  0.00     0.275 HD
HETATM   11  H           1     -30.749  -5.561 -16.754  0.00  0.00     0.275 HD
ENDBRANCH   6   8
ENDBRANCH   4   6
ENDBRANCH   1   2
BRANCH   1  12
HETATM   12  C           1     -24.720  -7.212 -16.777  0.00  0.00     0.198 C 
HETATM   13  O           1     -24.331  -8.220 -16.149  0.00  0.00    -0.646 OA
HETATM   14  O           1     -24.407  -7.065 -17.978  0.00  0.00    -0.646 OA
ENDBRANCH   1  12
BRANCH   1  15
HETATM   15  C           1     -24.954  -5.834 -14.733  0.00  0.00     0.217 C 
BRANCH  15  16
HETATM   16  O           1     -24.378  -4.557 -14.788  0.00  0.00    -0.287 OA
BRANCH  16  17
HETATM   17  P           1     -23.980  -3.898 -13.369  0.00  0.00     0.406 P 
HETATM   18  O           1     -25.133  -3.140 -12.834  0.00  0.00    -0.624 OA
HETATM   19  O           1     -22.832  -2.982 -13.556  0.00  0.00    -0.624 OA
BRANCH  17  20
HETATM   20  O           1     -23.574  -5.066 -12.329  0.00  0.00    -0.300 OA
HETATM   21  H           1     -23.624  -5.863 -12.828  0.00  0.00     0.223 HD
ENDBRANCH  17  20
ENDBRANCH  16  17
ENDBRANCH  15  16
ENDBRANCH   1  15
TORSDOF 8
ENDMDL
