MODEL 1
REMARK VINA RESULT:      -6.4      0.000      0.000
REMARK  10 active torsions:
REMARK  status: ('A' for Active; 'I' for Inactive)
REMARK    1  A    between atoms: C_4  and  C_23 
REMARK    2  A    between atoms: N_11  and  C_14 
REMARK    3  A    between atoms: Se_12  and  C_13 
REMARK    4  A    between atoms: C_13  and  C_14 
REMARK    5  A    between atoms: C_14  and  C_15 
REMARK       I    between atoms: C_15  and  N_16 
REMARK    6  A    between atoms: N_16  and  C_23 
REMARK    7  A    between atoms: O_18  and  P_20 
REMARK    8  A    between atoms: P_20  and  O_21 
REMARK    9  A    between atoms: O_21  and  C_22 
REMARK   10  A    between atoms: C_22  and  C_23 
ROOT
HETATM    1  H           1     -35.351  -2.088 -13.768  0.00  0.00     0.163 HD
HETATM    2  O           1     -33.654  -2.308 -11.138  0.00  0.00    -0.271 OA
HETATM    3  C           1     -34.199  -2.676 -12.152  0.00  0.00     0.249 C 
HETATM    4  N           1     -34.895  -1.779 -12.919  0.00  0.00    -0.343 N 
ENDROOT
BRANCH   4   5
HETATM    5  C           1     -34.978  -0.390 -12.513  0.00  0.00     0.210 C 
BRANCH   5   6
HETATM    6  C           1     -36.228  -0.181 -11.693  0.00  0.00     0.198 C 
HETATM    7  O           1     -37.301  -0.717 -12.043  0.00  0.00    -0.646 OA
HETATM    8  O           1     -36.189   0.529 -10.665  0.00  0.00    -0.646 OA
ENDBRANCH   5   6
BRANCH   5   9
HETATM    9  C           1     -35.028   0.497 -13.750  0.00  0.00     0.217 C 
BRANCH   9  10
HETATM   10  O           1     -35.072  -0.305 -14.900  0.00  0.00    -0.287 OA
BRANCH  10  11
HETATM   11  P           1     -36.360  -0.106 -15.853  0.00  0.00     0.406 P 
HETATM   12  O           1     -37.552  -0.691 -15.198  0.00  0.00    -0.624 OA
HETATM   13  O           1     -36.585   1.338 -16.086  0.00  0.00    -0.624 OA
BRANCH  11  14
HETATM   14  O           1     -36.103  -0.844 -17.266  0.00  0.00    -0.300 OA
HETATM   15  H           1     -36.724  -1.552 -17.288  0.00  0.00     0.223 HD
ENDBRANCH  11  14
ENDBRANCH  10  11
ENDBRANCH   9  10
ENDBRANCH   5   9
ENDBRANCH   4   5
BRANCH   3  16
HETATM   16  C           1     -34.111  -4.122 -12.574  0.00  0.00     0.274 C 
BRANCH  16  17
HETATM   17  N           1     -33.529  -4.205 -13.953  0.00  0.00    -0.067 N 
HETATM   18  H           1     -34.207  -4.683 -14.589  0.00  0.00     0.275 HD
HETATM   19  H           1     -32.636  -4.748 -13.922  0.00  0.00     0.275 HD
HETATM   20  H           1     -33.337  -3.241 -14.309  0.00  0.00     0.275 HD
ENDBRANCH  16  17
BRANCH  16  21
HETATM   21  C           1     -33.222  -4.883 -11.600  0.00  0.00     0.045 C 
BRANCH  21  22
HETATM   22 Se           1     -34.297  -6.174 -10.612  0.00  0.00     0.000 Se
HETATM   23  H           1     -34.066  -7.271 -11.566  0.00  0.00     0.000 HD
ENDBRANCH  21  22
ENDBRANCH  16  21
ENDBRANCH   3  16
TORSDOF 10
ENDMDL
MODEL 2
REMARK VINA RESULT:      -6.2     10.286     12.179
REMARK  10 active torsions:
REMARK  status: ('A' for Active; 'I' for Inactive)
REMARK    1  A    between atoms: C_4  and  C_23 
REMARK    2  A    between atoms: N_11  and  C_14 
REMARK    3  A    between atoms: Se_12  and  C_13 
REMARK    4  A    between atoms: C_13  and  C_14 
REMARK    5  A    between atoms: C_14  and  C_15 
REMARK       I    between atoms: C_15  and  N_16 
REMARK    6  A    between atoms: N_16  and  C_23 
REMARK    7  A    between atoms: O_18  and  P_20 
REMARK    8  A    between atoms: P_20  and  O_21 
REMARK    9  A    between atoms: O_21  and  C_22 
REMARK   10  A    between atoms: C_22  and  C_23 
ROOT
HETATM    1  H           1     -27.719  -8.252 -19.170  0.00  0.00     0.163 HD
HETATM    2  O           1     -28.353  -5.185 -18.996  0.00  0.00    -0.271 OA
HETATM    3  C           1     -28.544  -6.374 -18.899  0.00  0.00     0.249 C 
HETATM    4  N           1     -27.558  -7.256 -19.253  0.00  0.00    -0.343 N 
ENDROOT
BRANCH   4   5
HETATM    5  C           1     -26.287  -6.764 -19.744  0.00  0.00     0.210 C 
BRANCH   5   6
HETATM    6  C           1     -25.814  -7.640 -20.879  0.00  0.00     0.198 C 
HETATM    7  O           1     -26.571  -8.516 -21.348  0.00  0.00    -0.646 OA
HETATM    8  O           1     -24.666  -7.488 -21.349  0.00  0.00    -0.646 OA
ENDBRANCH   5   6
BRANCH   5   9
HETATM    9  C           1     -25.262  -6.795 -18.617  0.00  0.00     0.217 C 
BRANCH   9  10
HETATM   10  O           1     -25.777  -6.127 -17.497  0.00  0.00    -0.287 OA
BRANCH  10  11
HETATM   11  P           1     -25.377  -6.743 -16.060  0.00  0.00     0.406 P 
HETATM   12  O           1     -24.934  -5.652 -15.163  0.00  0.00    -0.624 OA
HETATM   13  O           1     -26.553  -7.420 -15.468  0.00  0.00    -0.624 OA
BRANCH  11  14
HETATM   14  O           1     -24.179  -7.809 -16.244  0.00  0.00    -0.300 OA
HETATM   15  H           1     -23.467  -7.468 -15.731  0.00  0.00     0.223 HD
ENDBRANCH  11  14
ENDBRANCH  10  11
ENDBRANCH   9  10
ENDBRANCH   5   9
ENDBRANCH   4   5
BRANCH   3  16
HETATM   16  C           1     -29.868  -6.886 -18.387  0.00  0.00     0.274 C 
BRANCH  16  17
HETATM   17  N           1     -29.879  -8.384 -18.443  0.00  0.00    -0.067 N 
HETATM   18  H           1     -29.844  -8.768 -17.472  0.00  0.00     0.275 HD
HETATM   19  H           1     -29.049  -8.719 -18.982  0.00  0.00     0.275 HD
HETATM   20  H           1     -30.754  -8.708 -18.914  0.00  0.00     0.275 HD
ENDBRANCH  16  17
BRANCH  16  21
HETATM   21  C           1     -30.068  -6.429 -16.948  0.00  0.00     0.045 C 
BRANCH  21  22
HETATM   22 Se           1     -31.433  -5.038 -16.892  0.00  0.00     0.000 Se
HETATM   23  H           1     -32.561  -5.983 -16.878  0.00  0.00     0.000 HD
ENDBRANCH  21  22
ENDBRANCH  16  21
ENDBRANCH   3  16
TORSDOF 10
ENDMDL
MODEL 3
REMARK VINA RESULT:      -6.1      3.449      4.927
REMARK  10 active torsions:
REMARK  status: ('A' for Active; 'I' for Inactive)
REMARK    1  A    between atoms: C_4  and  C_23 
REMARK    2  A    between atoms: N_11  and  C_14 
REMARK    3  A    between atoms: Se_12  and  C_13 
REMARK    4  A    between atoms: C_13  and  C_14 
REMARK    5  A    between atoms: C_14  and  C_15 
REMARK       I    between atoms: C_15  and  N_16 
REMARK    6  A    between atoms: N_16  and  C_23 
REMARK    7  A    between atoms: O_18  and  P_20 
REMARK    8  A    between atoms: P_20  and  O_21 
REMARK    9  A    between atoms: O_21  and  C_22 
REMARK   10  A    between atoms: C_22  and  C_23 
ROOT
HETATM    1  H           1     -35.205   0.548 -12.003  0.00  0.00     0.163 HD
HETATM    2  O           1     -37.573  -0.777 -13.577  0.00  0.00    -0.271 OA
HETATM    3  C           1     -36.593  -0.094 -13.397  0.00  0.00     0.249 C 
HETATM    4  N           1     -36.026  -0.024 -12.152  0.00  0.00    -0.343 N 
ENDROOT
BRANCH   4   5
HETATM    5  C           1     -36.603  -0.769 -11.051  0.00  0.00     0.210 C 
BRANCH   5   6
HETATM    6  C           1     -36.923   0.177  -9.918  0.00  0.00     0.198 C 
HETATM    7  O           1     -36.280   0.110  -8.849  0.00  0.00    -0.646 OA
HETATM    8  O           1     -37.830   1.026 -10.050  0.00  0.00    -0.646 OA
ENDBRANCH   5   6
BRANCH   5   9
HETATM    9  C           1     -35.608  -1.817 -10.572  0.00  0.00     0.217 C 
BRANCH   9  10
HETATM   10  O           1     -35.750  -2.983 -11.337  0.00  0.00    -0.287 OA
BRANCH  10  11
HETATM   11  P           1     -34.488  -3.385 -12.258  0.00  0.00     0.406 P 
HETATM   12  O           1     -34.547  -2.632 -13.532  0.00  0.00    -0.624 OA
HETATM   13  O           1     -33.232  -3.053 -11.549  0.00  0.00    -0.624 OA
BRANCH  11  14
HETATM   14  O           1     -34.528  -4.969 -12.566  0.00  0.00    -0.300 OA
HETATM   15  H           1     -34.770  -5.371 -11.749  0.00  0.00     0.223 HD
ENDBRANCH  11  14
ENDBRANCH  10  11
ENDBRANCH   9  10
ENDBRANCH   5   9
ENDBRANCH   4   5
BRANCH   3  16
HETATM   16  C           1     -35.992   0.681 -14.544  0.00  0.00     0.274 C 
BRANCH  16  17
HETATM   17  N           1     -34.541   0.330 -14.678  0.00  0.00    -0.067 N 
HETATM   18  H           1     -34.167   0.730 -15.569  0.00  0.00     0.275 HD
HETATM   19  H           1     -34.433  -0.709 -14.689  0.00  0.00     0.275 HD
HETATM   20  H           1     -34.011   0.726 -13.869  0.00  0.00     0.275 HD
ENDBRANCH  16  17
BRANCH  16  21
HETATM   21  C           1     -36.722   0.327 -15.834  0.00  0.00     0.045 C 
BRANCH  21  22
HETATM   22 Se           1     -35.810  -1.156 -16.710  0.00  0.00     0.000 Se
HETATM   23  H           1     -36.778  -1.250 -17.815  0.00  0.00     0.000 HD
ENDBRANCH  21  22
ENDBRANCH  16  21
ENDBRANCH   3  16
TORSDOF 10
ENDMDL
MODEL 4
REMARK VINA RESULT:      -5.3     13.568     15.581
REMARK  10 active torsions:
REMARK  status: ('A' for Active; 'I' for Inactive)
REMARK    1  A    between atoms: C_4  and  C_23 
REMARK    2  A    between atoms: N_11  and  C_14 
REMARK    3  A    between atoms: Se_12  and  C_13 
REMARK    4  A    between atoms: C_13  and  C_14 
REMARK    5  A    between atoms: C_14  and  C_15 
REMARK       I    between atoms: C_15  and  N_16 
REMARK    6  A    between atoms: N_16  and  C_23 
REMARK    7  A    between atoms: O_18  and  P_20 
REMARK    8  A    between atoms: P_20  and  O_21 
REMARK    9  A    between atoms: O_21  and  C_22 
REMARK   10  A    between atoms: C_22  and  C_23 
ROOT
HETATM    1  H           1     -20.960  -4.412  -5.498  0.00  0.00     0.163 HD
HETATM    2  O           1     -21.346  -7.416  -6.314  0.00  0.00    -0.271 OA
HETATM    3  C           1     -21.151  -6.470  -5.588  0.00  0.00     0.249 C 
HETATM    4  N           1     -21.124  -5.203  -6.107  0.00  0.00    -0.343 N 
ENDROOT
BRANCH   4   5
HETATM    5  C           1     -21.329  -4.997  -7.526  0.00  0.00     0.210 C 
BRANCH   5   6
HETATM    6  C           1     -19.999  -4.748  -8.195  0.00  0.00     0.198 C 
HETATM    7  O           1     -19.919  -4.739  -9.442  0.00  0.00    -0.646 OA
HETATM    8  O           1     -18.978  -4.550  -7.502  0.00  0.00    -0.646 OA
ENDBRANCH   5   6
BRANCH   5   9
HETATM    9  C           1     -22.237  -3.793  -7.738  0.00  0.00     0.217 C 
BRANCH   9  10
HETATM   10  O           1     -23.465  -4.219  -8.264  0.00  0.00    -0.287 OA
BRANCH  10  11
HETATM   11  P           1     -23.686  -3.965  -9.842  0.00  0.00     0.406 P 
HETATM   12  O           1     -23.968  -5.254 -10.514  0.00  0.00    -0.624 OA
HETATM   13  O           1     -24.830  -3.047 -10.040  0.00  0.00    -0.624 OA
BRANCH  11  14
HETATM   14  O           1     -22.354  -3.307 -10.474  0.00  0.00    -0.300 OA
HETATM   15  H           1     -21.902  -4.021 -10.891  0.00  0.00     0.223 HD
ENDBRANCH  11  14
ENDBRANCH  10  11
ENDBRANCH   9  10
ENDBRANCH   5   9
ENDBRANCH   4   5
BRANCH   3  16
HETATM   16  C           1     -20.938  -6.685  -4.110  0.00  0.00     0.274 C 
BRANCH  16  17
HETATM   17  N           1     -22.119  -6.156  -3.353  0.00  0.00    -0.067 N 
HETATM   18  H           1     -22.960  -6.735  -3.572  0.00  0.00     0.275 HD
HETATM   19  H           1     -22.294  -5.164  -3.630  0.00  0.00     0.275 HD
HETATM   20  H           1     -21.923  -6.200  -2.327  0.00  0.00     0.275 HD
ENDBRANCH  16  17
BRANCH  16  21
HETATM   21  C           1     -20.780  -8.174  -3.830  0.00  0.00     0.045 C 
BRANCH  21  22
HETATM   22 Se           1     -21.124  -8.520  -1.943  0.00  0.00     0.000 Se
HETATM   23  H           1     -22.450  -9.114  -2.174  0.00  0.00     0.000 HD
ENDBRANCH  21  22
ENDBRANCH  16  21
ENDBRANCH   3  16
TORSDOF 10
ENDMDL
MODEL 5
REMARK VINA RESULT:      -5.0      4.014      5.577
REMARK  10 active torsions:
REMARK  status: ('A' for Active; 'I' for Inactive)
REMARK    1  A    between atoms: C_4  and  C_23 
REMARK    2  A    between atoms: N_11  and  C_14 
REMARK    3  A    between atoms: Se_12  and  C_13 
REMARK    4  A    between atoms: C_13  and  C_14 
REMARK    5  A    between atoms: C_14  and  C_15 
REMARK       I    between atoms: C_15  and  N_16 
REMARK    6  A    between atoms: N_16  and  C_23 
REMARK    7  A    between atoms: O_18  and  P_20 
REMARK    8  A    between atoms: P_20  and  O_21 
REMARK    9  A    between atoms: O_21  and  C_22 
REMARK   10  A    between atoms: C_22  and  C_23 
ROOT
HETATM    1  H           1     -32.622  -3.183 -14.492  0.00  0.00     0.163 HD
HETATM    2  O           1     -34.972  -5.087 -15.327  0.00  0.00    -0.271 OA
HETATM    3  C           1     -33.949  -4.454 -15.444  0.00  0.00     0.249 C 
HETATM    4  N           1     -33.479  -3.713 -14.393  0.00  0.00    -0.343 N 
ENDROOT
BRANCH   4   5
HETATM    5  C           1     -34.208  -3.687 -13.141  0.00  0.00     0.210 C 
BRANCH   5   6
HETATM    6  C           1     -34.958  -2.383 -13.023  0.00  0.00     0.198 C 
HETATM    7  O           1     -35.804  -2.229 -12.116  0.00  0.00    -0.646 OA
HETATM    8  O           1     -34.733  -1.457 -13.832  0.00  0.00    -0.646 OA
ENDBRANCH   5   6
BRANCH   5   9
HETATM    9  C           1     -33.229  -3.817 -11.981  0.00  0.00     0.217 C 
BRANCH   9  10
HETATM   10  O           1     -33.084  -5.169 -11.640  0.00  0.00    -0.287 OA
BRANCH  10  11
HETATM   11  P           1     -34.438  -5.949 -11.240  0.00  0.00     0.406 P 
HETATM   12  O           1     -34.101  -7.125 -10.406  0.00  0.00    -0.624 OA
HETATM   13  O           1     -35.324  -5.042 -10.476  0.00  0.00    -0.624 OA
BRANCH  11  14
HETATM   14  O           1     -35.196  -6.437 -12.580  0.00  0.00    -0.300 OA
HETATM   15  H           1     -34.525  -6.833 -13.109  0.00  0.00     0.223 HD
ENDBRANCH  11  14
ENDBRANCH  10  11
ENDBRANCH   9  10
ENDBRANCH   5   9
ENDBRANCH   4   5
BRANCH   3  16
HETATM   16  C           1     -33.190  -4.482 -16.748  0.00  0.00     0.274 C 
BRANCH  16  17
HETATM   17  N           1     -33.428  -3.201 -17.491  0.00  0.00    -0.067 N 
HETATM   18  H           1     -33.140  -3.319 -18.488  0.00  0.00     0.275 HD
HETATM   19  H           1     -32.868  -2.435 -17.053  0.00  0.00     0.275 HD
HETATM   20  H           1     -34.443  -2.957 -17.448  0.00  0.00     0.275 HD
ENDBRANCH  16  17
BRANCH  16  21
HETATM   21  C           1     -31.702  -4.637 -16.467  0.00  0.00     0.045 C 
BRANCH  21  22
HETATM   22 Se           1     -31.062  -6.302 -17.255  0.00  0.00     0.000 Se
HETATM   23  H           1     -31.193  -5.830 -18.643  0.00  0.00     0.000 HD
ENDBRANCH  21  22
ENDBRANCH  16  21
ENDBRANCH   3  16
TORSDOF 10
ENDMDL
MODEL 6
REMARK VINA RESULT:      -4.7     14.114     16.669
REMARK  10 active torsions:
REMARK  status: ('A' for Active; 'I' for Inactive)
REMARK    1  A    between atoms: C_4  and  C_23 
REMARK    2  A    between atoms: N_11  and  C_14 
REMARK    3  A    between atoms: Se_12  and  C_13 
REMARK    4  A    between atoms: C_13  and  C_14 
REMARK    5  A    between atoms: C_14  and  C_15 
REMARK       I    between atoms: C_15  and  N_16 
REMARK    6  A    between atoms: N_16  and  C_23 
REMARK    7  A    between atoms: O_18  and  P_20 
REMARK    8  A    between atoms: P_20  and  O_21 
REMARK    9  A    between atoms: O_21  and  C_22 
REMARK   10  A    between atoms: C_22  and  C_23 
ROOT
HETATM    1  H           1     -22.591  -5.867  -6.963  0.00  0.00     0.163 HD
HETATM    2  O           1     -21.806  -3.168  -8.357  0.00  0.00    -0.271 OA
HETATM    3  C           1     -22.448  -4.167  -8.135  0.00  0.00     0.249 C 
HETATM    4  N           1     -22.052  -5.030  -7.148  0.00  0.00    -0.343 N 
ENDROOT
BRANCH   4   5
HETATM    5  C           1     -20.864  -4.745  -6.369  0.00  0.00     0.210 C 
BRANCH   5   6
HETATM    6  C           1     -19.650  -5.275  -7.093  0.00  0.00     0.198 C 
HETATM    7  O           1     -18.702  -4.509  -7.366  0.00  0.00    -0.646 OA
HETATM    8  O           1     -19.593  -6.481  -7.419  0.00  0.00    -0.646 OA
ENDBRANCH   5   6
BRANCH   5   9
HETATM    9  C           1     -20.977  -5.417  -5.007  0.00  0.00     0.217 C 
BRANCH   9  10
HETATM   10  O           1     -21.641  -6.643  -5.143  0.00  0.00    -0.287 OA
BRANCH  10  11
HETATM   11  P           1     -21.002  -7.889  -4.341  0.00  0.00     0.406 P 
HETATM   12  O           1     -20.814  -7.516  -2.920  0.00  0.00    -0.624 OA
HETATM   13  O           1     -21.911  -9.053  -4.428  0.00  0.00    -0.624 OA
BRANCH  11  14
HETATM   14  O           1     -19.574  -8.273  -4.990  0.00  0.00    -0.300 OA
HETATM   15  H           1     -19.515  -7.754  -5.774  0.00  0.00     0.223 HD
ENDBRANCH  11  14
ENDBRANCH  10  11
ENDBRANCH   9  10
ENDBRANCH   5   9
ENDBRANCH   4   5
BRANCH   3  16
HETATM   16  C           1     -23.685  -4.464  -8.946  0.00  0.00     0.274 C 
BRANCH  16  17
HETATM   17  N           1     -24.595  -3.272  -8.921  0.00  0.00    -0.067 N 
HETATM   18  H           1     -25.255  -3.321  -9.730  0.00  0.00     0.275 HD
HETATM   19  H           1     -24.027  -2.398  -8.985  0.00  0.00     0.275 HD
HETATM   20  H           1     -25.139  -3.268  -8.029  0.00  0.00     0.275 HD
ENDBRANCH  16  17
BRANCH  16  21
HETATM   21  C           1     -23.290  -4.771 -10.384  0.00  0.00     0.045 C 
BRANCH  21  22
HETATM   22 Se           1     -23.921  -3.343 -11.551  0.00  0.00     0.000 Se
HETATM   23  H           1     -23.490  -4.009 -12.791  0.00  0.00     0.000 HD
ENDBRANCH  21  22
ENDBRANCH  16  21
ENDBRANCH   3  16
TORSDOF 10
ENDMDL
MODEL 7
REMARK VINA RESULT:      -4.7     16.407     18.258
REMARK  10 active torsions:
REMARK  status: ('A' for Active; 'I' for Inactive)
REMARK    1  A    between atoms: C_4  and  C_23 
REMARK    2  A    between atoms: N_11  and  C_14 
REMARK    3  A    between atoms: Se_12  and  C_13 
REMARK    4  A    between atoms: C_13  and  C_14 
REMARK    5  A    between atoms: C_14  and  C_15 
REMARK       I    between atoms: C_15  and  N_16 
REMARK    6  A    between atoms: N_16  and  C_23 
REMARK    7  A    between atoms: O_18  and  P_20 
REMARK    8  A    between atoms: P_20  and  O_21 
REMARK    9  A    between atoms: O_21  and  C_22 
REMARK   10  A    between atoms: C_22  and  C_23 
ROOT
HETATM    1  H           1     -22.321  -7.187  -5.861  0.00  0.00     0.163 HD
HETATM    2  O           1     -20.484  -4.664  -5.547  0.00  0.00    -0.271 OA
HETATM    3  C           1     -21.334  -5.377  -6.027  0.00  0.00     0.249 C 
HETATM    4  N           1     -21.609  -6.592  -5.458  0.00  0.00    -0.343 N 
ENDROOT
BRANCH   4   5
HETATM    5  C           1     -20.881  -7.024  -4.282  0.00  0.00     0.210 C 
BRANCH   5   6
HETATM    6  C           1     -20.554  -8.492  -4.405  0.00  0.00     0.198 C 
HETATM    7  O           1     -21.469  -9.341  -4.363  0.00  0.00    -0.646 OA
HETATM    8  O           1     -19.367  -8.858  -4.548  0.00  0.00    -0.646 OA
ENDBRANCH   5   6
BRANCH   5   9
HETATM    9  C           1     -21.738  -6.796  -3.044  0.00  0.00     0.217 C 
BRANCH   9  10
HETATM   10  O           1     -21.027  -7.193  -1.903  0.00  0.00    -0.287 OA
BRANCH  10  11
HETATM   11  P           1     -21.863  -8.025  -0.801  0.00  0.00     0.406 P 
HETATM   12  O           1     -20.988  -8.330   0.354  0.00  0.00    -0.624 OA
HETATM   13  O           1     -23.018  -7.220  -0.344  0.00  0.00    -0.624 OA
BRANCH  11  14
HETATM   14  O           1     -22.394  -9.403  -1.454  0.00  0.00    -0.300 OA
HETATM   15  H           1     -22.521  -9.986  -0.726  0.00  0.00     0.223 HD
ENDBRANCH  11  14
ENDBRANCH  10  11
ENDBRANCH   9  10
ENDBRANCH   5   9
ENDBRANCH   4   5
BRANCH   3  16
HETATM   16  C           1     -22.092  -4.927  -7.251  0.00  0.00     0.274 C 
BRANCH  16  17
HETATM   17  N           1     -23.481  -4.521  -6.858  0.00  0.00    -0.067 N 
HETATM   18  H           1     -23.569  -3.482  -6.916  0.00  0.00     0.275 HD
HETATM   19  H           1     -23.671  -4.835  -5.880  0.00  0.00     0.275 HD
HETATM   20  H           1     -24.170  -4.966  -7.506  0.00  0.00     0.275 HD
ENDBRANCH  16  17
BRANCH  16  21
HETATM   21  C           1     -21.376  -3.741  -7.885  0.00  0.00     0.045 C 
BRANCH  21  22
HETATM   22 Se           1     -20.632  -4.275  -9.605  0.00  0.00     0.000 Se
HETATM   23  H           1     -21.456  -3.337 -10.384  0.00  0.00     0.000 HD
ENDBRANCH  21  22
ENDBRANCH  16  21
ENDBRANCH   3  16
TORSDOF 10
ENDMDL
MODEL 8
REMARK VINA RESULT:      -4.6     17.287     18.869
REMARK  10 active torsions:
REMARK  status: ('A' for Active; 'I' for Inactive)
REMARK    1  A    between atoms: C_4  and  C_23 
REMARK    2  A    between atoms: N_11  and  C_14 
REMARK    3  A    between atoms: Se_12  and  C_13 
REMARK    4  A    between atoms: C_13  and  C_14 
REMARK    5  A    between atoms: C_14  and  C_15 
REMARK       I    between atoms: C_15  and  N_16 
REMARK    6  A    between atoms: N_16  and  C_23 
REMARK    7  A    between atoms: O_18  and  P_20 
REMARK    8  A    between atoms: P_20  and  O_21 
REMARK    9  A    between atoms: O_21  and  C_22 
REMARK   10  A    between atoms: C_22  and  C_23 
ROOT
HETATM    1  H           1     -22.472  -9.291  -1.260  0.00  0.00     0.163 HD
HETATM    2  O           1     -19.447  -9.812  -1.908  0.00  0.00    -0.271 OA
HETATM    3  C           1     -20.554 -10.036  -1.478  0.00  0.00     0.249 C 
HETATM    4  N           1     -21.545  -9.102  -1.619  0.00  0.00    -0.343 N 
ENDROOT
BRANCH   4   5
HETATM    5  C           1     -21.267  -7.845  -2.284  0.00  0.00     0.210 C 
BRANCH   5   6
HETATM    6  C           1     -22.146  -6.764  -1.702  0.00  0.00     0.198 C 
HETATM    7  O           1     -22.709  -6.943  -0.601  0.00  0.00    -0.646 OA
HETATM    8  O           1     -22.311  -5.691  -2.322  0.00  0.00    -0.646 OA
ENDBRANCH   5   6
BRANCH   5   9
HETATM    9  C           1     -21.551  -7.984  -3.773  0.00  0.00     0.217 C 
BRANCH   9  10
HETATM   10  O           1     -20.548  -7.333  -4.505  0.00  0.00    -0.287 OA
BRANCH  10  11
HETATM   11  P           1     -21.050  -6.220  -5.561  0.00  0.00     0.406 P 
HETATM   12  O           1     -20.258  -4.982  -5.385  0.00  0.00    -0.624 OA
HETATM   13  O           1     -20.870  -6.728  -6.939  0.00  0.00    -0.624 OA
BRANCH  11  14
HETATM   14  O           1     -22.613  -5.902  -5.306  0.00  0.00    -0.300 OA
HETATM   15  H           1     -22.645  -4.984  -5.098  0.00  0.00     0.223 HD
ENDBRANCH  11  14
ENDBRANCH  10  11
ENDBRANCH   9  10
ENDBRANCH   5   9
ENDBRANCH   4   5
BRANCH   3  16
HETATM   16  C           1     -20.843 -11.346  -0.787  0.00  0.00     0.274 C 
BRANCH  16  17
HETATM   17  N           1     -19.658 -11.746   0.040  0.00  0.00    -0.067 N 
HETATM   18  H           1     -19.941 -11.816   1.043  0.00  0.00     0.275 HD
HETATM   19  H           1     -18.904 -11.031  -0.062  0.00  0.00     0.275 HD
HETATM   20  H           1     -19.303 -12.674  -0.287  0.00  0.00     0.275 HD
ENDBRANCH  16  17
BRANCH  16  21
HETATM   21  C           1     -22.061 -11.188   0.113  0.00  0.00     0.045 C 
BRANCH  21  22
HETATM   22 Se           1     -23.577 -12.125  -0.675  0.00  0.00     0.000 Se
HETATM   23  H           1     -24.235 -12.387   0.616  0.00  0.00     0.000 HD
ENDBRANCH  21  22
ENDBRANCH  16  21
ENDBRANCH   3  16
TORSDOF 10
ENDMDL
MODEL 9
REMARK VINA RESULT:      -4.6     17.517     19.285
REMARK  10 active torsions:
REMARK  status: ('A' for Active; 'I' for Inactive)
REMARK    1  A    between atoms: C_4  and  C_23 
REMARK    2  A    between atoms: N_11  and  C_14 
REMARK    3  A    between atoms: Se_12  and  C_13 
REMARK    4  A    between atoms: C_13  and  C_14 
REMARK    5  A    between atoms: C_14  and  C_15 
REMARK       I    between atoms: C_15  and  N_16 
REMARK    6  A    between atoms: N_16  and  C_23 
REMARK    7  A    between atoms: O_18  and  P_20 
REMARK    8  A    between atoms: P_20  and  O_21 
REMARK    9  A    between atoms: O_21  and  C_22 
REMARK   10  A    between atoms: C_22  and  C_23 
ROOT
HETATM    1  H           1     -19.974  -6.445  -3.030  0.00  0.00     0.163 HD
HETATM    2  O           1     -22.020  -7.850  -4.949  0.00  0.00    -0.271 OA
HETATM    3  C           1     -21.090  -7.150  -4.623  0.00  0.00     0.249 C 
HETATM    4  N           1     -20.754  -7.031  -3.301  0.00  0.00    -0.343 N 
ENDROOT
BRANCH   4   5
HETATM    5  C           1     -21.512  -7.744  -2.293  0.00  0.00     0.210 C 
BRANCH   5   6
HETATM    6  C           1     -22.293  -6.756  -1.460  0.00  0.00     0.198 C 
HETATM    7  O           1     -22.351  -5.557  -1.806  0.00  0.00    -0.646 OA
HETATM    8  O           1     -22.881  -7.138  -0.426  0.00  0.00    -0.646 OA
ENDBRANCH   5   6
BRANCH   5   9
HETATM    9  C           1     -20.558  -8.522  -1.396  0.00  0.00     0.217 C 
BRANCH   9  10
HETATM   10  O           1     -20.900  -9.881  -1.415  0.00  0.00    -0.287 OA
BRANCH  10  11
HETATM   11  P           1     -21.598 -10.455  -0.077  0.00  0.00     0.406 P 
HETATM   12  O           1     -21.448 -11.927  -0.036  0.00  0.00    -0.624 OA
HETATM   13  O           1     -20.949  -9.861   1.113  0.00  0.00    -0.624 OA
BRANCH  11  14
HETATM   14  O           1     -23.167 -10.072  -0.081  0.00  0.00    -0.300 OA
HETATM   15  H           1     -23.269  -9.468  -0.797  0.00  0.00     0.223 HD
ENDBRANCH  11  14
ENDBRANCH  10  11
ENDBRANCH   9  10
ENDBRANCH   5   9
ENDBRANCH   4   5
BRANCH   3  16
HETATM   16  C           1     -20.301  -6.409  -5.673  0.00  0.00     0.274 C 
BRANCH  16  17
HETATM   17  N           1     -20.866  -6.711  -7.029  0.00  0.00    -0.067 N 
HETATM   18  H           1     -21.486  -5.926  -7.330  0.00  0.00     0.275 HD
HETATM   19  H           1     -21.418  -7.597  -6.987  0.00  0.00     0.275 HD
HETATM   20  H           1     -20.085  -6.821  -7.715  0.00  0.00     0.275 HD
ENDBRANCH  16  17
BRANCH  16  21
HETATM   21  C           1     -20.384  -4.911  -5.410  0.00  0.00     0.045 C 
BRANCH  21  22
HETATM   22 Se           1     -21.061  -4.009  -6.999  0.00  0.00     0.000 Se
HETATM   23  H           1     -21.028  -5.216  -7.841  0.00  0.00     0.000 HD
ENDBRANCH  21  22
ENDBRANCH  16  21
ENDBRANCH   3  16
TORSDOF 10
ENDMDL
