MODEL 1
REMARK VINA RESULT:      -6.2      0.000      0.000
REMARK  9 active torsions:
REMARK  status: ('A' for Active; 'I' for Inactive)
REMARK    1  A    between atoms: N_1  and  C_2 
REMARK       I    between atoms: N_1  and  C_6 
REMARK    2  A    between atoms: C_2  and  C_15 
REMARK    3  A    between atoms: C_2  and  C_3 
REMARK    4  A    between atoms: C_5  and  C_7 
REMARK    5  A    between atoms: C_5  and  C_10 
REMARK    6  A    between atoms: C_6  and  C_7 
REMARK    7  A    between atoms: C_7  and  N_18 
REMARK    8  A    between atoms: C_10  and  C_11 
REMARK       I    between atoms: C_11  and  N_12 
REMARK    9  A    between atoms: Se_14  and  C_15 
ROOT
HETATM    1  C           1     -33.584  -2.236 -11.400  0.00  0.00     0.275 C 
ENDROOT
BRANCH   1   2
HETATM    2  C           1     -33.113  -3.684 -11.410  0.00  0.00     0.052 C 
BRANCH   2   3
HETATM    3  C           1     -34.012  -4.518 -10.506  0.00  0.00     0.105 C 
BRANCH   3   4
HETATM    4  C           1     -34.374  -5.806 -11.204  0.00  0.00     0.215 C 
HETATM    5  N           1     -34.765  -5.787 -12.515  0.00  0.00    -0.370 N 
HETATM    6  H           1     -35.007  -6.650 -12.984  0.00  0.00     0.159 HD
HETATM    7  H           1     -34.811  -4.908 -13.017  0.00  0.00     0.159 HD
HETATM    8  O           1     -34.318  -6.854 -10.605  0.00  0.00    -0.274 OA
ENDBRANCH   3   4
ENDBRANCH   2   3
ENDBRANCH   1   2
BRANCH   1   9
HETATM    9  C           1     -34.527  -2.004 -12.555  0.00  0.00     0.249 C 
HETATM   10  N           1     -35.249  -0.843 -12.628  0.00  0.00    -0.345 N 
HETATM   11  H           1     -35.150  -0.140 -11.907  0.00  0.00     0.163 HD
HETATM   12  O           1     -34.644  -2.843 -13.417  0.00  0.00    -0.271 OA
BRANCH  10  13
HETATM   13  C           1     -36.154  -0.621 -13.738  0.00  0.00     0.185 C 
BRANCH  13  14
HETATM   14  C           1     -37.477  -0.079 -13.212  0.00  0.00     0.039 C 
BRANCH  14  15
HETATM   15 Se           1     -37.488  -0.168 -11.265  0.00  0.00     0.000 Se
HETATM   16  H           1     -37.630  -1.632 -11.217  0.00  0.00     0.000 HD
ENDBRANCH  14  15
ENDBRANCH  13  14
BRANCH  13  17
HETATM   17  C           1     -35.545   0.377 -14.692  0.00  0.00     0.196 C 
HETATM   18  O           1     -34.332   0.669 -14.599  0.00  0.00    -0.646 OA
HETATM   19  O           1     -36.251   0.911 -15.573  0.00  0.00    -0.646 OA
ENDBRANCH  13  17
ENDBRANCH  10  13
ENDBRANCH   1   9
BRANCH   1  20
HETATM   20  N           1     -34.296  -1.952 -10.110  0.00  0.00    -0.066 N 
HETATM   21  H           1     -33.728  -2.312  -9.311  0.00  0.00     0.275 HD
HETATM   22  H           1     -34.430  -0.921 -10.006  0.00  0.00     0.275 HD
HETATM   23  H           1     -35.229  -2.424 -10.116  0.00  0.00     0.275 HD
ENDBRANCH   1  20
TORSDOF 9
ENDMDL
MODEL 2
REMARK VINA RESULT:      -5.7     12.378     14.296
REMARK  9 active torsions:
REMARK  status: ('A' for Active; 'I' for Inactive)
REMARK    1  A    between atoms: N_1  and  C_2 
REMARK       I    between atoms: N_1  and  C_6 
REMARK    2  A    between atoms: C_2  and  C_15 
REMARK    3  A    between atoms: C_2  and  C_3 
REMARK    4  A    between atoms: C_5  and  C_7 
REMARK    5  A    between atoms: C_5  and  C_10 
REMARK    6  A    between atoms: C_6  and  C_7 
REMARK    7  A    between atoms: C_7  and  N_18 
REMARK    8  A    between atoms: C_10  and  C_11 
REMARK       I    between atoms: C_11  and  N_12 
REMARK    9  A    between atoms: Se_14  and  C_15 
ROOT
HETATM    1  C           1     -22.127  -3.126 -11.652  0.00  0.00     0.275 C 
ENDROOT
BRANCH   1   2
HETATM    2  C           1     -23.495  -2.686 -12.158  0.00  0.00     0.052 C 
BRANCH   2   3
HETATM    3  C           1     -23.709  -3.215 -13.570  0.00  0.00     0.105 C 
BRANCH   3   4
HETATM    4  C           1     -23.394  -2.128 -14.569  0.00  0.00     0.215 C 
HETATM    5  N           1     -24.066  -0.937 -14.519  0.00  0.00    -0.370 N 
HETATM    6  H           1     -23.855  -0.209 -15.188  0.00  0.00     0.159 HD
HETATM    7  H           1     -24.775  -0.785 -13.811  0.00  0.00     0.159 HD
HETATM    8  O           1     -22.548  -2.310 -15.412  0.00  0.00    -0.274 OA
ENDBRANCH   3   4
ENDBRANCH   2   3
ENDBRANCH   1   2
BRANCH   1   9
HETATM    9  C           1     -22.299  -4.015 -10.445  0.00  0.00     0.249 C 
HETATM   10  N           1     -21.289  -4.126  -9.527  0.00  0.00    -0.345 N 
HETATM   11  H           1     -20.428  -3.610  -9.657  0.00  0.00     0.163 HD
HETATM   12  O           1     -23.327  -4.630 -10.289  0.00  0.00    -0.271 OA
BRANCH  10  13
HETATM   13  C           1     -21.454  -4.980  -8.367  0.00  0.00     0.185 C 
BRANCH  13  14
HETATM   14  C           1     -20.093  -5.498  -7.922  0.00  0.00     0.039 C 
BRANCH  14  15
HETATM   15 Se           1     -20.279  -6.442  -6.227  0.00  0.00     0.000 Se
HETATM   16  H           1     -20.595  -5.231  -5.454  0.00  0.00     0.000 HD
ENDBRANCH  14  15
ENDBRANCH  13  14
BRANCH  13  17
HETATM   17  C           1     -22.084  -4.190  -7.246  0.00  0.00     0.196 C 
HETATM   18  O           1     -23.182  -4.549  -6.769  0.00  0.00    -0.646 OA
HETATM   19  O           1     -21.507  -3.178  -6.794  0.00  0.00    -0.646 OA
ENDBRANCH  13  17
ENDBRANCH  10  13
ENDBRANCH   1   9
BRANCH   1  20
HETATM   20  N           1     -21.416  -3.884 -12.733  0.00  0.00    -0.066 N 
HETATM   21  H           1     -21.573  -4.908 -12.603  0.00  0.00     0.275 HD
HETATM   22  H           1     -21.786  -3.591 -13.666  0.00  0.00     0.275 HD
HETATM   23  H           1     -20.392  -3.680 -12.686  0.00  0.00     0.275 HD
ENDBRANCH   1  20
TORSDOF 9
ENDMDL
MODEL 3
REMARK VINA RESULT:      -5.7     12.159     14.254
REMARK  9 active torsions:
REMARK  status: ('A' for Active; 'I' for Inactive)
REMARK    1  A    between atoms: N_1  and  C_2 
REMARK       I    between atoms: N_1  and  C_6 
REMARK    2  A    between atoms: C_2  and  C_15 
REMARK    3  A    between atoms: C_2  and  C_3 
REMARK    4  A    between atoms: C_5  and  C_7 
REMARK    5  A    between atoms: C_5  and  C_10 
REMARK    6  A    between atoms: C_6  and  C_7 
REMARK    7  A    between atoms: C_7  and  N_18 
REMARK    8  A    between atoms: C_10  and  C_11 
REMARK       I    between atoms: C_11  and  N_12 
REMARK    9  A    between atoms: Se_14  and  C_15 
ROOT
HETATM    1  C           1     -24.089  -4.194 -10.577  0.00  0.00     0.275 C 
ENDROOT
BRANCH   1   2
HETATM    2  C           1     -23.945  -2.913 -11.387  0.00  0.00     0.052 C 
BRANCH   2   3
HETATM    3  C           1     -24.464  -3.145 -12.801  0.00  0.00     0.105 C 
BRANCH   3   4
HETATM    4  C           1     -23.325  -3.017 -13.783  0.00  0.00     0.215 C 
HETATM    5  N           1     -22.052  -3.343 -13.401  0.00  0.00    -0.370 N 
HETATM    6  H           1     -21.289  -3.258 -14.059  0.00  0.00     0.159 HD
HETATM    7  H           1     -21.874  -3.672 -12.459  0.00  0.00     0.159 HD
HETATM    8  O           1     -23.537  -2.626 -14.906  0.00  0.00    -0.274 OA
ENDBRANCH   3   4
ENDBRANCH   2   3
ENDBRANCH   1   2
BRANCH   1   9
HETATM    9  C           1     -22.757  -4.558  -9.968  0.00  0.00     0.249 C 
HETATM   10  N           1     -22.650  -4.748  -8.616  0.00  0.00    -0.345 N 
HETATM   11  H           1     -23.464  -4.644  -8.025  0.00  0.00     0.163 HD
HETATM   12  O           1     -21.784  -4.683 -10.674  0.00  0.00    -0.271 OA
BRANCH  10  13
HETATM   13  C           1     -21.369  -5.098  -8.033  0.00  0.00     0.185 C 
BRANCH  13  14
HETATM   14  C           1     -20.607  -3.825  -7.685  0.00  0.00     0.039 C 
BRANCH  14  15
HETATM   15 Se           1     -18.737  -4.259  -7.350  0.00  0.00     0.000 Se
HETATM   16  H           1     -18.415  -2.946  -6.769  0.00  0.00     0.000 HD
ENDBRANCH  14  15
ENDBRANCH  13  14
BRANCH  13  17
HETATM   17  C           1     -21.593  -5.909  -6.780  0.00  0.00     0.196 C 
HETATM   18  O           1     -21.034  -7.020  -6.647  0.00  0.00    -0.646 OA
HETATM   19  O           1     -22.336  -5.471  -5.876  0.00  0.00    -0.646 OA
ENDBRANCH  13  17
ENDBRANCH  10  13
ENDBRANCH   1   9
BRANCH   1  20
HETATM   20  N           1     -25.095  -3.982  -9.484  0.00  0.00    -0.066 N 
HETATM   21  H           1     -25.909  -4.620  -9.632  0.00  0.00     0.275 HD
HETATM   22  H           1     -24.654  -4.189  -8.560  0.00  0.00     0.275 HD
HETATM   23  H           1     -25.421  -2.990  -9.499  0.00  0.00     0.275 HD
ENDBRANCH   1  20
TORSDOF 9
ENDMDL
MODEL 4
REMARK VINA RESULT:      -5.6     12.919     14.407
REMARK  9 active torsions:
REMARK  status: ('A' for Active; 'I' for Inactive)
REMARK    1  A    between atoms: N_1  and  C_2 
REMARK       I    between atoms: N_1  and  C_6 
REMARK    2  A    between atoms: C_2  and  C_15 
REMARK    3  A    between atoms: C_2  and  C_3 
REMARK    4  A    between atoms: C_5  and  C_7 
REMARK    5  A    between atoms: C_5  and  C_10 
REMARK    6  A    between atoms: C_6  and  C_7 
REMARK    7  A    between atoms: C_7  and  N_18 
REMARK    8  A    between atoms: C_10  and  C_11 
REMARK       I    between atoms: C_11  and  N_12 
REMARK    9  A    between atoms: Se_14  and  C_15 
ROOT
HETATM    1  C           1     -21.127  -5.934  -6.791  0.00  0.00     0.275 C 
ENDROOT
BRANCH   1   2
HETATM    2  C           1     -21.167  -5.563  -5.314  0.00  0.00     0.052 C 
BRANCH   2   3
HETATM    3  C           1     -22.150  -6.473  -4.589  0.00  0.00     0.105 C 
BRANCH   3   4
HETATM    4  C           1     -21.735  -6.612  -3.144  0.00  0.00     0.215 C 
HETATM    5  N           1     -22.384  -5.899  -2.174  0.00  0.00    -0.370 N 
HETATM    6  H           1     -22.107  -5.992  -1.206  0.00  0.00     0.159 HD
HETATM    7  H           1     -23.145  -5.279  -2.425  0.00  0.00     0.159 HD
HETATM    8  O           1     -20.829  -7.354  -2.845  0.00  0.00    -0.274 OA
ENDBRANCH   3   4
ENDBRANCH   2   3
ENDBRANCH   1   2
BRANCH   1   9
HETATM    9  C           1     -21.610  -4.766  -7.617  0.00  0.00     0.249 C 
HETATM   10  N           1     -22.164  -4.982  -8.850  0.00  0.00    -0.345 N 
HETATM   11  H           1     -22.251  -5.925  -9.208  0.00  0.00     0.163 HD
HETATM   12  O           1     -21.507  -3.641  -7.189  0.00  0.00    -0.271 OA
BRANCH  10  13
HETATM   13  C           1     -22.628  -3.860  -9.643  0.00  0.00     0.185 C 
BRANCH  13  14
HETATM   14  C           1     -22.065  -3.971 -11.054  0.00  0.00     0.039 C 
BRANCH  14  15
HETATM   15 Se           1     -22.957  -2.682 -12.213  0.00  0.00     0.000 Se
HETATM   16  H           1     -21.948  -2.769 -13.281  0.00  0.00     0.000 HD
ENDBRANCH  14  15
ENDBRANCH  13  14
BRANCH  13  17
HETATM   17  C           1     -24.135  -3.874  -9.699  0.00  0.00     0.196 C 
HETATM   18  O           1     -24.738  -4.914 -10.043  0.00  0.00    -0.646 OA
HETATM   19  O           1     -24.782  -2.846  -9.402  0.00  0.00    -0.646 OA
ENDBRANCH  13  17
ENDBRANCH  10  13
ENDBRANCH   1   9
BRANCH   1  20
HETATM   20  N           1     -19.720  -6.273  -7.182  0.00  0.00    -0.066 N 
HETATM   21  H           1     -19.133  -6.372  -6.324  0.00  0.00     0.275 HD
HETATM   22  H           1     -19.713  -7.173  -7.713  0.00  0.00     0.275 HD
HETATM   23  H           1     -19.332  -5.512  -7.785  0.00  0.00     0.275 HD
ENDBRANCH   1  20
TORSDOF 9
ENDMDL
MODEL 5
REMARK VINA RESULT:      -5.5     12.330     14.216
REMARK  9 active torsions:
REMARK  status: ('A' for Active; 'I' for Inactive)
REMARK    1  A    between atoms: N_1  and  C_2 
REMARK       I    between atoms: N_1  and  C_6 
REMARK    2  A    between atoms: C_2  and  C_15 
REMARK    3  A    between atoms: C_2  and  C_3 
REMARK    4  A    between atoms: C_5  and  C_7 
REMARK    5  A    between atoms: C_5  and  C_10 
REMARK    6  A    between atoms: C_6  and  C_7 
REMARK    7  A    between atoms: C_7  and  N_18 
REMARK    8  A    between atoms: C_10  and  C_11 
REMARK       I    between atoms: C_11  and  N_12 
REMARK    9  A    between atoms: Se_14  and  C_15 
ROOT
HETATM    1  C           1     -24.142  -4.697 -10.026  0.00  0.00     0.275 C 
ENDROOT
BRANCH   1   2
HETATM    2  C           1     -23.295  -4.622 -11.290  0.00  0.00     0.052 C 
BRANCH   2   3
HETATM    3  C           1     -23.041  -3.163 -11.645  0.00  0.00     0.105 C 
BRANCH   3   4
HETATM    4  C           1     -23.513  -2.898 -13.054  0.00  0.00     0.215 C 
HETATM    5  N           1     -22.640  -3.012 -14.101  0.00  0.00    -0.370 N 
HETATM    6  H           1     -22.956  -2.835 -15.045  0.00  0.00     0.159 HD
HETATM    7  H           1     -21.677  -3.276 -13.931  0.00  0.00     0.159 HD
HETATM    8  O           1     -24.662  -2.584 -13.256  0.00  0.00    -0.274 OA
ENDBRANCH   3   4
ENDBRANCH   2   3
ENDBRANCH   1   2
BRANCH   1   9
HETATM    9  C           1     -23.259  -4.516  -8.816  0.00  0.00     0.249 C 
HETATM   10  N           1     -22.004  -5.064  -8.795  0.00  0.00    -0.345 N 
HETATM   11  H           1     -21.668  -5.590  -9.592  0.00  0.00     0.163 HD
HETATM   12  O           1     -23.659  -3.887  -7.865  0.00  0.00    -0.271 OA
BRANCH  10  13
HETATM   13  C           1     -21.156  -4.890  -7.632  0.00  0.00     0.185 C 
BRANCH  13  14
HETATM   14  C           1     -20.950  -6.235  -6.949  0.00  0.00     0.039 C 
BRANCH  14  15
HETATM   15 Se           1     -21.904  -6.254  -5.249  0.00  0.00     0.000 Se
HETATM   16  H           1     -23.236  -6.369  -5.865  0.00  0.00     0.000 HD
ENDBRANCH  14  15
ENDBRANCH  13  14
BRANCH  13  17
HETATM   17  C           1     -19.821  -4.334  -8.063  0.00  0.00     0.196 C 
HETATM   18  O           1     -18.819  -4.475  -7.328  0.00  0.00    -0.646 OA
HETATM   19  O           1     -19.716  -3.734  -9.154  0.00  0.00    -0.646 OA
ENDBRANCH  13  17
ENDBRANCH  10  13
ENDBRANCH   1   9
BRANCH   1  20
HETATM   20  N           1     -25.178  -3.613 -10.054  0.00  0.00    -0.066 N 
HETATM   21  H           1     -25.601  -3.560 -11.007  0.00  0.00     0.275 HD
HETATM   22  H           1     -25.923  -3.825  -9.353  0.00  0.00     0.275 HD
HETATM   23  H           1     -24.731  -2.698  -9.819  0.00  0.00     0.275 HD
ENDBRANCH   1  20
TORSDOF 9
ENDMDL
MODEL 6
REMARK VINA RESULT:      -5.4     14.171     16.523
REMARK  9 active torsions:
REMARK  status: ('A' for Active; 'I' for Inactive)
REMARK    1  A    between atoms: N_1  and  C_2 
REMARK       I    between atoms: N_1  and  C_6 
REMARK    2  A    between atoms: C_2  and  C_15 
REMARK    3  A    between atoms: C_2  and  C_3 
REMARK    4  A    between atoms: C_5  and  C_7 
REMARK    5  A    between atoms: C_5  and  C_10 
REMARK    6  A    between atoms: C_6  and  C_7 
REMARK    7  A    between atoms: C_7  and  N_18 
REMARK    8  A    between atoms: C_10  and  C_11 
REMARK       I    between atoms: C_11  and  N_12 
REMARK    9  A    between atoms: Se_14  and  C_15 
ROOT
HETATM    1  C           1     -20.469  -4.985  -6.580  0.00  0.00     0.275 C 
ENDROOT
BRANCH   1   2
HETATM    2  C           1     -21.235  -3.794  -7.142  0.00  0.00     0.052 C 
BRANCH   2   3
HETATM    3  C           1     -21.450  -3.988  -8.637  0.00  0.00     0.105 C 
BRANCH   3   4
HETATM    4  C           1     -22.918  -3.845  -8.957  0.00  0.00     0.215 C 
HETATM    5  N           1     -23.856  -4.071  -7.986  0.00  0.00    -0.370 N 
HETATM    6  H           1     -24.839  -3.976  -8.200  0.00  0.00     0.159 HD
HETATM    7  H           1     -23.564  -4.333  -7.052  0.00  0.00     0.159 HD
HETATM    8  O           1     -23.265  -3.532 -10.071  0.00  0.00    -0.274 OA
ENDBRANCH   3   4
ENDBRANCH   2   3
ENDBRANCH   1   2
BRANCH   1   9
HETATM    9  C           1     -21.371  -5.779  -5.668  0.00  0.00     0.249 C 
HETATM   10  N           1     -20.835  -6.691  -4.798  0.00  0.00    -0.345 N 
HETATM   11  H           1     -19.833  -6.832  -4.767  0.00  0.00     0.163 HD
HETATM   12  O           1     -22.567  -5.610  -5.704  0.00  0.00    -0.271 OA
BRANCH  10  13
HETATM   13  C           1     -21.702  -7.454  -3.922  0.00  0.00     0.185 C 
BRANCH  13  14
HETATM   14  C           1     -21.249  -8.908  -3.902  0.00  0.00     0.039 C 
BRANCH  14  15
HETATM   15 Se           1     -19.480  -9.049  -4.710  0.00  0.00     0.000 Se
HETATM   16  H           1     -19.830 -10.202  -5.554  0.00  0.00     0.000 HD
ENDBRANCH  14  15
ENDBRANCH  13  14
BRANCH  13  17
HETATM   17  C           1     -21.632  -6.886  -2.526  0.00  0.00     0.196 C 
HETATM   18  O           1     -20.874  -7.404  -1.677  0.00  0.00    -0.646 OA
HETATM   19  O           1     -22.330  -5.896  -2.218  0.00  0.00    -0.646 OA
ENDBRANCH  13  17
ENDBRANCH  10  13
ENDBRANCH   1   9
BRANCH   1  20
HETATM   20  N           1     -20.007  -5.858  -7.708  0.00  0.00    -0.066 N 
HETATM   21  H           1     -19.689  -5.260  -8.504  0.00  0.00     0.275 HD
HETATM   22  H           1     -19.214  -6.456  -7.384  0.00  0.00     0.275 HD
HETATM   23  H           1     -20.795  -6.467  -8.023  0.00  0.00     0.275 HD
ENDBRANCH   1  20
TORSDOF 9
ENDMDL
MODEL 7
REMARK VINA RESULT:      -5.3     12.802     15.017
REMARK  9 active torsions:
REMARK  status: ('A' for Active; 'I' for Inactive)
REMARK    1  A    between atoms: N_1  and  C_2 
REMARK       I    between atoms: N_1  and  C_6 
REMARK    2  A    between atoms: C_2  and  C_15 
REMARK    3  A    between atoms: C_2  and  C_3 
REMARK    4  A    between atoms: C_5  and  C_7 
REMARK    5  A    between atoms: C_5  and  C_10 
REMARK    6  A    between atoms: C_6  and  C_7 
REMARK    7  A    between atoms: C_7  and  N_18 
REMARK    8  A    between atoms: C_10  and  C_11 
REMARK       I    between atoms: C_11  and  N_12 
REMARK    9  A    between atoms: Se_14  and  C_15 
ROOT
HETATM    1  C           1     -23.083  -4.376  -8.854  0.00  0.00     0.275 C 
ENDROOT
BRANCH   1   2
HETATM    2  C           1     -22.352  -3.534  -9.892  0.00  0.00     0.052 C 
BRANCH   2   3
HETATM    3  C           1     -22.741  -3.999 -11.289  0.00  0.00     0.105 C 
BRANCH   3   4
HETATM    4  C           1     -23.800  -3.080 -11.849  0.00  0.00     0.215 C 
HETATM    5  N           1     -23.485  -2.206 -12.853  0.00  0.00    -0.370 N 
HETATM    6  H           1     -24.194  -1.590 -13.229  0.00  0.00     0.159 HD
HETATM    7  H           1     -22.542  -2.176 -13.222  0.00  0.00     0.159 HD
HETATM    8  O           1     -24.925  -3.116 -11.409  0.00  0.00    -0.274 OA
ENDBRANCH   3   4
ENDBRANCH   2   3
ENDBRANCH   1   2
BRANCH   1   9
HETATM    9  C           1     -22.201  -4.563  -7.644  0.00  0.00     0.249 C 
HETATM   10  N           1     -22.211  -5.753  -6.966  0.00  0.00    -0.345 N 
HETATM   11  H           1     -22.811  -6.507  -7.277  0.00  0.00     0.163 HD
HETATM   12  O           1     -21.484  -3.664  -7.274  0.00  0.00    -0.271 OA
BRANCH  10  13
HETATM   13  C           1     -21.363  -5.932  -5.804  0.00  0.00     0.185 C 
BRANCH  13  14
HETATM   14  C           1     -22.140  -6.667  -4.719  0.00  0.00     0.039 C 
BRANCH  14  15
HETATM   15 Se           1     -21.477  -6.130  -2.967  0.00  0.00     0.000 Se
HETATM   16  H           1     -22.788  -5.674  -2.481  0.00  0.00     0.000 HD
ENDBRANCH  14  15
ENDBRANCH  13  14
BRANCH  13  17
HETATM   17  C           1     -20.148  -6.740  -6.188  0.00  0.00     0.196 C 
HETATM   18  O           1     -19.407  -6.351  -7.117  0.00  0.00    -0.646 OA
HETATM   19  O           1     -19.883  -7.798  -5.579  0.00  0.00    -0.646 OA
ENDBRANCH  13  17
ENDBRANCH  10  13
ENDBRANCH   1   9
BRANCH   1  20
HETATM   20  N           1     -24.347  -3.679  -8.447  0.00  0.00    -0.066 N 
HETATM   21  H           1     -24.172  -2.651  -8.379  0.00  0.00     0.275 HD
HETATM   22  H           1     -25.090  -3.859  -9.159  0.00  0.00     0.275 HD
HETATM   23  H           1     -24.661  -4.041  -7.518  0.00  0.00     0.275 HD
ENDBRANCH   1  20
TORSDOF 9
ENDMDL
MODEL 8
REMARK VINA RESULT:      -5.1      2.415      2.747
REMARK  9 active torsions:
REMARK  status: ('A' for Active; 'I' for Inactive)
REMARK    1  A    between atoms: N_1  and  C_2 
REMARK       I    between atoms: N_1  and  C_6 
REMARK    2  A    between atoms: C_2  and  C_15 
REMARK    3  A    between atoms: C_2  and  C_3 
REMARK    4  A    between atoms: C_5  and  C_7 
REMARK    5  A    between atoms: C_5  and  C_10 
REMARK    6  A    between atoms: C_6  and  C_7 
REMARK    7  A    between atoms: C_7  and  N_18 
REMARK    8  A    between atoms: C_10  and  C_11 
REMARK       I    between atoms: C_11  and  N_12 
REMARK    9  A    between atoms: Se_14  and  C_15 
ROOT
HETATM    1  C           1     -35.445  -1.436 -11.145  0.00  0.00     0.275 C 
ENDROOT
BRANCH   1   2
HETATM    2  C           1     -35.110  -2.893 -11.437  0.00  0.00     0.052 C 
BRANCH   2   3
HETATM    3  C           1     -33.624  -3.130 -11.204  0.00  0.00     0.105 C 
BRANCH   3   4
HETATM    4  C           1     -33.078  -4.016 -12.297  0.00  0.00     0.215 C 
HETATM    5  N           1     -33.685  -4.043 -13.523  0.00  0.00    -0.370 N 
HETATM    6  H           1     -33.319  -4.637 -14.256  0.00  0.00     0.159 HD
HETATM    7  H           1     -34.500  -3.467 -13.698  0.00  0.00     0.159 HD
HETATM    8  O           1     -32.105  -4.702 -12.089  0.00  0.00    -0.274 OA
ENDBRANCH   3   4
ENDBRANCH   2   3
ENDBRANCH   1   2
BRANCH   1   9
HETATM    9  C           1     -35.940  -0.770 -12.405  0.00  0.00     0.249 C 
HETATM   10  N           1     -35.263  -0.944 -13.583  0.00  0.00    -0.345 N 
HETATM   11  H           1     -34.431  -1.519 -13.609  0.00  0.00     0.163 HD
HETATM   12  O           1     -36.933  -0.084 -12.375  0.00  0.00    -0.271 OA
BRANCH  10  13
HETATM   13  C           1     -35.740  -0.303 -14.793  0.00  0.00     0.185 C 
BRANCH  13  14
HETATM   14  C           1     -34.936   0.967 -15.044  0.00  0.00     0.039 C 
BRANCH  14  15
HETATM   15 Se           1     -36.068   2.289 -15.920  0.00  0.00     0.000 Se
HETATM   16  H           1     -35.390   3.444 -15.310  0.00  0.00     0.000 HD
ENDBRANCH  14  15
ENDBRANCH  13  14
BRANCH  13  17
HETATM   17  C           1     -35.570  -1.245 -15.960  0.00  0.00     0.196 C 
HETATM   18  O           1     -34.909  -2.297 -15.823  0.00  0.00    -0.646 OA
HETATM   19  O           1     -36.091  -0.974 -17.063  0.00  0.00    -0.646 OA
ENDBRANCH  13  17
ENDBRANCH  10  13
ENDBRANCH   1   9
BRANCH   1  20
HETATM   20  N           1     -36.512  -1.370 -10.093  0.00  0.00    -0.066 N 
HETATM   21  H           1     -36.889  -0.398 -10.040  0.00  0.00     0.275 HD
HETATM   22  H           1     -37.284  -2.030 -10.339  0.00  0.00     0.275 HD
HETATM   23  H           1     -36.107  -1.639  -9.168  0.00  0.00     0.275 HD
ENDBRANCH   1  20
TORSDOF 9
ENDMDL
MODEL 9
REMARK VINA RESULT:      -4.8      3.306      5.322
REMARK  9 active torsions:
REMARK  status: ('A' for Active; 'I' for Inactive)
REMARK    1  A    between atoms: N_1  and  C_2 
REMARK       I    between atoms: N_1  and  C_6 
REMARK    2  A    between atoms: C_2  and  C_15 
REMARK    3  A    between atoms: C_2  and  C_3 
REMARK    4  A    between atoms: C_5  and  C_7 
REMARK    5  A    between atoms: C_5  and  C_10 
REMARK    6  A    between atoms: C_6  and  C_7 
REMARK    7  A    between atoms: C_7  and  N_18 
REMARK    8  A    between atoms: C_10  and  C_11 
REMARK       I    between atoms: C_11  and  N_12 
REMARK    9  A    between atoms: Se_14  and  C_15 
ROOT
HETATM    1  C           1     -36.178  -0.422 -11.720  0.00  0.00     0.275 C 
ENDROOT
BRANCH   1   2
HETATM    2  C           1     -36.591  -1.151 -10.448  0.00  0.00     0.052 C 
BRANCH   2   3
HETATM    3  C           1     -37.627  -0.321  -9.700  0.00  0.00     0.105 C 
BRANCH   3   4
HETATM    4  C           1     -36.927   0.640  -8.771  0.00  0.00     0.215 C 
HETATM    5  N           1     -37.436   1.895  -8.573  0.00  0.00    -0.370 N 
HETATM    6  H           1     -36.967   2.539  -7.951  0.00  0.00     0.159 HD
HETATM    7  H           1     -38.284   2.178  -9.050  0.00  0.00     0.159 HD
HETATM    8  O           1     -35.915   0.302  -8.203  0.00  0.00    -0.274 OA
ENDBRANCH   3   4
ENDBRANCH   2   3
ENDBRANCH   1   2
BRANCH   1   9
HETATM    9  C           1     -35.138  -1.235 -12.451  0.00  0.00     0.249 C 
HETATM   10  N           1     -34.728  -2.439 -11.945  0.00  0.00    -0.345 N 
HETATM   11  H           1     -35.123  -2.785 -11.079  0.00  0.00     0.163 HD
HETATM   12  O           1     -34.667  -0.822 -13.485  0.00  0.00    -0.271 OA
BRANCH  10  13
HETATM   13  C           1     -33.728  -3.218 -12.648  0.00  0.00     0.185 C 
BRANCH  13  14
HETATM   14  C           1     -32.988  -4.106 -11.656  0.00  0.00     0.039 C 
BRANCH  14  15
HETATM   15 Se           1     -34.266  -4.909 -10.423  0.00  0.00     0.000 Se
HETATM   16  H           1     -35.021  -5.606 -11.476  0.00  0.00     0.000 HD
ENDBRANCH  14  15
ENDBRANCH  13  14
BRANCH  13  17
HETATM   17  C           1     -34.402  -4.079 -13.688  0.00  0.00     0.196 C 
HETATM   18  O           1     -35.104  -5.052 -13.334  0.00  0.00    -0.646 OA
HETATM   19  O           1     -34.261  -3.820 -14.902  0.00  0.00    -0.646 OA
ENDBRANCH  13  17
ENDBRANCH  10  13
ENDBRANCH   1   9
BRANCH   1  20
HETATM   20  N           1     -37.377  -0.238 -12.601  0.00  0.00    -0.066 N 
HETATM   21  H           1     -37.398  -0.992 -13.324  0.00  0.00     0.275 HD
HETATM   22  H           1     -38.246  -0.287 -12.023  0.00  0.00     0.275 HD
HETATM   23  H           1     -37.325   0.694 -13.071  0.00  0.00     0.275 HD
ENDBRANCH   1  20
TORSDOF 9
ENDMDL
