MODEL 1
REMARK VINA RESULT:      -6.8      0.000      0.000
REMARK  9 active torsions:
REMARK  status: ('A' for Active; 'I' for Inactive)
REMARK    1  A    between atoms: C_2  and  C_5 
REMARK    2  A    between atoms: C_2  and  C_16 
REMARK    3  A    between atoms: C_2  and  N_9 
REMARK    4  A    between atoms: O_4  and  C_14 
REMARK    5  A    between atoms: C_5  and  C_22 
REMARK       I    between atoms: C_7  and  N_9 
REMARK    6  A    between atoms: C_7  and  C_15 
REMARK    7  A    between atoms: C_11  and  C_15 
REMARK    8  A    between atoms: C_11  and  O_12 
REMARK    9  A    between atoms: C_15  and  N_25 
ROOT
HETATM    1  C           1     -21.055  -5.361  -6.996  0.00  0.00     0.189 C 
ENDROOT
BRANCH   1   2
HETATM    2  C           1     -22.053  -4.299  -7.436  0.00  0.00     0.074 C 
BRANCH   2   3
HETATM    3  C           1     -21.986  -4.136  -8.923  0.00  0.00    -0.056 A 
HETATM    4  C           1     -23.115  -3.723  -9.631  0.00  0.00     0.010 A 
HETATM    5  C           1     -23.053  -3.571 -11.015  0.00  0.00     0.037 A 
HETATM    6  C           1     -21.862  -3.832 -11.694  0.00  0.00     0.065 A 
HETATM    7  C           1     -20.734  -4.246 -10.986  0.00  0.00     0.037 A 
HETATM    8  C           1     -20.796  -4.398  -9.600  0.00  0.00     0.010 A 
BRANCH   6   9
HETATM    9  O           1     -21.801  -3.684 -13.039  0.00  0.00    -0.361 OA
HETATM   10  H           1     -21.971  -2.751 -13.247  0.00  0.00     0.217 HD
ENDBRANCH   6   9
ENDBRANCH   2   3
ENDBRANCH   1   2
BRANCH   1  11
HETATM   11  C           1     -19.863  -4.698  -6.354  0.00  0.00     0.197 C 
HETATM   12  O           1     -18.818  -4.512  -7.016  0.00  0.00    -0.646 OA
HETATM   13  O           1     -19.918  -4.333  -5.159  0.00  0.00    -0.646 OA
ENDBRANCH   1  11
BRANCH   1  14
HETATM   14  N           1     -21.686  -6.250  -6.040  0.00  0.00    -0.344 N 
HETATM   15  C           1     -21.040  -7.386  -5.630  0.00  0.00     0.251 C 
HETATM   16  O           1     -19.944  -7.647  -6.066  0.00  0.00    -0.271 OA
HETATM   17  H           1     -22.604  -6.030  -5.675  0.00  0.00     0.163 HD
BRANCH  15  18
HETATM   18  C           1     -21.698  -8.310  -4.634  0.00  0.00     0.302 C 
BRANCH  18  19
HETATM   19  C           1     -21.440  -7.801  -3.223  0.00  0.00     0.153 C 
HETATM   20  C           1     -20.279  -8.572  -2.610  0.00  0.00     0.042 C 
BRANCH  19  21
HETATM   21  O           1     -21.123  -6.437  -3.267  0.00  0.00    -0.393 OA
HETATM   22  H           1     -21.469  -6.049  -2.481  0.00  0.00     0.210 HD
ENDBRANCH  19  21
ENDBRANCH  18  19
BRANCH  18  23
HETATM   23  N           1     -21.125  -9.689  -4.781  0.00  0.00    -0.064 N 
HETATM   24  H           1     -21.785 -10.386  -4.368  0.00  0.00     0.275 HD
HETATM   25  H           1     -20.980  -9.900  -5.794  0.00  0.00     0.275 HD
HETATM   26  H           1     -20.208  -9.740  -4.281  0.00  0.00     0.275 HD
ENDBRANCH  18  23
ENDBRANCH  15  18
ENDBRANCH   1  14
TORSDOF 9
ENDMDL
MODEL 2
REMARK VINA RESULT:      -6.7      2.384      4.021
REMARK  9 active torsions:
REMARK  status: ('A' for Active; 'I' for Inactive)
REMARK    1  A    between atoms: C_2  and  C_5 
REMARK    2  A    between atoms: C_2  and  C_16 
REMARK    3  A    between atoms: C_2  and  N_9 
REMARK    4  A    between atoms: O_4  and  C_14 
REMARK    5  A    between atoms: C_5  and  C_22 
REMARK       I    between atoms: C_7  and  N_9 
REMARK    6  A    between atoms: C_7  and  C_15 
REMARK    7  A    between atoms: C_11  and  C_15 
REMARK    8  A    between atoms: C_11  and  O_12 
REMARK    9  A    between atoms: C_15  and  N_25 
ROOT
HETATM    1  C           1     -22.976  -3.888  -9.083  0.00  0.00     0.189 C 
ENDROOT
BRANCH   1   2
HETATM    2  C           1     -22.283  -4.574 -10.251  0.00  0.00     0.074 C 
BRANCH   2   3
HETATM    3  C           1     -22.700  -3.921 -11.533  0.00  0.00    -0.056 A 
HETATM    4  C           1     -22.239  -2.642 -11.846  0.00  0.00     0.010 A 
HETATM    5  C           1     -22.628  -2.035 -13.040  0.00  0.00     0.037 A 
HETATM    6  C           1     -23.476  -2.706 -13.921  0.00  0.00     0.065 A 
HETATM    7  C           1     -23.936  -3.984 -13.607  0.00  0.00     0.037 A 
HETATM    8  C           1     -23.548  -4.593 -12.413  0.00  0.00     0.010 A 
BRANCH   6   9
HETATM    9  O           1     -23.853  -2.115 -15.081  0.00  0.00    -0.361 OA
HETATM   10  H           1     -23.495  -2.641 -15.816  0.00  0.00     0.217 HD
ENDBRANCH   6   9
ENDBRANCH   2   3
ENDBRANCH   1   2
BRANCH   1  11
HETATM   11  C           1     -24.463  -3.845  -9.333  0.00  0.00     0.197 C 
HETATM   12  O           1     -25.103  -4.910  -9.479  0.00  0.00    -0.646 OA
HETATM   13  O           1     -25.056  -2.747  -9.396  0.00  0.00    -0.646 OA
ENDBRANCH   1  11
BRANCH   1  14
HETATM   14  N           1     -22.713  -4.626  -7.864  0.00  0.00    -0.344 N 
HETATM   15  C           1     -21.591  -4.357  -7.128  0.00  0.00     0.251 C 
HETATM   16  O           1     -20.819  -3.504  -7.495  0.00  0.00    -0.271 OA
HETATM   17  H           1     -23.360  -5.342  -7.557  0.00  0.00     0.163 HD
BRANCH  15  18
HETATM   18  C           1     -21.318  -5.127  -5.858  0.00  0.00     0.302 C 
BRANCH  18  19
HETATM   19  C           1     -20.183  -6.113  -6.097  0.00  0.00     0.153 C 
HETATM   20  C           1     -20.514  -7.438  -5.425  0.00  0.00     0.042 C 
BRANCH  19  21
HETATM   21  O           1     -20.020  -6.316  -7.474  0.00  0.00    -0.393 OA
HETATM   22  H           1     -20.719  -6.884  -7.752  0.00  0.00     0.210 HD
ENDBRANCH  19  21
ENDBRANCH  18  19
BRANCH  18  23
HETATM   23  N           1     -22.553  -5.875  -5.454  0.00  0.00    -0.064 N 
HETATM   24  H           1     -23.372  -5.512  -5.991  0.00  0.00     0.275 HD
HETATM   25  H           1     -22.426  -6.892  -5.654  0.00  0.00     0.275 HD
HETATM   26  H           1     -22.722  -5.741  -4.430  0.00  0.00     0.275 HD
ENDBRANCH  18  23
ENDBRANCH  15  18
ENDBRANCH   1  14
TORSDOF 9
ENDMDL
MODEL 3
REMARK VINA RESULT:      -6.6     11.157     13.511
REMARK  9 active torsions:
REMARK  status: ('A' for Active; 'I' for Inactive)
REMARK    1  A    between atoms: C_2  and  C_5 
REMARK    2  A    between atoms: C_2  and  C_16 
REMARK    3  A    between atoms: C_2  and  N_9 
REMARK    4  A    between atoms: O_4  and  C_14 
REMARK    5  A    between atoms: C_5  and  C_22 
REMARK       I    between atoms: C_7  and  N_9 
REMARK    6  A    between atoms: C_7  and  C_15 
REMARK    7  A    between atoms: C_11  and  C_15 
REMARK    8  A    between atoms: C_11  and  O_12 
REMARK    9  A    between atoms: C_15  and  N_25 
ROOT
HETATM    1  C           1     -27.455  -6.917 -17.167  0.00  0.00     0.189 C 
ENDROOT
BRANCH   1   2
HETATM    2  C           1     -26.342  -6.074 -17.775  0.00  0.00     0.074 C 
BRANCH   2   3
HETATM    3  C           1     -25.822  -6.748 -19.008  0.00  0.00    -0.056 A 
HETATM    4  C           1     -26.685  -7.022 -20.069  0.00  0.00     0.010 A 
HETATM    5  C           1     -26.200  -7.650 -21.216  0.00  0.00     0.037 A 
HETATM    6  C           1     -24.853  -8.003 -21.303  0.00  0.00     0.065 A 
HETATM    7  C           1     -23.992  -7.729 -20.241  0.00  0.00     0.037 A 
HETATM    8  C           1     -24.476  -7.101 -19.093  0.00  0.00     0.010 A 
BRANCH   6   9
HETATM    9  O           1     -24.382  -8.612 -22.418  0.00  0.00    -0.361 OA
HETATM   10  H           1     -24.253  -9.554 -22.214  0.00  0.00     0.217 HD
ENDBRANCH   6   9
ENDBRANCH   2   3
ENDBRANCH   1   2
BRANCH   1  11
HETATM   11  C           1     -27.156  -7.169 -15.710  0.00  0.00     0.197 C 
HETATM   12  O           1     -28.087  -7.186 -14.875  0.00  0.00    -0.646 OA
HETATM   13  O           1     -25.979  -7.360 -15.336  0.00  0.00    -0.646 OA
ENDBRANCH   1  11
BRANCH   1  14
HETATM   14  N           1     -28.716  -6.211 -17.286  0.00  0.00    -0.344 N 
HETATM   15  C           1     -29.861  -6.900 -17.585  0.00  0.00     0.251 C 
HETATM   16  O           1     -29.820  -8.096 -17.749  0.00  0.00    -0.271 OA
HETATM   17  H           1     -28.749  -5.209 -17.149  0.00  0.00     0.163 HD
BRANCH  15  18
HETATM   18  C           1     -31.173  -6.165 -17.709  0.00  0.00     0.302 C 
BRANCH  18  19
HETATM   19  C           1     -31.154  -4.938 -16.807  0.00  0.00     0.153 C 
HETATM   20  C           1     -32.566  -4.382 -16.679  0.00  0.00     0.042 C 
BRANCH  19  21
HETATM   21  O           1     -30.676  -5.295 -15.539  0.00  0.00    -0.393 OA
HETATM   22  H           1     -29.997  -5.935 -15.673  0.00  0.00     0.210 HD
ENDBRANCH  19  21
ENDBRANCH  18  19
BRANCH  18  23
HETATM   23  N           1     -32.294  -7.072 -17.295  0.00  0.00    -0.064 N 
HETATM   24  H           1     -31.960  -7.718 -16.545  0.00  0.00     0.275 HD
HETATM   25  H           1     -33.091  -6.499 -16.935  0.00  0.00     0.275 HD
HETATM   26  H           1     -32.612  -7.631 -18.120  0.00  0.00     0.275 HD
ENDBRANCH  18  23
ENDBRANCH  15  18
ENDBRANCH   1  14
TORSDOF 9
ENDMDL
MODEL 4
REMARK VINA RESULT:      -6.5      3.457      7.890
REMARK  9 active torsions:
REMARK  status: ('A' for Active; 'I' for Inactive)
REMARK    1  A    between atoms: C_2  and  C_5 
REMARK    2  A    between atoms: C_2  and  C_16 
REMARK    3  A    between atoms: C_2  and  N_9 
REMARK    4  A    between atoms: O_4  and  C_14 
REMARK    5  A    between atoms: C_5  and  C_22 
REMARK       I    between atoms: C_7  and  N_9 
REMARK    6  A    between atoms: C_7  and  C_15 
REMARK    7  A    between atoms: C_11  and  C_15 
REMARK    8  A    between atoms: C_11  and  O_12 
REMARK    9  A    between atoms: C_15  and  N_25 
ROOT
HETATM    1  C           1     -22.913  -3.805  -9.899  0.00  0.00     0.189 C 
ENDROOT
BRANCH   1   2
HETATM    2  C           1     -22.251  -3.206  -8.666  0.00  0.00     0.074 C 
BRANCH   2   3
HETATM    3  C           1     -21.639  -4.300  -7.846  0.00  0.00    -0.056 A 
HETATM    4  C           1     -22.336  -4.831  -6.761  0.00  0.00     0.010 A 
HETATM    5  C           1     -21.766  -5.849  -5.997  0.00  0.00     0.037 A 
HETATM    6  C           1     -20.500  -6.338  -6.318  0.00  0.00     0.065 A 
HETATM    7  C           1     -19.803  -5.806  -7.403  0.00  0.00     0.037 A 
HETATM    8  C           1     -20.373  -4.787  -8.168  0.00  0.00     0.010 A 
BRANCH   6   9
HETATM    9  O           1     -19.946  -7.327  -5.577  0.00  0.00    -0.361 OA
HETATM   10  H           1     -19.046  -7.053  -5.333  0.00  0.00     0.217 HD
ENDBRANCH   6   9
ENDBRANCH   2   3
ENDBRANCH   1   2
BRANCH   1  11
HETATM   11  C           1     -24.398  -3.927  -9.664  0.00  0.00     0.197 C 
HETATM   12  O           1     -25.090  -2.901  -9.491  0.00  0.00    -0.646 OA
HETATM   13  O           1     -24.937  -5.055  -9.644  0.00  0.00    -0.646 OA
ENDBRANCH   1  11
BRANCH   1  14
HETATM   14  N           1     -22.674  -2.944 -11.041  0.00  0.00    -0.344 N 
HETATM   15  C           1     -22.907  -3.407 -12.309  0.00  0.00     0.251 C 
HETATM   16  O           1     -23.312  -4.533 -12.475  0.00  0.00    -0.271 OA
HETATM   17  H           1     -22.334  -2.001 -10.901  0.00  0.00     0.163 HD
BRANCH  15  18
HETATM   18  C           1     -22.659  -2.511 -13.497  0.00  0.00     0.302 C 
BRANCH  18  19
HETATM   19  C           1     -23.833  -1.557 -13.668  0.00  0.00     0.153 C 
HETATM   20  C           1     -23.908  -1.100 -15.118  0.00  0.00     0.042 C 
BRANCH  19  21
HETATM   21  O           1     -25.023  -2.212 -13.322  0.00  0.00    -0.393 OA
HETATM   22  H           1     -25.376  -2.575 -14.117  0.00  0.00     0.210 HD
ENDBRANCH  19  21
ENDBRANCH  18  19
BRANCH  18  23
HETATM   23  N           1     -22.513  -3.349 -14.732  0.00  0.00    -0.064 N 
HETATM   24  H           1     -23.135  -4.186 -14.661  0.00  0.00     0.275 HD
HETATM   25  H           1     -22.780  -2.785 -15.570  0.00  0.00     0.275 HD
HETATM   26  H           1     -21.519  -3.662 -14.826  0.00  0.00     0.275 HD
ENDBRANCH  18  23
ENDBRANCH  15  18
ENDBRANCH   1  14
TORSDOF 9
ENDMDL
MODEL 5
REMARK VINA RESULT:      -6.5      2.320      7.255
REMARK  9 active torsions:
REMARK  status: ('A' for Active; 'I' for Inactive)
REMARK    1  A    between atoms: C_2  and  C_5 
REMARK    2  A    between atoms: C_2  and  C_16 
REMARK    3  A    between atoms: C_2  and  N_9 
REMARK    4  A    between atoms: O_4  and  C_14 
REMARK    5  A    between atoms: C_5  and  C_22 
REMARK       I    between atoms: C_7  and  N_9 
REMARK    6  A    between atoms: C_7  and  C_15 
REMARK    7  A    between atoms: C_11  and  C_15 
REMARK    8  A    between atoms: C_11  and  O_12 
REMARK    9  A    between atoms: C_15  and  N_25 
ROOT
HETATM    1  C           1     -20.119  -7.498  -4.949  0.00  0.00     0.189 C 
ENDROOT
BRANCH   1   2
HETATM    2  C           1     -21.446  -8.156  -4.596  0.00  0.00     0.074 C 
BRANCH   2   3
HETATM    3  C           1     -21.685  -8.039  -3.122  0.00  0.00    -0.056 A 
HETATM    4  C           1     -21.942  -6.791  -2.554  0.00  0.00     0.010 A 
HETATM    5  C           1     -22.164  -6.682  -1.182  0.00  0.00     0.037 A 
HETATM    6  C           1     -22.131  -7.821  -0.377  0.00  0.00     0.065 A 
HETATM    7  C           1     -21.874  -9.069  -0.945  0.00  0.00     0.037 A 
HETATM    8  C           1     -21.651  -9.178  -2.318  0.00  0.00     0.010 A 
BRANCH   6   9
HETATM    9  O           1     -22.348  -7.716   0.957  0.00  0.00    -0.361 OA
HETATM   10  H           1     -23.066  -7.077   1.095  0.00  0.00     0.217 HD
ENDBRANCH   6   9
ENDBRANCH   2   3
ENDBRANCH   1   2
BRANCH   1  11
HETATM   11  C           1     -19.080  -8.562  -5.196  0.00  0.00     0.197 C 
HETATM   12  O           1     -18.576  -8.692  -6.334  0.00  0.00    -0.646 OA
HETATM   13  O           1     -18.721  -9.315  -4.265  0.00  0.00    -0.646 OA
ENDBRANCH   1  11
BRANCH   1  14
HETATM   14  N           1     -20.282  -6.695  -6.145  0.00  0.00    -0.344 N 
HETATM   15  C           1     -20.361  -5.331  -6.049  0.00  0.00     0.251 C 
HETATM   16  O           1     -20.296  -4.798  -4.967  0.00  0.00    -0.271 OA
HETATM   17  H           1     -20.337  -7.142  -7.051  0.00  0.00     0.163 HD
BRANCH  15  18
HETATM   18  C           1     -20.529  -4.495  -7.294  0.00  0.00     0.302 C 
BRANCH  18  19
HETATM   19  C           1     -21.994  -4.110  -7.453  0.00  0.00     0.153 C 
HETATM   20  C           1     -22.458  -4.453  -8.861  0.00  0.00     0.042 C 
BRANCH  19  21
HETATM   21  O           1     -22.767  -4.816  -6.521  0.00  0.00    -0.393 OA
HETATM   22  H           1     -22.230  -5.517  -6.194  0.00  0.00     0.210 HD
ENDBRANCH  19  21
ENDBRANCH  18  19
BRANCH  18  23
HETATM   23  N           1     -20.089  -5.288  -8.489  0.00  0.00    -0.064 N 
HETATM   24  H           1     -20.688  -6.140  -8.583  0.00  0.00     0.275 HD
HETATM   25  H           1     -20.180  -4.701  -9.350  0.00  0.00     0.275 HD
HETATM   26  H           1     -19.091  -5.576  -8.369  0.00  0.00     0.275 HD
ENDBRANCH  18  23
ENDBRANCH  15  18
ENDBRANCH   1  14
TORSDOF 9
ENDMDL
MODEL 6
REMARK VINA RESULT:      -6.3     10.499     13.766
REMARK  9 active torsions:
REMARK  status: ('A' for Active; 'I' for Inactive)
REMARK    1  A    between atoms: C_2  and  C_5 
REMARK    2  A    between atoms: C_2  and  C_16 
REMARK    3  A    between atoms: C_2  and  N_9 
REMARK    4  A    between atoms: O_4  and  C_14 
REMARK    5  A    between atoms: C_5  and  C_22 
REMARK       I    between atoms: C_7  and  N_9 
REMARK    6  A    between atoms: C_7  and  C_15 
REMARK    7  A    between atoms: C_11  and  C_15 
REMARK    8  A    between atoms: C_11  and  O_12 
REMARK    9  A    between atoms: C_15  and  N_25 
ROOT
HETATM    1  C           1     -26.700  -6.437 -16.784  0.00  0.00     0.189 C 
ENDROOT
BRANCH   1   2
HETATM    2  C           1     -27.732  -7.439 -16.286  0.00  0.00     0.074 C 
BRANCH   2   3
HETATM    3  C           1     -29.108  -6.881 -16.484  0.00  0.00    -0.056 A 
HETATM    4  C           1     -29.978  -7.479 -17.396  0.00  0.00     0.010 A 
HETATM    5  C           1     -31.258  -6.959 -17.580  0.00  0.00     0.037 A 
HETATM    6  C           1     -31.670  -5.842 -16.852  0.00  0.00     0.065 A 
HETATM    7  C           1     -30.799  -5.245 -15.941  0.00  0.00     0.037 A 
HETATM    8  C           1     -29.518  -5.765 -15.756  0.00  0.00     0.010 A 
BRANCH   6   9
HETATM    9  O           1     -32.915  -5.337 -17.030  0.00  0.00    -0.361 OA
HETATM   10  H           1     -32.893  -4.394 -16.796  0.00  0.00     0.217 HD
ENDBRANCH   6   9
ENDBRANCH   2   3
ENDBRANCH   1   2
BRANCH   1  11
HETATM   11  C           1     -25.496  -6.460 -15.876  0.00  0.00     0.197 C 
HETATM   12  O           1     -24.923  -5.391 -15.570  0.00  0.00    -0.646 OA
HETATM   13  O           1     -25.069  -7.547 -15.430  0.00  0.00    -0.646 OA
ENDBRANCH   1  11
BRANCH   1  14
HETATM   14  N           1     -26.296  -6.788 -18.131  0.00  0.00    -0.344 N 
HETATM   15  C           1     -26.948  -6.246 -19.206  0.00  0.00     0.251 C 
HETATM   16  O           1     -27.861  -5.474 -19.031  0.00  0.00    -0.271 OA
HETATM   17  H           1     -25.532  -7.435 -18.277  0.00  0.00     0.163 HD
BRANCH  15  18
HETATM   18  C           1     -26.527  -6.612 -20.608  0.00  0.00     0.302 C 
BRANCH  18  19
HETATM   19  C           1     -26.465  -8.128 -20.740  0.00  0.00     0.153 C 
HETATM   20  C           1     -27.842  -8.661 -21.107  0.00  0.00     0.042 C 
BRANCH  19  21
HETATM   21  O           1     -25.547  -8.474 -21.742  0.00  0.00    -0.393 OA
HETATM   22  H           1     -25.054  -7.697 -21.941  0.00  0.00     0.210 HD
ENDBRANCH  19  21
ENDBRANCH  18  19
BRANCH  18  23
HETATM   23  N           1     -25.173  -6.030 -20.890  0.00  0.00    -0.064 N 
HETATM   24  H           1     -25.229  -4.987 -20.859  0.00  0.00     0.275 HD
HETATM   25  H           1     -24.493  -6.365 -20.170  0.00  0.00     0.275 HD
HETATM   26  H           1     -24.853  -6.334 -21.838  0.00  0.00     0.275 HD
ENDBRANCH  18  23
ENDBRANCH  15  18
ENDBRANCH   1  14
TORSDOF 9
ENDMDL
MODEL 7
REMARK VINA RESULT:      -6.0      5.442      8.787
REMARK  9 active torsions:
REMARK  status: ('A' for Active; 'I' for Inactive)
REMARK    1  A    between atoms: C_2  and  C_5 
REMARK    2  A    between atoms: C_2  and  C_16 
REMARK    3  A    between atoms: C_2  and  N_9 
REMARK    4  A    between atoms: O_4  and  C_14 
REMARK    5  A    between atoms: C_5  and  C_22 
REMARK       I    between atoms: C_7  and  N_9 
REMARK    6  A    between atoms: C_7  and  C_15 
REMARK    7  A    between atoms: C_11  and  C_15 
REMARK    8  A    between atoms: C_11  and  O_12 
REMARK    9  A    between atoms: C_15  and  N_25 
ROOT
HETATM    1  C           1     -21.860  -8.166  -2.017  0.00  0.00     0.189 C 
ENDROOT
BRANCH   1   2
HETATM    2  C           1     -21.427  -8.486  -0.593  0.00  0.00     0.074 C 
BRANCH   2   3
HETATM    3  C           1     -21.968  -9.825  -0.196  0.00  0.00    -0.056 A 
HETATM    4  C           1     -23.320 -10.113  -0.378  0.00  0.00     0.010 A 
HETATM    5  C           1     -23.824 -11.360  -0.008  0.00  0.00     0.037 A 
HETATM    6  C           1     -22.975 -12.320   0.544  0.00  0.00     0.065 A 
HETATM    7  C           1     -21.622 -12.031   0.726  0.00  0.00     0.037 A 
HETATM    8  C           1     -21.118 -10.784   0.356  0.00  0.00     0.010 A 
BRANCH   6   9
HETATM    9  O           1     -23.463 -13.531   0.904  0.00  0.00    -0.361 OA
HETATM   10  H           1     -24.433 -13.493   0.849  0.00  0.00     0.217 HD
ENDBRANCH   6   9
ENDBRANCH   2   3
ENDBRANCH   1   2
BRANCH   1  11
HETATM   11  C           1     -22.025  -6.674  -2.169  0.00  0.00     0.197 C 
HETATM   12  O           1     -22.342  -5.976  -1.182  0.00  0.00    -0.646 OA
HETATM   13  O           1     -21.843  -6.136  -3.283  0.00  0.00    -0.646 OA
ENDBRANCH   1  11
BRANCH   1  14
HETATM   14  N           1     -20.852  -8.637  -2.946  0.00  0.00    -0.344 N 
HETATM   15  C           1     -21.139  -9.663  -3.807  0.00  0.00     0.251 C 
HETATM   16  O           1     -22.233 -10.175  -3.791  0.00  0.00    -0.271 OA
HETATM   17  H           1     -19.935  -8.208  -2.958  0.00  0.00     0.163 HD
BRANCH  15  18
HETATM   18  C           1     -20.089 -10.153  -4.774  0.00  0.00     0.302 C 
BRANCH  18  19
HETATM   19  C           1     -19.077  -9.045  -5.029  0.00  0.00     0.153 C 
HETATM   20  C           1     -17.912  -9.599  -5.838  0.00  0.00     0.042 C 
BRANCH  19  21
HETATM   21  O           1     -19.690  -8.006  -5.744  0.00  0.00    -0.393 OA
HETATM   22  H           1     -19.160  -7.237  -5.618  0.00  0.00     0.210 HD
ENDBRANCH  19  21
ENDBRANCH  18  19
BRANCH  18  23
HETATM   23  N           1     -20.744 -10.539  -6.067  0.00  0.00    -0.064 N 
HETATM   24  H           1     -20.253 -11.368  -6.472  0.00  0.00     0.275 HD
HETATM   25  H           1     -21.747 -10.777  -5.892  0.00  0.00     0.275 HD
HETATM   26  H           1     -20.689  -9.739  -6.738  0.00  0.00     0.275 HD
ENDBRANCH  18  23
ENDBRANCH  15  18
ENDBRANCH   1  14
TORSDOF 9
ENDMDL
MODEL 8
REMARK VINA RESULT:      -6.0      2.440      3.902
REMARK  9 active torsions:
REMARK  status: ('A' for Active; 'I' for Inactive)
REMARK    1  A    between atoms: C_2  and  C_5 
REMARK    2  A    between atoms: C_2  and  C_16 
REMARK    3  A    between atoms: C_2  and  N_9 
REMARK    4  A    between atoms: O_4  and  C_14 
REMARK    5  A    between atoms: C_5  and  C_22 
REMARK       I    between atoms: C_7  and  N_9 
REMARK    6  A    between atoms: C_7  and  C_15 
REMARK    7  A    between atoms: C_11  and  C_15 
REMARK    8  A    between atoms: C_11  and  O_12 
REMARK    9  A    between atoms: C_15  and  N_25 
ROOT
HETATM    1  C           1     -21.438  -7.260  -4.092  0.00  0.00     0.189 C 
ENDROOT
BRANCH   1   2
HETATM    2  C           1     -22.411  -6.443  -4.931  0.00  0.00     0.074 C 
BRANCH   2   3
HETATM    3  C           1     -21.647  -5.617  -5.920  0.00  0.00    -0.056 A 
HETATM    4  C           1     -22.330  -4.881  -6.888  0.00  0.00     0.010 A 
HETATM    5  C           1     -21.618  -4.113  -7.809  0.00  0.00     0.037 A 
HETATM    6  C           1     -20.225  -4.079  -7.762  0.00  0.00     0.065 A 
HETATM    7  C           1     -19.543  -4.816  -6.793  0.00  0.00     0.037 A 
HETATM    8  C           1     -20.254  -5.585  -5.872  0.00  0.00     0.010 A 
BRANCH   6   9
HETATM    9  O           1     -19.533  -3.332  -8.657  0.00  0.00    -0.361 OA
HETATM   10  H           1     -19.981  -3.403  -9.516  0.00  0.00     0.217 HD
ENDBRANCH   6   9
ENDBRANCH   2   3
ENDBRANCH   1   2
BRANCH   1  11
HETATM   11  C           1     -21.594  -6.893  -2.638  0.00  0.00     0.197 C 
HETATM   12  O           1     -22.380  -5.979  -2.304  0.00  0.00    -0.646 OA
HETATM   13  O           1     -20.938  -7.502  -1.765  0.00  0.00    -0.646 OA
ENDBRANCH   1  11
BRANCH   1  14
HETATM   14  N           1     -21.718  -8.672  -4.266  0.00  0.00    -0.344 N 
HETATM   15  C           1     -20.882  -9.449  -5.024  0.00  0.00     0.251 C 
HETATM   16  O           1     -19.911  -8.956  -5.547  0.00  0.00    -0.271 OA
HETATM   17  H           1     -22.532  -9.083  -3.828  0.00  0.00     0.163 HD
BRANCH  15  18
HETATM   18  C           1     -21.175 -10.918  -5.204  0.00  0.00     0.302 C 
BRANCH  18  19
HETATM   19  C           1     -20.367 -11.724  -4.196  0.00  0.00     0.153 C 
HETATM   20  C           1     -19.203 -12.401  -4.907  0.00  0.00     0.042 C 
BRANCH  19  21
HETATM   21  O           1     -19.873 -10.870  -3.201  0.00  0.00    -0.393 OA
HETATM   22  H           1     -20.292 -11.117  -2.394  0.00  0.00     0.210 HD
ENDBRANCH  19  21
ENDBRANCH  18  19
BRANCH  18  23
HETATM   23  N           1     -20.798 -11.334  -6.595  0.00  0.00    -0.064 N 
HETATM   24  H           1     -21.566 -11.081  -7.255  0.00  0.00     0.275 HD
HETATM   25  H           1     -19.918 -10.846  -6.878  0.00  0.00     0.275 HD
HETATM   26  H           1     -20.644 -12.369  -6.619  0.00  0.00     0.275 HD
ENDBRANCH  18  23
ENDBRANCH  15  18
ENDBRANCH   1  14
TORSDOF 9
ENDMDL
MODEL 9
REMARK VINA RESULT:      -5.9      5.857      8.044
REMARK  9 active torsions:
REMARK  status: ('A' for Active; 'I' for Inactive)
REMARK    1  A    between atoms: C_2  and  C_5 
REMARK    2  A    between atoms: C_2  and  C_16 
REMARK    3  A    between atoms: C_2  and  N_9 
REMARK    4  A    between atoms: O_4  and  C_14 
REMARK    5  A    between atoms: C_5  and  C_22 
REMARK       I    between atoms: C_7  and  N_9 
REMARK    6  A    between atoms: C_7  and  C_15 
REMARK    7  A    between atoms: C_11  and  C_15 
REMARK    8  A    between atoms: C_11  and  O_12 
REMARK    9  A    between atoms: C_15  and  N_25 
ROOT
HETATM    1  C           1     -19.661  -9.507  -3.905  0.00  0.00     0.189 C 
ENDROOT
BRANCH   1   2
HETATM    2  C           1     -20.217  -8.101  -3.724  0.00  0.00     0.074 C 
BRANCH   2   3
HETATM    3  C           1     -21.093  -8.061  -2.510  0.00  0.00    -0.056 A 
HETATM    4  C           1     -21.408  -9.243  -1.839  0.00  0.00     0.010 A 
HETATM    5  C           1     -22.223  -9.206  -0.709  0.00  0.00     0.037 A 
HETATM    6  C           1     -22.724  -7.988  -0.249  0.00  0.00     0.065 A 
HETATM    7  C           1     -22.409  -6.807  -0.921  0.00  0.00     0.037 A 
HETATM    8  C           1     -21.593  -6.843  -2.052  0.00  0.00     0.010 A 
BRANCH   6   9
HETATM    9  O           1     -23.517  -7.952   0.850  0.00  0.00    -0.361 OA
HETATM   10  H           1     -23.741  -7.023   1.028  0.00  0.00     0.217 HD
ENDBRANCH   6   9
ENDBRANCH   2   3
ENDBRANCH   1   2
BRANCH   1  11
HETATM   11  C           1     -19.896  -9.963  -5.323  0.00  0.00     0.197 C 
HETATM   12  O           1     -18.948 -10.423  -5.997  0.00  0.00    -0.646 OA
HETATM   13  O           1     -21.037  -9.882  -5.826  0.00  0.00    -0.646 OA
ENDBRANCH   1  11
BRANCH   1  14
HETATM   14  N           1     -18.238  -9.503  -3.628  0.00  0.00    -0.344 N 
HETATM   15  C           1     -17.695 -10.463  -2.816  0.00  0.00     0.251 C 
HETATM   16  O           1     -18.403 -11.312  -2.330  0.00  0.00    -0.271 OA
HETATM   17  H           1     -17.646  -8.790  -4.036  0.00  0.00     0.163 HD
BRANCH  15  18
HETATM   18  C           1     -16.213 -10.458  -2.529  0.00  0.00     0.302 C 
BRANCH  18  19
HETATM   19  C           1     -15.468 -11.088  -3.698  0.00  0.00     0.153 C 
HETATM   20  C           1     -14.703 -12.311  -3.211  0.00  0.00     0.042 C 
BRANCH  19  21
HETATM   21  O           1     -16.385 -11.474  -4.685  0.00  0.00    -0.393 OA
HETATM   22  H           1     -16.779 -12.279  -4.394  0.00  0.00     0.210 HD
ENDBRANCH  19  21
ENDBRANCH  18  19
BRANCH  18  23
HETATM   23  N           1     -15.945 -11.247  -1.282  0.00  0.00    -0.064 N 
HETATM   24  H           1     -16.266 -10.703  -0.450  0.00  0.00     0.275 HD
HETATM   25  H           1     -16.459 -12.155  -1.326  0.00  0.00     0.275 HD
HETATM   26  H           1     -14.918 -11.432  -1.201  0.00  0.00     0.275 HD
ENDBRANCH  18  23
ENDBRANCH  15  18
ENDBRANCH   1  14
TORSDOF 9
ENDMDL
