MODEL 1
REMARK VINA RESULT:      -7.3      0.000      0.000
REMARK  9 active torsions:
REMARK  status: ('A' for Active; 'I' for Inactive)
REMARK    1  A    between atoms: C_1  and  C_10 
REMARK    2  A    between atoms: C_1  and  C_8 
REMARK    3  A    between atoms: C_1  and  N_21 
REMARK    4  A    between atoms: C_2  and  O_3 
REMARK    5  A    between atoms: N_6  and  C_18 
REMARK       I    between atoms: N_6  and  C_10 
REMARK    6  A    between atoms: C_8  and  C_23 
REMARK    7  A    between atoms: C_11  and  C_17 
REMARK    8  A    between atoms: C_17  and  C_18 
REMARK    9  A    between atoms: C_18  and  C_19 
ROOT
HETATM    1  N           1     -20.969  -5.147  -5.134  0.00  0.00    -0.344 N 
HETATM    2  C           1     -21.307  -6.239  -4.380  0.00  0.00     0.249 C 
HETATM    3  O           1     -21.640  -7.266  -4.922  0.00  0.00    -0.271 OA
HETATM    4  H           1     -20.691  -4.286  -4.681  0.00  0.00     0.163 HD
ENDROOT
BRANCH   1   5
HETATM    5  C           1     -21.009  -5.225  -6.581  0.00  0.00     0.189 C 
BRANCH   5   6
HETATM    6  C           1     -21.480  -3.891  -7.146  0.00  0.00     0.074 C 
BRANCH   6   7
HETATM    7  C           1     -22.039  -4.099  -8.519  0.00  0.00    -0.056 A 
HETATM    8  C           1     -21.187  -4.106  -9.625  0.00  0.00     0.010 A 
HETATM    9  C           1     -21.707  -4.300 -10.904  0.00  0.00     0.037 A 
HETATM   10  C           1     -23.078  -4.488 -11.079  0.00  0.00     0.065 A 
HETATM   11  C           1     -23.930  -4.482  -9.974  0.00  0.00     0.037 A 
HETATM   12  C           1     -23.410  -4.288  -8.694  0.00  0.00     0.010 A 
BRANCH  10  13
HETATM   13  O           1     -23.583  -4.676 -12.322  0.00  0.00    -0.361 OA
HETATM   14  H           1     -23.574  -3.820 -12.783  0.00  0.00     0.217 HD
ENDBRANCH  10  13
ENDBRANCH   6   7
ENDBRANCH   5   6
BRANCH   5  15
HETATM   15  C           1     -19.629  -5.536  -7.106  0.00  0.00     0.197 C 
HETATM   16  O           1     -19.316  -6.714  -7.380  0.00  0.00    -0.646 OA
HETATM   17  O           1     -18.799  -4.615  -7.267  0.00  0.00    -0.646 OA
ENDBRANCH   5  15
ENDBRANCH   1   5
BRANCH   2  18
HETATM   18  C           1     -21.265  -6.159  -2.873  0.00  0.00     0.275 C 
BRANCH  18  19
HETATM   19  C           1     -20.704  -7.458  -2.311  0.00  0.00     0.046 C 
BRANCH  19  20
HETATM   20  C           1     -21.765  -8.142  -1.459  0.00  0.00    -0.020 C 
HETATM   21  C           1     -21.307  -8.174  -0.007  0.00  0.00     0.009 C 
HETATM   22  C           1     -21.973  -9.568  -1.956  0.00  0.00     0.009 C 
ENDBRANCH  19  20
ENDBRANCH  18  19
BRANCH  18  23
HETATM   23  N           1     -22.652  -5.944  -2.346  0.00  0.00    -0.066 N 
HETATM   24  H           1     -23.070  -5.098  -2.798  0.00  0.00     0.275 HD
HETATM   25  H           1     -23.241  -6.779  -2.564  0.00  0.00     0.275 HD
HETATM   26  H           1     -22.614  -5.804  -1.312  0.00  0.00     0.275 HD
ENDBRANCH  18  23
ENDBRANCH   2  18
TORSDOF 9
ENDMDL
MODEL 2
REMARK VINA RESULT:      -7.2      1.609      2.191
REMARK  9 active torsions:
REMARK  status: ('A' for Active; 'I' for Inactive)
REMARK    1  A    between atoms: C_1  and  C_10 
REMARK    2  A    between atoms: C_1  and  C_8 
REMARK    3  A    between atoms: C_1  and  N_21 
REMARK    4  A    between atoms: C_2  and  O_3 
REMARK    5  A    between atoms: N_6  and  C_18 
REMARK       I    between atoms: N_6  and  C_10 
REMARK    6  A    between atoms: C_8  and  C_23 
REMARK    7  A    between atoms: C_11  and  C_17 
REMARK    8  A    between atoms: C_17  and  C_18 
REMARK    9  A    between atoms: C_18  and  C_19 
ROOT
HETATM    1  N           1     -21.592  -6.350  -5.903  0.00  0.00    -0.344 N 
HETATM    2  C           1     -20.916  -7.477  -5.520  0.00  0.00     0.249 C 
HETATM    3  O           1     -19.855  -7.747  -6.031  0.00  0.00    -0.271 OA
HETATM    4  H           1     -22.481  -6.124  -5.476  0.00  0.00     0.163 HD
ENDROOT
BRANCH   1   5
HETATM    5  C           1     -21.036  -5.481  -6.921  0.00  0.00     0.189 C 
BRANCH   5   6
HETATM    6  C           1     -22.091  -4.477  -7.363  0.00  0.00     0.074 C 
BRANCH   6   7
HETATM    7  C           1     -22.008  -4.282  -8.845  0.00  0.00    -0.056 A 
HETATM    8  C           1     -23.146  -3.917  -9.564  0.00  0.00     0.010 A 
HETATM    9  C           1     -23.070  -3.735 -10.945  0.00  0.00     0.037 A 
HETATM   10  C           1     -21.856  -3.918 -11.606  0.00  0.00     0.065 A 
HETATM   11  C           1     -20.717  -4.282 -10.886  0.00  0.00     0.037 A 
HETATM   12  C           1     -20.794  -4.464  -9.506  0.00  0.00     0.010 A 
BRANCH  10  13
HETATM   13  O           1     -21.781  -3.741 -12.947  0.00  0.00    -0.361 OA
HETATM   14  H           1     -21.573  -4.600 -13.352  0.00  0.00     0.217 HD
ENDBRANCH  10  13
ENDBRANCH   6   7
ENDBRANCH   5   6
BRANCH   5  15
HETATM   15  C           1     -19.844  -4.746  -6.358  0.00  0.00     0.197 C 
HETATM   16  O           1     -19.883  -4.291  -5.195  0.00  0.00    -0.646 OA
HETATM   17  O           1     -18.818  -4.591  -7.055  0.00  0.00    -0.646 OA
ENDBRANCH   5  15
ENDBRANCH   1   5
BRANCH   2  18
HETATM   18  C           1     -21.496  -8.382  -4.460  0.00  0.00     0.275 C 
BRANCH  18  19
HETATM   19  C           1     -20.771  -8.146  -3.140  0.00  0.00     0.046 C 
BRANCH  19  20
HETATM   20  C           1     -21.774  -7.707  -2.082  0.00  0.00    -0.020 C 
HETATM   21  C           1     -22.007  -6.207  -2.193  0.00  0.00     0.009 C 
HETATM   22  C           1     -21.227  -8.034  -0.698  0.00  0.00     0.009 C 
ENDBRANCH  19  20
ENDBRANCH  18  19
BRANCH  18  23
HETATM   23  N           1     -21.324  -9.812  -4.876  0.00  0.00    -0.066 N 
HETATM   24  H           1     -21.401  -9.884  -5.916  0.00  0.00     0.275 HD
HETATM   25  H           1     -20.383 -10.152  -4.573  0.00  0.00     0.275 HD
HETATM   26  H           1     -22.066 -10.396  -4.429  0.00  0.00     0.275 HD
ENDBRANCH  18  23
ENDBRANCH   2  18
TORSDOF 9
ENDMDL
MODEL 3
REMARK VINA RESULT:      -7.0     13.753     17.152
REMARK  9 active torsions:
REMARK  status: ('A' for Active; 'I' for Inactive)
REMARK    1  A    between atoms: C_1  and  C_10 
REMARK    2  A    between atoms: C_1  and  C_8 
REMARK    3  A    between atoms: C_1  and  N_21 
REMARK    4  A    between atoms: C_2  and  O_3 
REMARK    5  A    between atoms: N_6  and  C_18 
REMARK       I    between atoms: N_6  and  C_10 
REMARK    6  A    between atoms: C_8  and  C_23 
REMARK    7  A    between atoms: C_11  and  C_17 
REMARK    8  A    between atoms: C_17  and  C_18 
REMARK    9  A    between atoms: C_18  and  C_19 
ROOT
HETATM    1  N           1     -35.988   0.017 -11.437  0.00  0.00    -0.344 N 
HETATM    2  C           1     -36.627  -0.020 -12.647  0.00  0.00     0.249 C 
HETATM    3  O           1     -37.779  -0.379 -12.711  0.00  0.00    -0.271 OA
HETATM    4  H           1     -35.023   0.317 -11.383  0.00  0.00     0.163 HD
ENDROOT
BRANCH   1   5
HETATM    5  C           1     -36.694  -0.375 -10.233  0.00  0.00     0.189 C 
BRANCH   5   6
HETATM    6  C           1     -35.792  -1.259  -9.382  0.00  0.00     0.074 C 
BRANCH   6   7
HETATM    7  C           1     -35.029  -2.195 -10.267  0.00  0.00    -0.056 A 
HETATM    8  C           1     -33.656  -2.023 -10.442  0.00  0.00     0.010 A 
HETATM    9  C           1     -32.944  -2.895 -11.267  0.00  0.00     0.037 A 
HETATM   10  C           1     -33.605  -3.938 -11.915  0.00  0.00     0.065 A 
HETATM   11  C           1     -34.978  -4.109 -11.739  0.00  0.00     0.037 A 
HETATM   12  C           1     -35.690  -3.238 -10.915  0.00  0.00     0.010 A 
BRANCH  10  13
HETATM   13  O           1     -32.914  -4.784 -12.716  0.00  0.00    -0.361 OA
HETATM   14  H           1     -32.634  -5.544 -12.179  0.00  0.00     0.217 HD
ENDBRANCH  10  13
ENDBRANCH   6   7
ENDBRANCH   5   6
BRANCH   5  15
HETATM   15  C           1     -37.075   0.858  -9.450  0.00  0.00     0.197 C 
HETATM   16  O           1     -36.391   1.209  -8.465  0.00  0.00    -0.646 OA
HETATM   17  O           1     -38.075   1.528  -9.786  0.00  0.00    -0.646 OA
ENDBRANCH   5  15
ENDBRANCH   1   5
BRANCH   2  18
HETATM   18  C           1     -35.893   0.388 -13.901  0.00  0.00     0.275 C 
BRANCH  18  19
HETATM   19  C           1     -35.424  -0.857 -14.642  0.00  0.00     0.046 C 
BRANCH  19  20
HETATM   20  C           1     -35.719  -0.705 -16.129  0.00  0.00    -0.020 C 
HETATM   21  C           1     -37.225  -0.704 -16.350  0.00  0.00     0.009 C 
HETATM   22  C           1     -35.096  -1.867 -16.892  0.00  0.00     0.009 C 
ENDBRANCH  19  20
ENDBRANCH  18  19
BRANCH  18  23
HETATM   23  N           1     -34.706   1.227 -13.533  0.00  0.00    -0.066 N 
HETATM   24  H           1     -34.871   2.215 -13.831  0.00  0.00     0.275 HD
HETATM   25  H           1     -34.565   1.196 -12.498  0.00  0.00     0.275 HD
HETATM   26  H           1     -33.855   0.856 -14.011  0.00  0.00     0.275 HD
ENDBRANCH  18  23
ENDBRANCH   2  18
TORSDOF 9
ENDMDL
MODEL 4
REMARK VINA RESULT:      -7.0      2.237      7.464
REMARK  9 active torsions:
REMARK  status: ('A' for Active; 'I' for Inactive)
REMARK    1  A    between atoms: C_1  and  C_10 
REMARK    2  A    between atoms: C_1  and  C_8 
REMARK    3  A    between atoms: C_1  and  N_21 
REMARK    4  A    between atoms: C_2  and  O_3 
REMARK    5  A    between atoms: N_6  and  C_18 
REMARK       I    between atoms: N_6  and  C_10 
REMARK    6  A    between atoms: C_8  and  C_23 
REMARK    7  A    between atoms: C_11  and  C_17 
REMARK    8  A    between atoms: C_17  and  C_18 
REMARK    9  A    between atoms: C_18  and  C_19 
ROOT
HETATM    1  N           1     -21.749  -5.105  -7.486  0.00  0.00    -0.344 N 
HETATM    2  C           1     -22.994  -4.574  -7.693  0.00  0.00     0.249 C 
HETATM    3  O           1     -23.721  -4.355  -6.754  0.00  0.00    -0.271 OA
HETATM    4  H           1     -21.140  -5.290  -8.273  0.00  0.00     0.163 HD
ENDROOT
BRANCH   1   5
HETATM    5  C           1     -21.304  -5.403  -6.139  0.00  0.00     0.189 C 
BRANCH   5   6
HETATM    6  C           1     -21.218  -6.912  -5.956  0.00  0.00     0.074 C 
BRANCH   6   7
HETATM    7  C           1     -21.130  -7.235  -4.497  0.00  0.00    -0.056 A 
HETATM    8  C           1     -21.911  -6.531  -3.579  0.00  0.00     0.010 A 
HETATM    9  C           1     -21.830  -6.831  -2.220  0.00  0.00     0.037 A 
HETATM   10  C           1     -20.970  -7.836  -1.777  0.00  0.00     0.065 A 
HETATM   11  C           1     -20.190  -8.541  -2.695  0.00  0.00     0.037 A 
HETATM   12  C           1     -20.271  -8.241  -4.054  0.00  0.00     0.010 A 
BRANCH  10  13
HETATM   13  O           1     -20.891  -8.128  -0.457  0.00  0.00    -0.361 OA
HETATM   14  H           1     -20.134  -8.724  -0.325  0.00  0.00     0.217 HD
ENDBRANCH  10  13
ENDBRANCH   6   7
ENDBRANCH   5   6
BRANCH   5  15
HETATM   15  C           1     -19.943  -4.789  -5.913  0.00  0.00     0.197 C 
HETATM   16  O           1     -19.656  -4.301  -4.799  0.00  0.00    -0.646 OA
HETATM   17  O           1     -19.104  -4.770  -6.839  0.00  0.00    -0.646 OA
ENDBRANCH   5  15
ENDBRANCH   1   5
BRANCH   2  18
HETATM   18  C           1     -23.458  -4.264  -9.096  0.00  0.00     0.275 C 
BRANCH  18  19
HETATM   19  C           1     -22.378  -3.477  -9.825  0.00  0.00     0.046 C 
BRANCH  19  20
HETATM   20  C           1     -21.868  -4.290 -11.008  0.00  0.00    -0.020 C 
HETATM   21  C           1     -20.351  -4.403 -10.931  0.00  0.00     0.009 C 
HETATM   22  C           1     -22.259  -3.597 -12.307  0.00  0.00     0.009 C 
ENDBRANCH  19  20
ENDBRANCH  18  19
BRANCH  18  23
HETATM   23  N           1     -24.716  -3.449  -9.036  0.00  0.00    -0.066 N 
HETATM   24  H           1     -25.539  -4.065  -9.224  0.00  0.00     0.275 HD
HETATM   25  H           1     -24.810  -3.024  -8.087  0.00  0.00     0.275 HD
HETATM   26  H           1     -24.675  -2.692  -9.755  0.00  0.00     0.275 HD
ENDBRANCH  18  23
ENDBRANCH   2  18
TORSDOF 9
ENDMDL
MODEL 5
REMARK VINA RESULT:      -6.9     13.422     16.099
REMARK  9 active torsions:
REMARK  status: ('A' for Active; 'I' for Inactive)
REMARK    1  A    between atoms: C_1  and  C_10 
REMARK    2  A    between atoms: C_1  and  C_8 
REMARK    3  A    between atoms: C_1  and  N_21 
REMARK    4  A    between atoms: C_2  and  O_3 
REMARK    5  A    between atoms: N_6  and  C_18 
REMARK       I    between atoms: N_6  and  C_10 
REMARK    6  A    between atoms: C_8  and  C_23 
REMARK    7  A    between atoms: C_11  and  C_17 
REMARK    8  A    between atoms: C_17  and  C_18 
REMARK    9  A    between atoms: C_18  and  C_19 
ROOT
HETATM    1  N           1     -36.612   0.416 -10.196  0.00  0.00    -0.344 N 
HETATM    2  C           1     -36.293   0.350  -8.866  0.00  0.00     0.249 C 
HETATM    3  O           1     -35.442  -0.420  -8.487  0.00  0.00    -0.271 OA
HETATM    4  H           1     -37.325   1.060 -10.514  0.00  0.00     0.163 HD
ENDROOT
BRANCH   1   5
HETATM    5  C           1     -35.928  -0.436 -11.148  0.00  0.00     0.189 C 
BRANCH   5   6
HETATM    6  C           1     -36.275  -1.892 -10.866  0.00  0.00     0.074 C 
BRANCH   6   7
HETATM    7  C           1     -35.104  -2.761 -11.204  0.00  0.00    -0.056 A 
HETATM    8  C           1     -35.311  -4.056 -11.678  0.00  0.00     0.010 A 
HETATM    9  C           1     -34.220  -4.866 -11.993  0.00  0.00     0.037 A 
HETATM   10  C           1     -32.922  -4.381 -11.834  0.00  0.00     0.065 A 
HETATM   11  C           1     -32.715  -3.085 -11.361  0.00  0.00     0.037 A 
HETATM   12  C           1     -33.806  -2.275 -11.045  0.00  0.00     0.010 A 
BRANCH  10  13
HETATM   13  O           1     -31.863  -5.167 -12.140  0.00  0.00    -0.361 OA
HETATM   14  H           1     -32.080  -5.664 -12.947  0.00  0.00     0.217 HD
ENDBRANCH  10  13
ENDBRANCH   6   7
ENDBRANCH   5   6
BRANCH   5  15
HETATM   15  C           1     -36.364  -0.077 -12.548  0.00  0.00     0.197 C 
HETATM   16  O           1     -37.290  -0.712 -13.097  0.00  0.00    -0.646 OA
HETATM   17  O           1     -35.797   0.855 -13.159  0.00  0.00    -0.646 OA
ENDBRANCH   5  15
ENDBRANCH   1   5
BRANCH   2  18
HETATM   18  C           1     -37.005   1.238  -7.875  0.00  0.00     0.275 C 
BRANCH  18  19
HETATM   19  C           1     -37.963   0.399  -7.039  0.00  0.00     0.046 C 
BRANCH  19  20
HETATM   20  C           1     -37.386   0.211  -5.642  0.00  0.00    -0.020 C 
HETATM   21  C           1     -38.064  -0.973  -4.967  0.00  0.00     0.009 C 
HETATM   22  C           1     -37.627   1.470  -4.818  0.00  0.00     0.009 C 
ENDBRANCH  19  20
ENDBRANCH  18  19
BRANCH  18  23
HETATM   23  N           1     -37.776   2.291  -8.612  0.00  0.00    -0.066 N 
HETATM   24  H           1     -37.488   3.237  -8.272  0.00  0.00     0.275 HD
HETATM   25  H           1     -37.577   2.216  -9.635  0.00  0.00     0.275 HD
HETATM   26  H           1     -38.798   2.157  -8.445  0.00  0.00     0.275 HD
ENDBRANCH  18  23
ENDBRANCH   2  18
TORSDOF 9
ENDMDL
MODEL 6
REMARK VINA RESULT:      -6.8      2.496      7.492
REMARK  9 active torsions:
REMARK  status: ('A' for Active; 'I' for Inactive)
REMARK    1  A    between atoms: C_1  and  C_10 
REMARK    2  A    between atoms: C_1  and  C_8 
REMARK    3  A    between atoms: C_1  and  N_21 
REMARK    4  A    between atoms: C_2  and  O_3 
REMARK    5  A    between atoms: N_6  and  C_18 
REMARK       I    between atoms: N_6  and  C_10 
REMARK    6  A    between atoms: C_8  and  C_23 
REMARK    7  A    between atoms: C_11  and  C_17 
REMARK    8  A    between atoms: C_17  and  C_18 
REMARK    9  A    between atoms: C_18  and  C_19 
ROOT
HETATM    1  N           1     -20.220  -6.717  -6.097  0.00  0.00    -0.344 N 
HETATM    2  C           1     -20.325  -5.358  -5.970  0.00  0.00     0.249 C 
HETATM    3  O           1     -20.317  -4.852  -4.873  0.00  0.00    -0.271 OA
HETATM    4  H           1     -20.227  -7.142  -7.015  0.00  0.00     0.163 HD
ENDROOT
BRANCH   1   5
HETATM    5  C           1     -20.097  -7.548  -4.915  0.00  0.00     0.189 C 
BRANCH   5   6
HETATM    6  C           1     -21.450  -8.165  -4.587  0.00  0.00     0.074 C 
BRANCH   6   7
HETATM    7  C           1     -21.703  -8.063  -3.115  0.00  0.00    -0.056 A 
HETATM    8  C           1     -21.683  -9.211  -2.323  0.00  0.00     0.010 A 
HETATM    9  C           1     -21.919  -9.117  -0.952  0.00  0.00     0.037 A 
HETATM   10  C           1     -22.173  -7.874  -0.372  0.00  0.00     0.065 A 
HETATM   11  C           1     -22.192  -6.726  -1.164  0.00  0.00     0.037 A 
HETATM   12  C           1     -21.957  -6.820  -2.535  0.00  0.00     0.010 A 
BRANCH  10  13
HETATM   13  O           1     -22.402  -7.782   0.960  0.00  0.00    -0.361 OA
HETATM   14  H           1     -22.834  -6.928   1.133  0.00  0.00     0.217 HD
ENDBRANCH  10  13
ENDBRANCH   6   7
ENDBRANCH   5   6
BRANCH   5  15
HETATM   15  C           1     -19.092  -8.645  -5.174  0.00  0.00     0.197 C 
HETATM   16  O           1     -18.592  -8.778  -6.311  0.00  0.00    -0.646 OA
HETATM   17  O           1     -18.762  -9.420  -4.250  0.00  0.00    -0.646 OA
ENDBRANCH   5  15
ENDBRANCH   1   5
BRANCH   2  18
HETATM   18  C           1     -20.453  -4.493  -7.200  0.00  0.00     0.275 C 
BRANCH  18  19
HETATM   19  C           1     -21.451  -5.123  -8.162  0.00  0.00     0.046 C 
BRANCH  19  20
HETATM   20  C           1     -22.073  -4.037  -9.031  0.00  0.00    -0.020 C 
HETATM   21  C           1     -23.588  -4.080  -8.891  0.00  0.00     0.009 C 
HETATM   22  C           1     -21.692  -4.273 -10.487  0.00  0.00     0.009 C 
ENDBRANCH  19  20
ENDBRANCH  18  19
BRANCH  18  23
HETATM   23  N           1     -19.116  -4.379  -7.870  0.00  0.00    -0.066 N 
HETATM   24  H           1     -18.471  -3.818  -7.269  0.00  0.00     0.275 HD
HETATM   25  H           1     -18.715  -5.334  -8.011  0.00  0.00     0.275 HD
HETATM   26  H           1     -19.229  -3.909  -8.796  0.00  0.00     0.275 HD
ENDBRANCH  18  23
ENDBRANCH   2  18
TORSDOF 9
ENDMDL
MODEL 7
REMARK VINA RESULT:      -6.6      2.459      7.624
REMARK  9 active torsions:
REMARK  status: ('A' for Active; 'I' for Inactive)
REMARK    1  A    between atoms: C_1  and  C_10 
REMARK    2  A    between atoms: C_1  and  C_8 
REMARK    3  A    between atoms: C_1  and  N_21 
REMARK    4  A    between atoms: C_2  and  O_3 
REMARK    5  A    between atoms: N_6  and  C_18 
REMARK       I    between atoms: N_6  and  C_10 
REMARK    6  A    between atoms: C_8  and  C_23 
REMARK    7  A    between atoms: C_11  and  C_17 
REMARK    8  A    between atoms: C_17  and  C_18 
REMARK    9  A    between atoms: C_18  and  C_19 
ROOT
HETATM    1  N           1     -20.822  -7.004  -6.098  0.00  0.00    -0.344 N 
HETATM    2  C           1     -20.975  -5.647  -6.001  0.00  0.00     0.249 C 
HETATM    3  O           1     -20.691  -5.080  -4.973  0.00  0.00    -0.271 OA
HETATM    4  H           1     -21.060  -7.480  -6.959  0.00  0.00     0.163 HD
ENDROOT
BRANCH   1   5
HETATM    5  C           1     -20.318  -7.759  -4.968  0.00  0.00     0.189 C 
BRANCH   5   6
HETATM    6  C           1     -21.427  -8.645  -4.415  0.00  0.00     0.074 C 
BRANCH   6   7
HETATM    7  C           1     -21.572  -8.405  -2.945  0.00  0.00    -0.056 A 
HETATM    8  C           1     -21.902  -7.134  -2.475  0.00  0.00     0.010 A 
HETATM    9  C           1     -22.038  -6.910  -1.105  0.00  0.00     0.037 A 
HETATM   10  C           1     -21.845  -7.957  -0.205  0.00  0.00     0.065 A 
HETATM   11  C           1     -21.516  -9.229  -0.675  0.00  0.00     0.037 A 
HETATM   12  C           1     -21.380  -9.453  -2.045  0.00  0.00     0.010 A 
BRANCH  10  13
HETATM   13  O           1     -21.977  -7.740   1.126  0.00  0.00    -0.361 OA
HETATM   14  H           1     -22.770  -8.212   1.430  0.00  0.00     0.217 HD
ENDBRANCH  10  13
ENDBRANCH   6   7
ENDBRANCH   5   6
BRANCH   5  15
HETATM   15  C           1     -19.161  -8.620  -5.414  0.00  0.00     0.197 C 
HETATM   16  O           1     -18.527  -8.326  -6.450  0.00  0.00    -0.646 OA
HETATM   17  O           1     -18.837  -9.626  -4.747  0.00  0.00    -0.646 OA
ENDBRANCH   5  15
ENDBRANCH   1   5
BRANCH   2  18
HETATM   18  C           1     -21.500  -4.861  -7.178  0.00  0.00     0.275 C 
BRANCH  18  19
HETATM   19  C           1     -20.647  -5.155  -8.405  0.00  0.00     0.046 C 
BRANCH  19  20
HETATM   20  C           1     -21.104  -4.277  -9.563  0.00  0.00    -0.020 C 
HETATM   21  C           1     -22.522  -4.660  -9.963  0.00  0.00     0.009 C 
HETATM   22  C           1     -20.171  -4.477 -10.750  0.00  0.00     0.009 C 
ENDBRANCH  19  20
ENDBRANCH  18  19
BRANCH  18  23
HETATM   23  N           1     -21.438  -3.395  -6.866  0.00  0.00    -0.066 N 
HETATM   24  H           1     -21.963  -3.204  -5.983  0.00  0.00     0.275 HD
HETATM   25  H           1     -20.441  -3.107  -6.746  0.00  0.00     0.275 HD
HETATM   26  H           1     -21.866  -2.854  -7.650  0.00  0.00     0.275 HD
ENDBRANCH  18  23
ENDBRANCH   2  18
TORSDOF 9
ENDMDL
MODEL 8
REMARK VINA RESULT:      -6.6      2.602      7.615
REMARK  9 active torsions:
REMARK  status: ('A' for Active; 'I' for Inactive)
REMARK    1  A    between atoms: C_1  and  C_10 
REMARK    2  A    between atoms: C_1  and  C_8 
REMARK    3  A    between atoms: C_1  and  N_21 
REMARK    4  A    between atoms: C_2  and  O_3 
REMARK    5  A    between atoms: N_6  and  C_18 
REMARK       I    between atoms: N_6  and  C_10 
REMARK    6  A    between atoms: C_8  and  C_23 
REMARK    7  A    between atoms: C_11  and  C_17 
REMARK    8  A    between atoms: C_17  and  C_18 
REMARK    9  A    between atoms: C_18  and  C_19 
ROOT
HETATM    1  N           1     -20.746  -8.014  -4.358  0.00  0.00    -0.344 N 
HETATM    2  C           1     -20.504  -7.291  -5.496  0.00  0.00     0.249 C 
HETATM    3  O           1     -19.552  -7.559  -6.190  0.00  0.00    -0.271 OA
HETATM    4  H           1     -21.543  -7.789  -3.776  0.00  0.00     0.163 HD
ENDROOT
BRANCH   1   5
HETATM    5  C           1     -19.860  -9.099  -3.987  0.00  0.00     0.189 C 
BRANCH   5   6
HETATM    6  C           1     -19.398  -8.908  -2.548  0.00  0.00     0.074 C 
BRANCH   6   7
HETATM    7  C           1     -20.575  -8.574  -1.685  0.00  0.00    -0.056 A 
HETATM    8  C           1     -21.133  -7.297  -1.732  0.00  0.00     0.010 A 
HETATM    9  C           1     -22.229  -6.985  -0.928  0.00  0.00     0.037 A 
HETATM   10  C           1     -22.768  -7.951  -0.077  0.00  0.00     0.065 A 
HETATM   11  C           1     -22.210  -9.229  -0.032  0.00  0.00     0.037 A 
HETATM   12  C           1     -21.113  -9.540  -0.835  0.00  0.00     0.010 A 
BRANCH  10  13
HETATM   13  O           1     -23.832  -7.649   0.704  0.00  0.00    -0.361 OA
HETATM   14  H           1     -24.608  -8.114   0.348  0.00  0.00     0.217 HD
ENDBRANCH  10  13
ENDBRANCH   6   7
ENDBRANCH   5   6
BRANCH   5  15
HETATM   15  C           1     -20.595 -10.412  -4.110  0.00  0.00     0.197 C 
HETATM   16  O           1     -19.986 -11.488  -3.930  0.00  0.00    -0.646 OA
HETATM   17  O           1     -21.813 -10.423  -4.391  0.00  0.00    -0.646 OA
ENDBRANCH   5  15
ENDBRANCH   1   5
BRANCH   2  18
HETATM   18  C           1     -21.427  -6.161  -5.882  0.00  0.00     0.275 C 
BRANCH  18  19
HETATM   19  C           1     -20.692  -4.834  -5.737  0.00  0.00     0.046 C 
BRANCH  19  20
HETATM   20  C           1     -20.607  -4.150  -7.095  0.00  0.00    -0.020 C 
HETATM   21  C           1     -21.684  -4.711  -8.015  0.00  0.00     0.009 C 
HETATM   22  C           1     -19.235  -4.405  -7.707  0.00  0.00     0.009 C 
ENDBRANCH  19  20
ENDBRANCH  18  19
BRANCH  18  23
HETATM   23  N           1     -22.627  -6.168  -4.984  0.00  0.00    -0.066 N 
HETATM   24  H           1     -23.299  -5.430  -5.294  0.00  0.00     0.275 HD
HETATM   25  H           1     -23.092  -7.103  -5.032  0.00  0.00     0.275 HD
HETATM   26  H           1     -22.329  -5.977  -4.002  0.00  0.00     0.275 HD
ENDBRANCH  18  23
ENDBRANCH   2  18
TORSDOF 9
ENDMDL
MODEL 9
REMARK VINA RESULT:      -6.4      5.615      8.582
REMARK  9 active torsions:
REMARK  status: ('A' for Active; 'I' for Inactive)
REMARK    1  A    between atoms: C_1  and  C_10 
REMARK    2  A    between atoms: C_1  and  C_8 
REMARK    3  A    between atoms: C_1  and  N_21 
REMARK    4  A    between atoms: C_2  and  O_3 
REMARK    5  A    between atoms: N_6  and  C_18 
REMARK       I    between atoms: N_6  and  C_10 
REMARK    6  A    between atoms: C_8  and  C_23 
REMARK    7  A    between atoms: C_11  and  C_17 
REMARK    8  A    between atoms: C_17  and  C_18 
REMARK    9  A    between atoms: C_18  and  C_19 
ROOT
HETATM    1  N           1     -20.542  -8.409  -2.533  0.00  0.00    -0.344 N 
HETATM    2  C           1     -20.536  -9.336  -3.541  0.00  0.00     0.249 C 
HETATM    3  O           1     -21.570  -9.858  -3.887  0.00  0.00    -0.271 OA
HETATM    4  H           1     -19.677  -7.972  -2.242  0.00  0.00     0.163 HD
ENDROOT
BRANCH   1   5
HETATM    5  C           1     -21.787  -8.054  -1.882  0.00  0.00     0.189 C 
BRANCH   5   6
HETATM    6  C           1     -21.668  -8.313  -0.385  0.00  0.00     0.074 C 
BRANCH   6   7
HETATM    7  C           1     -22.095  -9.716  -0.084  0.00  0.00    -0.056 A 
HETATM    8  C           1     -23.418 -10.103  -0.300  0.00  0.00     0.010 A 
HETATM    9  C           1     -23.817 -11.410  -0.020  0.00  0.00     0.037 A 
HETATM   10  C           1     -22.893 -12.330   0.475  0.00  0.00     0.065 A 
HETATM   11  C           1     -21.570 -11.943   0.690  0.00  0.00     0.037 A 
HETATM   12  C           1     -21.171 -10.636   0.410  0.00  0.00     0.010 A 
BRANCH  10  13
HETATM   13  O           1     -23.280 -13.599   0.748  0.00  0.00    -0.361 OA
HETATM   14  H           1     -22.814 -14.194   0.135  0.00  0.00     0.217 HD
ENDBRANCH  10  13
ENDBRANCH   6   7
ENDBRANCH   5   6
BRANCH   5  15
HETATM   15  C           1     -22.080  -6.593  -2.119  0.00  0.00     0.197 C 
HETATM   16  O           1     -22.289  -5.832  -1.150  0.00  0.00    -0.646 OA
HETATM   17  O           1     -22.115  -6.143  -3.285  0.00  0.00    -0.646 OA
ENDBRANCH   5  15
ENDBRANCH   1   5
BRANCH   2  18
HETATM   18  C           1     -19.240  -9.705  -4.220  0.00  0.00     0.275 C 
BRANCH  18  19
HETATM   19  C           1     -18.070  -9.299  -3.333  0.00  0.00     0.046 C 
BRANCH  19  20
HETATM   20  C           1     -17.267 -10.536  -2.954  0.00  0.00    -0.020 C 
HETATM   21  C           1     -17.925 -11.225  -1.766  0.00  0.00     0.009 C 
HETATM   22  C           1     -15.849 -10.125  -2.578  0.00  0.00     0.009 C 
ENDBRANCH  19  20
ENDBRANCH  18  19
BRANCH  18  23
HETATM   23  N           1     -19.143  -8.990  -5.534  0.00  0.00    -0.066 N 
HETATM   24  H           1     -18.760  -9.639  -6.257  0.00  0.00     0.275 HD
HETATM   25  H           1     -20.094  -8.668  -5.826  0.00  0.00     0.275 HD
HETATM   26  H           1     -18.511  -8.164  -5.436  0.00  0.00     0.275 HD
ENDBRANCH  18  23
ENDBRANCH   2  18
TORSDOF 9
ENDMDL
