MODEL 1
REMARK VINA RESULT:      -7.2      0.000      0.000
REMARK  15 active torsions:
REMARK  status: ('A' for Active; 'I' for Inactive)
REMARK    1  A    between atoms: N_6  and  C_20 
REMARK    2  A    between atoms: N_6  and  C_7 
REMARK    3  A    between atoms: C_7  and  C_8 
REMARK    4  A    between atoms: C_8  and  C_38 
REMARK    5  A    between atoms: N_9  and  C_38 
REMARK       I    between atoms: N_9  and  C_28 
REMARK    6  A    between atoms: C_18  and  C_19 
REMARK    7  A    between atoms: C_19  and  C_20 
REMARK    8  A    between atoms: C_20  and  C_22 
REMARK    9  A    between atoms: C_28  and  C_29 
REMARK   10  A    between atoms: C_29  and  C_30 
REMARK   11  A    between atoms: C_29  and  N_37 
REMARK   12  A    between atoms: C_30  and  C_31 
REMARK   13  A    between atoms: C_31  and  C_32 
REMARK   14  A    between atoms: C_32  and  N_33 
REMARK       I    between atoms: N_33  and  C_34 
REMARK       I    between atoms: C_34  and  N_35 
REMARK   15  A    between atoms: C_38  and  C_39 
ROOT
HETATM    1  N           1     -21.684  -6.046  -6.328  0.00  0.00    -0.345 N 
HETATM    2  O           1     -19.872  -4.806  -6.737  0.00  0.00    -0.271 OA
HETATM    3  H           1     -22.607  -6.339  -6.622  0.00  0.00     0.163 HD
HETATM    4  C           1     -20.973  -5.156  -7.089  0.00  0.00     0.249 C 
ENDROOT
BRANCH   1   5
HETATM    5  C           1     -21.113  -6.568  -5.101  0.00  0.00     0.187 C 
BRANCH   5   6
HETATM    6  C           1     -22.151  -6.495  -3.988  0.00  0.00     0.066 C 
BRANCH   6   7
HETATM    7  C           1     -21.462  -6.155  -2.673  0.00  0.00     0.273 C 
BRANCH   7   8
HETATM    8  N           1     -22.222  -6.695  -1.579  0.00  0.00     0.098 N 
HETATM    9  H           1     -23.218  -6.597  -1.776  0.00  0.00     0.317 HD
BRANCH   8  10
HETATM   10  C           1     -21.890  -8.089  -1.461  0.00  0.00     0.325 C 
BRANCH  10  11
HETATM   11  C           1     -20.394  -8.236  -1.215  0.00  0.00     0.105 C 
BRANCH  11  12
HETATM   12  C           1     -19.844  -9.309  -2.102  0.00  0.00     0.028 A 
HETATM   13  N           1     -20.535 -10.425  -2.495  0.00  0.00    -0.355 N 
HETATM   14  C           1     -19.703 -11.098  -3.256  0.00  0.00     0.180 A 
ATOM     15  HN          1     -21.492 -10.679  -2.249  1.00  0.00     0.166 HD
HETATM   16  N           1     -18.501 -10.459  -3.369  0.00  0.00    -0.360 N 
HETATM   17  C           1     -18.576  -9.308  -2.634  0.00  0.00     0.114 A 
HETATM   18  H           1     -17.671 -10.791  -3.920  0.00  0.00     0.166 HD
ENDBRANCH  11  12
ENDBRANCH  10  11
BRANCH  10  19
HETATM   19  C           1     -22.652  -8.691  -0.306  0.00  0.00     0.207 C 
HETATM   20  O           1     -23.235  -7.949   0.513  0.00  0.00    -0.646 OA
HETATM   21  O           1     -22.700  -9.932  -0.169  0.00  0.00    -0.646 OA
ENDBRANCH  10  19
ENDBRANCH   8  10
ENDBRANCH   7   8
ENDBRANCH   6   7
ENDBRANCH   5   6
BRANCH   5  22
HETATM   22  C           1     -20.702  -8.005  -5.311  0.00  0.00     0.196 C 
HETATM   23  O           1     -21.524  -8.925  -5.118  0.00  0.00    -0.646 OA
HETATM   24  O           1     -19.538  -8.275  -5.679  0.00  0.00    -0.646 OA
ENDBRANCH   5  22
ENDBRANCH   1   5
BRANCH   4  25
HETATM   25  C           1     -21.568  -4.612  -8.364  0.00  0.00     0.274 C 
BRANCH  25  26
HETATM   26  C           1     -20.459  -4.038  -9.237  0.00  0.00     0.044 C 
BRANCH  26  27
HETATM   27  C           1     -20.728  -4.389 -10.695  0.00  0.00     0.023 C 
BRANCH  27  28
HETATM   28  C           1     -21.737  -3.407 -11.276  0.00  0.00     0.138 C 
BRANCH  28  29
HETATM   29  N           1     -21.747  -3.524 -12.741  0.00  0.00    -0.227 N 
HETATM   30  H           1     -21.010  -4.091 -13.228  0.00  0.00     0.177 HD
HETATM   31  C           1     -22.647  -2.942 -13.416  0.00  0.00     0.665 C 
HETATM   32  N           1     -22.657  -3.043 -14.678  0.00  0.00    -0.235 N 
HETATM   33  N           1     -23.560  -2.241 -12.813  0.00  0.00    -0.235 N 
HETATM   34  H           1     -23.403  -2.560 -15.237  0.00  0.00     0.174 HD
HETATM   35  H           1     -21.919  -3.610 -15.165  0.00  0.00     0.174 HD
HETATM   36  H           1     -24.302  -1.760 -13.370  0.00  0.00     0.174 HD
HETATM   37  H           1     -23.552  -2.157 -11.771  0.00  0.00     0.174 HD
ENDBRANCH  28  29
ENDBRANCH  27  28
ENDBRANCH  26  27
ENDBRANCH  25  26
BRANCH  25  38
HETATM   38  N           1     -22.554  -3.531  -8.035  0.00  0.00    -0.067 N 
HETATM   39  H           1     -22.061  -2.610  -7.996  0.00  0.00     0.275 HD
HETATM   40  H           1     -22.993  -3.731  -7.109  0.00  0.00     0.275 HD
HETATM   41  H           1     -23.295  -3.498  -8.771  0.00  0.00     0.275 HD
ENDBRANCH  25  38
ENDBRANCH   4  25
TORSDOF 15
ENDMDL
MODEL 2
REMARK VINA RESULT:      -7.1     13.832     16.707
REMARK  15 active torsions:
REMARK  status: ('A' for Active; 'I' for Inactive)
REMARK    1  A    between atoms: N_6  and  C_20 
REMARK    2  A    between atoms: N_6  and  C_7 
REMARK    3  A    between atoms: C_7  and  C_8 
REMARK    4  A    between atoms: C_8  and  C_38 
REMARK    5  A    between atoms: N_9  and  C_38 
REMARK       I    between atoms: N_9  and  C_28 
REMARK    6  A    between atoms: C_18  and  C_19 
REMARK    7  A    between atoms: C_19  and  C_20 
REMARK    8  A    between atoms: C_20  and  C_22 
REMARK    9  A    between atoms: C_28  and  C_29 
REMARK   10  A    between atoms: C_29  and  C_30 
REMARK   11  A    between atoms: C_29  and  N_37 
REMARK   12  A    between atoms: C_30  and  C_31 
REMARK   13  A    between atoms: C_31  and  C_32 
REMARK   14  A    between atoms: C_32  and  N_33 
REMARK       I    between atoms: N_33  and  C_34 
REMARK       I    between atoms: C_34  and  N_35 
REMARK   15  A    between atoms: C_38  and  C_39 
ROOT
HETATM    1  N           1     -34.816  -3.191 -12.294  0.00  0.00    -0.345 N 
HETATM    2  O           1     -36.294  -3.246 -10.619  0.00  0.00    -0.271 OA
HETATM    3  H           1     -34.299  -2.635 -12.962  0.00  0.00     0.163 HD
HETATM    4  C           1     -35.676  -2.583 -11.418  0.00  0.00     0.249 C 
ENDROOT
BRANCH   1   5
HETATM    5  C           1     -34.648  -4.630 -12.262  0.00  0.00     0.187 C 
BRANCH   5   6
HETATM    6  C           1     -34.711  -5.179 -13.682  0.00  0.00     0.066 C 
BRANCH   6   7
HETATM    7  C           1     -33.997  -4.222 -14.628  0.00  0.00     0.273 C 
BRANCH   7   8
HETATM    8  N           1     -33.977  -4.781 -15.952  0.00  0.00     0.098 N 
HETATM    9  H           1     -34.574  -4.224 -16.564  0.00  0.00     0.317 HD
BRANCH   8  10
HETATM   10  C           1     -32.621  -4.729 -16.429  0.00  0.00     0.325 C 
BRANCH  10  11
HETATM   11  C           1     -32.342  -5.951 -17.295  0.00  0.00     0.105 C 
BRANCH  11  12
HETATM   12  C           1     -30.928  -6.397 -17.089  0.00  0.00     0.028 A 
HETATM   13  N           1     -30.094  -5.918 -16.112  0.00  0.00    -0.355 N 
HETATM   14  C           1     -28.961  -6.562 -16.277  0.00  0.00     0.180 A 
ATOM     15  HN          1     -30.308  -5.212 -15.408  1.00  0.00     0.166 HD
HETATM   16  N           1     -29.032  -7.439 -17.323  0.00  0.00    -0.360 N 
HETATM   17  C           1     -30.288  -7.345 -17.854  0.00  0.00     0.114 A 
HETATM   18  H           1     -28.262  -8.070 -17.656  0.00  0.00     0.166 HD
ENDBRANCH  11  12
ENDBRANCH  10  11
BRANCH  10  19
HETATM   19  C           1     -32.423  -3.476 -17.247  0.00  0.00     0.207 C 
HETATM   20  O           1     -31.273  -3.128 -17.587  0.00  0.00    -0.646 OA
HETATM   21  O           1     -33.410  -2.788 -17.583  0.00  0.00    -0.646 OA
ENDBRANCH  10  19
ENDBRANCH   8  10
ENDBRANCH   7   8
ENDBRANCH   6   7
ENDBRANCH   5   6
BRANCH   5  22
HETATM   22  C           1     -33.309  -4.966 -11.651  0.00  0.00     0.196 C 
HETATM   23  O           1     -33.140  -6.066 -11.083  0.00  0.00    -0.646 OA
HETATM   24  O           1     -32.369  -4.144 -11.714  0.00  0.00    -0.646 OA
ENDBRANCH   5  22
ENDBRANCH   1   5
BRANCH   4  25
HETATM   25  C           1     -35.852  -1.085 -11.452  0.00  0.00     0.274 C 
BRANCH  25  26
HETATM   26  C           1     -34.640  -0.447 -12.118  0.00  0.00     0.044 C 
BRANCH  26  27
HETATM   27  C           1     -35.104   0.620 -13.102  0.00  0.00     0.023 C 
BRANCH  27  28
HETATM   28  C           1     -36.293   0.095 -13.896  0.00  0.00     0.138 C 
BRANCH  28  29
HETATM   29  N           1     -35.814  -0.557 -15.123  0.00  0.00    -0.227 N 
HETATM   30  H           1     -34.910  -1.092 -15.115  0.00  0.00     0.177 HD
HETATM   31  C           1     -36.492  -0.476 -16.190  0.00  0.00     0.665 C 
HETATM   32  N           1     -36.080  -1.039 -17.246  0.00  0.00    -0.235 N 
HETATM   33  N           1     -37.611   0.185 -16.199  0.00  0.00    -0.235 N 
HETATM   34  H           1     -36.642  -0.971 -18.130  0.00  0.00     0.174 HD
HETATM   35  H           1     -35.176  -1.573 -17.238  0.00  0.00     0.174 HD
HETATM   36  H           1     -38.170   0.252 -17.079  0.00  0.00     0.174 HD
HETATM   37  H           1     -37.951   0.650 -15.327  0.00  0.00     0.174 HD
ENDBRANCH  28  29
ENDBRANCH  27  28
ENDBRANCH  26  27
ENDBRANCH  25  26
BRANCH  25  38
HETATM   38  N           1     -35.982  -0.564 -10.051  0.00  0.00    -0.067 N 
HETATM   39  H           1     -36.254  -1.346  -9.413  0.00  0.00     0.275 HD
HETATM   40  H           1     -36.715   0.180 -10.024  0.00  0.00     0.275 HD
HETATM   41  H           1     -35.068  -0.163  -9.741  0.00  0.00     0.275 HD
ENDBRANCH  25  38
ENDBRANCH   4  25
TORSDOF 15
ENDMDL
MODEL 3
REMARK VINA RESULT:      -7.0     12.625     15.962
REMARK  15 active torsions:
REMARK  status: ('A' for Active; 'I' for Inactive)
REMARK    1  A    between atoms: N_6  and  C_20 
REMARK    2  A    between atoms: N_6  and  C_7 
REMARK    3  A    between atoms: C_7  and  C_8 
REMARK    4  A    between atoms: C_8  and  C_38 
REMARK    5  A    between atoms: N_9  and  C_38 
REMARK       I    between atoms: N_9  and  C_28 
REMARK    6  A    between atoms: C_18  and  C_19 
REMARK    7  A    between atoms: C_19  and  C_20 
REMARK    8  A    between atoms: C_20  and  C_22 
REMARK    9  A    between atoms: C_28  and  C_29 
REMARK   10  A    between atoms: C_29  and  C_30 
REMARK   11  A    between atoms: C_29  and  N_37 
REMARK   12  A    between atoms: C_30  and  C_31 
REMARK   13  A    between atoms: C_31  and  C_32 
REMARK   14  A    between atoms: C_32  and  N_33 
REMARK       I    between atoms: N_33  and  C_34 
REMARK       I    between atoms: C_34  and  N_35 
REMARK   15  A    between atoms: C_38  and  C_39 
ROOT
HETATM    1  N           1     -31.158  -5.525 -16.707  0.00  0.00    -0.345 N 
HETATM    2  O           1     -32.118  -7.190 -17.846  0.00  0.00    -0.271 OA
HETATM    3  H           1     -30.319  -5.142 -16.292  0.00  0.00     0.163 HD
HETATM    4  C           1     -31.115  -6.734 -17.351  0.00  0.00     0.249 C 
ENDROOT
BRANCH   1   5
HETATM    5  C           1     -32.408  -4.794 -16.621  0.00  0.00     0.187 C 
BRANCH   5   6
HETATM    6  C           1     -32.717  -4.489 -15.161  0.00  0.00     0.066 C 
BRANCH   6   7
HETATM    7  C           1     -34.226  -4.457 -14.958  0.00  0.00     0.273 C 
BRANCH   7   8
HETATM    8  N           1     -34.524  -4.538 -13.553  0.00  0.00     0.098 N 
HETATM    9  H           1     -34.073  -5.364 -13.158  0.00  0.00     0.317 HD
BRANCH   8  10
HETATM   10  C           1     -33.997  -3.357 -12.925  0.00  0.00     0.325 C 
BRANCH  10  11
HETATM   11  C           1     -35.148  -2.462 -12.483  0.00  0.00     0.105 C 
BRANCH  11  12
HETATM   12  C           1     -35.082  -1.161 -13.222  0.00  0.00     0.028 A 
HETATM   13  N           1     -35.148  -1.036 -14.585  0.00  0.00    -0.355 N 
HETATM   14  C           1     -35.056   0.253 -14.819  0.00  0.00     0.180 A 
ATOM     15  HN          1     -35.247  -1.784 -15.271  1.00  0.00     0.166 HD
HETATM   16  N           1     -34.934   0.965 -13.658  0.00  0.00    -0.360 N 
HETATM   17  C           1     -34.950   0.070 -12.624  0.00  0.00     0.114 A 
HETATM   18  H           1     -34.845   2.007 -13.576  0.00  0.00     0.166 HD
ENDBRANCH  11  12
ENDBRANCH  10  11
BRANCH  10  19
HETATM   19  C           1     -33.175  -3.751 -11.722  0.00  0.00     0.207 C 
HETATM   20  O           1     -32.482  -4.790 -11.752  0.00  0.00    -0.646 OA
HETATM   21  O           1     -33.188  -3.038 -10.697  0.00  0.00    -0.646 OA
ENDBRANCH  10  19
ENDBRANCH   8  10
ENDBRANCH   7   8
ENDBRANCH   6   7
ENDBRANCH   5   6
BRANCH   5  22
HETATM   22  C           1     -32.287  -3.501 -17.391  0.00  0.00     0.196 C 
HETATM   23  O           1     -33.309  -2.832 -17.653  0.00  0.00    -0.646 OA
HETATM   24  O           1     -31.164  -3.099 -17.766  0.00  0.00    -0.646 OA
ENDBRANCH   5  22
ENDBRANCH   1   5
BRANCH   4  25
HETATM   25  C           1     -29.815  -7.494 -17.439  0.00  0.00     0.274 C 
BRANCH  25  26
HETATM   26  C           1     -28.649  -6.518 -17.344  0.00  0.00     0.044 C 
BRANCH  26  27
HETATM   27  C           1     -28.042  -6.316 -18.726  0.00  0.00     0.023 C 
BRANCH  27  28
HETATM   28  C           1     -26.526  -6.441 -18.638  0.00  0.00     0.138 C 
BRANCH  28  29
HETATM   29  N           1     -26.123  -6.540 -17.228  0.00  0.00    -0.227 N 
HETATM   30  H           1     -26.773  -6.212 -16.471  0.00  0.00     0.177 HD
HETATM   31  C           1     -24.992  -7.023 -16.925  0.00  0.00     0.665 C 
HETATM   32  N           1     -24.645  -7.109 -15.711  0.00  0.00    -0.235 N 
HETATM   33  N           1     -24.188  -7.429 -17.862  0.00  0.00    -0.235 N 
HETATM   34  H           1     -23.707  -7.509 -15.460  0.00  0.00     0.174 HD
HETATM   35  H           1     -25.295  -6.781 -14.954  0.00  0.00     0.174 HD
HETATM   36  H           1     -23.254  -7.827 -17.612  0.00  0.00     0.174 HD
HETATM   37  H           1     -24.474  -7.357 -18.864  0.00  0.00     0.174 HD
ENDBRANCH  28  29
ENDBRANCH  27  28
ENDBRANCH  26  27
ENDBRANCH  25  26
BRANCH  25  38
HETATM   38  N           1     -29.749  -8.223 -18.748  0.00  0.00    -0.067 N 
HETATM   39  H           1     -30.348  -9.078 -18.700  0.00  0.00     0.275 HD
HETATM   40  H           1     -28.761  -8.499 -18.942  0.00  0.00     0.275 HD
HETATM   41  H           1     -30.093  -7.600 -19.513  0.00  0.00     0.275 HD
ENDBRANCH  25  38
ENDBRANCH   4  25
TORSDOF 15
ENDMDL
MODEL 4
REMARK VINA RESULT:      -6.9      1.501      2.152
REMARK  15 active torsions:
REMARK  status: ('A' for Active; 'I' for Inactive)
REMARK    1  A    between atoms: N_6  and  C_20 
REMARK    2  A    between atoms: N_6  and  C_7 
REMARK    3  A    between atoms: C_7  and  C_8 
REMARK    4  A    between atoms: C_8  and  C_38 
REMARK    5  A    between atoms: N_9  and  C_38 
REMARK       I    between atoms: N_9  and  C_28 
REMARK    6  A    between atoms: C_18  and  C_19 
REMARK    7  A    between atoms: C_19  and  C_20 
REMARK    8  A    between atoms: C_20  and  C_22 
REMARK    9  A    between atoms: C_28  and  C_29 
REMARK   10  A    between atoms: C_29  and  C_30 
REMARK   11  A    between atoms: C_29  and  N_37 
REMARK   12  A    between atoms: C_30  and  C_31 
REMARK   13  A    between atoms: C_31  and  C_32 
REMARK   14  A    between atoms: C_32  and  N_33 
REMARK       I    between atoms: N_33  and  C_34 
REMARK       I    between atoms: C_34  and  N_35 
REMARK   15  A    between atoms: C_38  and  C_39 
ROOT
HETATM    1  N           1     -22.444  -5.239  -7.251  0.00  0.00    -0.345 N 
HETATM    2  O           1     -21.891  -3.167  -7.874  0.00  0.00    -0.271 OA
HETATM    3  H           1     -23.006  -6.064  -7.418  0.00  0.00     0.163 HD
HETATM    4  C           1     -22.562  -4.151  -8.075  0.00  0.00     0.249 C 
ENDROOT
BRANCH   1   5
HETATM    5  C           1     -21.514  -5.209  -6.139  0.00  0.00     0.187 C 
BRANCH   5   6
HETATM    6  C           1     -21.954  -6.216  -5.084  0.00  0.00     0.066 C 
BRANCH   6   7
HETATM    7  C           1     -21.184  -5.968  -3.793  0.00  0.00     0.273 C 
BRANCH   7   8
HETATM    8  N           1     -22.014  -6.298  -2.666  0.00  0.00     0.098 N 
HETATM    9  H           1     -22.994  -6.279  -2.950  0.00  0.00     0.317 HD
BRANCH   8  10
HETATM   10  C           1     -21.663  -7.625  -2.239  0.00  0.00     0.325 C 
BRANCH  10  11
HETATM   11  C           1     -20.149  -7.734  -2.114  0.00  0.00     0.105 C 
BRANCH  11  12
HETATM   12  C           1     -19.692  -9.037  -2.694  0.00  0.00     0.028 A 
HETATM   13  N           1     -19.714 -10.235  -2.031  0.00  0.00    -0.355 N 
HETATM   14  C           1     -19.236 -11.112  -2.884  0.00  0.00     0.180 A 
ATOM     15  HN          1     -20.034 -10.409  -1.078  1.00  0.00     0.166 HD
HETATM   16  N           1     -18.905 -10.525  -4.073  0.00  0.00    -0.360 N 
HETATM   17  C           1     -19.193  -9.193  -3.966  0.00  0.00     0.114 A 
HETATM   18  H           1     -18.505 -11.009  -4.913  0.00  0.00     0.166 HD
ENDBRANCH  11  12
ENDBRANCH  10  11
BRANCH  10  19
HETATM   19  C           1     -22.300  -7.907  -0.900  0.00  0.00     0.207 C 
HETATM   20  O           1     -22.186  -9.036  -0.379  0.00  0.00    -0.646 OA
HETATM   21  O           1     -22.942  -7.009  -0.313  0.00  0.00    -0.646 OA
ENDBRANCH  10  19
ENDBRANCH   8  10
ENDBRANCH   7   8
ENDBRANCH   6   7
ENDBRANCH   5   6
BRANCH   5  22
HETATM   22  C           1     -20.132  -5.565  -6.630  0.00  0.00     0.196 C 
HETATM   23  O           1     -19.912  -6.699  -7.108  0.00  0.00    -0.646 OA
HETATM   24  O           1     -19.208  -4.726  -6.560  0.00  0.00    -0.646 OA
ENDBRANCH   5  22
ENDBRANCH   1   5
BRANCH   4  25
HETATM   25  C           1     -23.530  -4.183  -9.231  0.00  0.00     0.274 C 
BRANCH  25  26
HETATM   26  C           1     -22.788  -3.870 -10.524  0.00  0.00     0.044 C 
BRANCH  26  27
HETATM   27  C           1     -23.794  -3.608 -11.636  0.00  0.00     0.023 C 
BRANCH  27  28
HETATM   28  C           1     -23.070  -3.050 -12.855  0.00  0.00     0.138 C 
BRANCH  28  29
HETATM   29  N           1     -23.825  -1.910 -13.395  0.00  0.00    -0.227 N 
HETATM   30  H           1     -24.513  -1.401 -12.788  0.00  0.00     0.177 HD
HETATM   31  C           1     -23.644  -1.542 -14.594  0.00  0.00     0.665 C 
HETATM   32  N           1     -24.293  -0.560 -15.058  0.00  0.00    -0.235 N 
HETATM   33  N           1     -22.791  -2.172 -15.345  0.00  0.00    -0.235 N 
HETATM   34  H           1     -24.143  -0.254 -16.052  0.00  0.00     0.174 HD
HETATM   35  H           1     -24.982  -0.051 -14.451  0.00  0.00     0.174 HD
HETATM   36  H           1     -22.642  -1.868 -16.333  0.00  0.00     0.174 HD
HETATM   37  H           1     -22.256  -2.983 -14.961  0.00  0.00     0.174 HD
ENDBRANCH  28  29
ENDBRANCH  27  28
ENDBRANCH  26  27
ENDBRANCH  25  26
BRANCH  25  38
HETATM   38  N           1     -24.605  -3.159  -9.012  0.00  0.00    -0.067 N 
HETATM   39  H           1     -25.538  -3.630  -9.008  0.00  0.00     0.275 HD
HETATM   40  H           1     -24.573  -2.453  -9.781  0.00  0.00     0.275 HD
HETATM   41  H           1     -24.451  -2.682  -8.095  0.00  0.00     0.275 HD
ENDBRANCH  25  38
ENDBRANCH   4  25
TORSDOF 15
ENDMDL
MODEL 5
REMARK VINA RESULT:      -6.7      2.370      9.138
REMARK  15 active torsions:
REMARK  status: ('A' for Active; 'I' for Inactive)
REMARK    1  A    between atoms: N_6  and  C_20 
REMARK    2  A    between atoms: N_6  and  C_7 
REMARK    3  A    between atoms: C_7  and  C_8 
REMARK    4  A    between atoms: C_8  and  C_38 
REMARK    5  A    between atoms: N_9  and  C_38 
REMARK       I    between atoms: N_9  and  C_28 
REMARK    6  A    between atoms: C_18  and  C_19 
REMARK    7  A    between atoms: C_19  and  C_20 
REMARK    8  A    between atoms: C_20  and  C_22 
REMARK    9  A    between atoms: C_28  and  C_29 
REMARK   10  A    between atoms: C_29  and  C_30 
REMARK   11  A    between atoms: C_29  and  N_37 
REMARK   12  A    between atoms: C_30  and  C_31 
REMARK   13  A    between atoms: C_31  and  C_32 
REMARK   14  A    between atoms: C_32  and  N_33 
REMARK       I    between atoms: N_33  and  C_34 
REMARK       I    between atoms: C_34  and  N_35 
REMARK   15  A    between atoms: C_38  and  C_39 
ROOT
HETATM    1  N           1     -20.828  -5.526  -4.912  0.00  0.00    -0.345 N 
HETATM    2  O           1     -22.524  -6.965  -4.701  0.00  0.00    -0.271 OA
HETATM    3  H           1     -20.065  -5.029  -4.471  0.00  0.00     0.163 HD
HETATM    4  C           1     -21.614  -6.371  -4.173  0.00  0.00     0.249 C 
ENDROOT
BRANCH   1   5
HETATM    5  C           1     -21.089  -5.347  -6.327  0.00  0.00     0.187 C 
BRANCH   5   6
HETATM    6  C           1     -20.964  -3.870  -6.682  0.00  0.00     0.066 C 
BRANCH   6   7
HETATM    7  C           1     -21.456  -3.647  -8.106  0.00  0.00     0.273 C 
BRANCH   7   8
HETATM    8  N           1     -22.888  -3.768  -8.145  0.00  0.00     0.098 N 
HETATM    9  H           1     -23.300  -3.159  -7.438  0.00  0.00     0.317 HD
BRANCH   8  10
HETATM   10  C           1     -23.327  -3.355  -9.450  0.00  0.00     0.325 C 
BRANCH  10  11
HETATM   11  C           1     -22.406  -3.951 -10.507  0.00  0.00     0.105 C 
BRANCH  11  12
HETATM   12  C           1     -22.906  -3.584 -11.870  0.00  0.00     0.028 A 
HETATM   13  N           1     -23.578  -4.435 -12.708  0.00  0.00    -0.355 N 
HETATM   14  C           1     -23.833  -3.730 -13.786  0.00  0.00     0.180 A 
ATOM     15  HN          1     -23.827  -5.409 -12.532  1.00  0.00     0.166 HD
HETATM   16  N           1     -23.351  -2.456 -13.676  0.00  0.00    -0.360 N 
HETATM   17  C           1     -22.754  -2.347 -12.451  0.00  0.00     0.114 A 
HETATM   18  H           1     -23.427  -1.699 -14.400  0.00  0.00     0.166 HD
ENDBRANCH  11  12
ENDBRANCH  10  11
BRANCH  10  19
HETATM   19  C           1     -24.738  -3.837  -9.682  0.00  0.00     0.207 C 
HETATM   20  O           1     -25.672  -3.013  -9.779  0.00  0.00    -0.646 OA
HETATM   21  O           1     -24.972  -5.061  -9.776  0.00  0.00    -0.646 OA
ENDBRANCH  10  19
ENDBRANCH   8  10
ENDBRANCH   7   8
ENDBRANCH   6   7
ENDBRANCH   5   6
BRANCH   5  22
HETATM   22  C           1     -20.086  -6.142  -7.127  0.00  0.00     0.196 C 
HETATM   23  O           1     -19.485  -7.102  -6.599  0.00  0.00    -0.646 OA
HETATM   24  O           1     -19.857  -5.842  -8.319  0.00  0.00    -0.646 OA
ENDBRANCH   5  22
ENDBRANCH   1   5
BRANCH   4  25
HETATM   25  C           1     -21.343  -6.556  -2.701  0.00  0.00     0.274 C 
BRANCH  25  26
HETATM   26  C           1     -21.405  -8.039  -2.356  0.00  0.00     0.044 C 
BRANCH  26  27
HETATM   27  C           1     -19.991  -8.590  -2.228  0.00  0.00     0.023 C 
BRANCH  27  28
HETATM   28  C           1     -19.528  -9.119  -3.579  0.00  0.00     0.138 C 
BRANCH  28  29
HETATM   29  N           1     -20.233 -10.372  -3.884  0.00  0.00    -0.227 N 
HETATM   30  H           1     -20.179 -11.181  -3.217  0.00  0.00     0.177 HD
HETATM   31  C           1     -20.908 -10.475  -4.952  0.00  0.00     0.665 C 
HETATM   32  N           1     -21.515 -11.554  -5.214  0.00  0.00    -0.235 N 
HETATM   33  N           1     -20.975  -9.473  -5.776  0.00  0.00    -0.235 N 
HETATM   34  H           1     -22.074 -11.639  -6.099  0.00  0.00     0.174 HD
HETATM   35  H           1     -21.461 -12.363  -4.547  0.00  0.00     0.174 HD
HETATM   36  H           1     -21.530  -9.558  -6.657  0.00  0.00     0.174 HD
HETATM   37  H           1     -20.472  -8.583  -5.560  0.00  0.00     0.174 HD
ENDBRANCH  28  29
ENDBRANCH  27  28
ENDBRANCH  26  27
ENDBRANCH  25  26
BRANCH  25  38
HETATM   38  N           1     -22.375  -5.815  -1.904  0.00  0.00    -0.067 N 
HETATM   39  H           1     -22.825  -6.469  -1.225  0.00  0.00     0.275 HD
HETATM   40  H           1     -23.100  -5.428  -2.550  0.00  0.00     0.275 HD
HETATM   41  H           1     -21.919  -5.032  -1.385  0.00  0.00     0.275 HD
ENDBRANCH  25  38
ENDBRANCH   4  25
TORSDOF 15
ENDMDL
MODEL 6
REMARK VINA RESULT:      -6.5     12.615     15.358
REMARK  15 active torsions:
REMARK  status: ('A' for Active; 'I' for Inactive)
REMARK    1  A    between atoms: N_6  and  C_20 
REMARK    2  A    between atoms: N_6  and  C_7 
REMARK    3  A    between atoms: C_7  and  C_8 
REMARK    4  A    between atoms: C_8  and  C_38 
REMARK    5  A    between atoms: N_9  and  C_38 
REMARK       I    between atoms: N_9  and  C_28 
REMARK    6  A    between atoms: C_18  and  C_19 
REMARK    7  A    between atoms: C_19  and  C_20 
REMARK    8  A    between atoms: C_20  and  C_22 
REMARK    9  A    between atoms: C_28  and  C_29 
REMARK   10  A    between atoms: C_29  and  C_30 
REMARK   11  A    between atoms: C_29  and  N_37 
REMARK   12  A    between atoms: C_30  and  C_31 
REMARK   13  A    between atoms: C_31  and  C_32 
REMARK   14  A    between atoms: C_32  and  N_33 
REMARK       I    between atoms: N_33  and  C_34 
REMARK       I    between atoms: C_34  and  N_35 
REMARK   15  A    between atoms: C_38  and  C_39 
ROOT
HETATM    1  N           1     -31.530  -4.797 -15.814  0.00  0.00    -0.345 N 
HETATM    2  O           1     -30.514  -6.167 -17.256  0.00  0.00    -0.271 OA
HETATM    3  H           1     -31.498  -4.306 -14.930  0.00  0.00     0.163 HD
HETATM    4  C           1     -30.476  -5.582 -16.200  0.00  0.00     0.249 C 
ENDROOT
BRANCH   1   5
HETATM    5  C           1     -32.691  -4.669 -16.673  0.00  0.00     0.187 C 
BRANCH   5   6
HETATM    6  C           1     -33.955  -4.701 -15.823  0.00  0.00     0.066 C 
BRANCH   6   7
HETATM    7  C           1     -33.702  -3.975 -14.508  0.00  0.00     0.273 C 
BRANCH   7   8
HETATM    8  N           1     -34.472  -4.591 -13.462  0.00  0.00     0.098 N 
HETATM    9  H           1     -34.320  -5.600 -13.478  0.00  0.00     0.317 HD
BRANCH   8  10
HETATM   10  C           1     -34.015  -4.055 -12.209  0.00  0.00     0.325 C 
BRANCH  10  11
HETATM   11  C           1     -35.214  -3.611 -11.380  0.00  0.00     0.105 C 
BRANCH  11  12
HETATM   12  C           1     -35.395  -2.131 -11.517  0.00  0.00     0.028 A 
HETATM   13  N           1     -34.841  -1.367 -12.511  0.00  0.00    -0.355 N 
HETATM   14  C           1     -35.243  -0.140 -12.270  0.00  0.00     0.180 A 
ATOM     15  HN          1     -34.244  -1.684 -13.275  1.00  0.00     0.166 HD
HETATM   16  N           1     -36.035  -0.083 -11.158  0.00  0.00    -0.360 N 
HETATM   17  C           1     -36.143  -1.354 -10.664  0.00  0.00     0.114 A 
HETATM   18  H           1     -36.481   0.779 -10.757  0.00  0.00     0.166 HD
ENDBRANCH  11  12
ENDBRANCH  10  11
BRANCH  10  19
HETATM   19  C           1     -33.250  -5.117 -11.458  0.00  0.00     0.207 C 
HETATM   20  O           1     -33.818  -5.786 -10.569  0.00  0.00    -0.646 OA
HETATM   21  O           1     -32.047  -5.327 -11.726  0.00  0.00    -0.646 OA
ENDBRANCH  10  19
ENDBRANCH   8  10
ENDBRANCH   7   8
ENDBRANCH   6   7
ENDBRANCH   5   6
BRANCH   5  22
HETATM   22  C           1     -32.621  -3.361 -17.421  0.00  0.00     0.196 C 
HETATM   23  O           1     -31.535  -2.976 -17.906  0.00  0.00    -0.646 OA
HETATM   24  O           1     -33.648  -2.662 -17.557  0.00  0.00    -0.646 OA
ENDBRANCH   5  22
ENDBRANCH   1   5
BRANCH   4  25
HETATM   25  C           1     -29.268  -5.714 -15.306  0.00  0.00     0.274 C 
BRANCH  25  26
HETATM   26  C           1     -28.530  -7.005 -15.637  0.00  0.00     0.044 C 
BRANCH  26  27
HETATM   27  C           1     -27.031  -6.736 -15.680  0.00  0.00     0.023 C 
BRANCH  27  28
HETATM   28  C           1     -26.618  -6.388 -17.104  0.00  0.00     0.138 C 
BRANCH  28  29
HETATM   29  N           1     -25.232  -6.821 -17.333  0.00  0.00    -0.227 N 
HETATM   30  H           1     -24.583  -6.957 -16.518  0.00  0.00     0.177 HD
HETATM   31  C           1     -24.820  -7.031 -18.512  0.00  0.00     0.665 C 
HETATM   32  N           1     -23.627  -7.404 -18.708  0.00  0.00    -0.235 N 
HETATM   33  N           1     -25.624  -6.862 -19.519  0.00  0.00    -0.235 N 
HETATM   34  H           1     -23.286  -7.578 -19.686  0.00  0.00     0.174 HD
HETATM   35  H           1     -22.978  -7.540 -17.894  0.00  0.00     0.174 HD
HETATM   36  H           1     -25.284  -7.035 -20.492  0.00  0.00     0.174 HD
HETATM   37  H           1     -26.609  -6.554 -19.357  0.00  0.00     0.174 HD
ENDBRANCH  28  29
ENDBRANCH  27  28
ENDBRANCH  26  27
ENDBRANCH  25  26
BRANCH  25  38
HETATM   38  N           1     -29.708  -5.746 -13.872  0.00  0.00    -0.067 N 
HETATM   39  H           1     -29.658  -4.782 -13.472  0.00  0.00     0.275 HD
HETATM   40  H           1     -29.082  -6.383 -13.331  0.00  0.00     0.275 HD
HETATM   41  H           1     -30.691  -6.095 -13.816  0.00  0.00     0.275 HD
ENDBRANCH  25  38
ENDBRANCH   4  25
TORSDOF 15
ENDMDL
MODEL 7
REMARK VINA RESULT:      -6.5      2.260      3.556
REMARK  15 active torsions:
REMARK  status: ('A' for Active; 'I' for Inactive)
REMARK    1  A    between atoms: N_6  and  C_20 
REMARK    2  A    between atoms: N_6  and  C_7 
REMARK    3  A    between atoms: C_7  and  C_8 
REMARK    4  A    between atoms: C_8  and  C_38 
REMARK    5  A    between atoms: N_9  and  C_38 
REMARK       I    between atoms: N_9  and  C_28 
REMARK    6  A    between atoms: C_18  and  C_19 
REMARK    7  A    between atoms: C_19  and  C_20 
REMARK    8  A    between atoms: C_20  and  C_22 
REMARK    9  A    between atoms: C_28  and  C_29 
REMARK   10  A    between atoms: C_29  and  C_30 
REMARK   11  A    between atoms: C_29  and  N_37 
REMARK   12  A    between atoms: C_30  and  C_31 
REMARK   13  A    between atoms: C_31  and  C_32 
REMARK   14  A    between atoms: C_32  and  N_33 
REMARK       I    between atoms: N_33  and  C_34 
REMARK       I    between atoms: C_34  and  N_35 
REMARK   15  A    between atoms: C_38  and  C_39 
ROOT
HETATM    1  N           1     -20.904  -6.750  -4.909  0.00  0.00    -0.345 N 
HETATM    2  O           1     -22.812  -5.803  -5.583  0.00  0.00    -0.271 OA
HETATM    3  H           1     -19.899  -6.816  -5.005  0.00  0.00     0.163 HD
HETATM    4  C           1     -21.612  -5.881  -5.698  0.00  0.00     0.249 C 
ENDROOT
BRANCH   1   5
HETATM    5  C           1     -21.596  -7.575  -3.938  0.00  0.00     0.187 C 
BRANCH   5   6
HETATM    6  C           1     -20.897  -8.924  -3.830  0.00  0.00     0.066 C 
BRANCH   6   7
HETATM    7  C           1     -21.934 -10.017  -3.613  0.00  0.00     0.273 C 
BRANCH   7   8
HETATM    8  N           1     -21.298 -11.182  -3.061  0.00  0.00     0.098 N 
HETATM    9  H           1     -20.618 -11.547  -3.729  0.00  0.00     0.317 HD
BRANCH   8  10
HETATM   10  C           1     -20.621 -10.781  -1.857  0.00  0.00     0.325 C 
BRANCH  10  11
HETATM   11  C           1     -21.501 -11.090  -0.653  0.00  0.00     0.105 C 
BRANCH  11  12
HETATM   12  C           1     -21.899  -9.812   0.017  0.00  0.00     0.028 A 
HETATM   13  N           1     -23.082  -9.155  -0.198  0.00  0.00    -0.355 N 
HETATM   14  C           1     -23.035  -8.094   0.575  0.00  0.00     0.180 A 
ATOM     15  HN          1     -23.838  -9.431  -0.825  1.00  0.00     0.166 HD
HETATM   16  N           1     -21.866  -8.042   1.281  0.00  0.00    -0.360 N 
HETATM   17  C           1     -21.126  -9.138   0.934  0.00  0.00     0.114 A 
HETATM   18  H           1     -21.587  -7.296   1.965  0.00  0.00     0.166 HD
ENDBRANCH  11  12
ENDBRANCH  10  11
BRANCH  10  19
HETATM   19  C           1     -19.320 -11.537  -1.737  0.00  0.00     0.207 C 
HETATM   20  O           1     -18.835 -12.110  -2.736  0.00  0.00    -0.646 OA
HETATM   21  O           1     -18.728 -11.590  -0.637  0.00  0.00    -0.646 OA
ENDBRANCH  10  19
ENDBRANCH   8  10
ENDBRANCH   7   8
ENDBRANCH   6   7
ENDBRANCH   5   6
BRANCH   5  22
HETATM   22  C           1     -21.578  -6.889  -2.594  0.00  0.00     0.196 C 
HETATM   23  O           1     -22.421  -6.005  -2.332  0.00  0.00    -0.646 OA
HETATM   24  O           1     -20.720  -7.206  -1.741  0.00  0.00    -0.646 OA
ENDBRANCH   5  22
ENDBRANCH   1   5
BRANCH   4  25
HETATM   25  C           1     -20.892  -5.024  -6.709  0.00  0.00     0.274 C 
BRANCH  25  26
HETATM   26  C           1     -21.911  -4.297  -7.577  0.00  0.00     0.044 C 
BRANCH  26  27
HETATM   27  C           1     -21.373  -4.173  -8.996  0.00  0.00     0.023 C 
BRANCH  27  28
HETATM   28  C           1     -22.506  -4.392  -9.990  0.00  0.00     0.138 C 
BRANCH  28  29
HETATM   29  N           1     -21.988  -4.268 -11.360  0.00  0.00    -0.227 N 
HETATM   30  H           1     -21.143  -4.817 -11.653  0.00  0.00     0.177 HD
HETATM   31  C           1     -22.563  -3.500 -12.187  0.00  0.00     0.665 C 
HETATM   32  N           1     -22.117  -3.394 -13.367  0.00  0.00    -0.235 N 
HETATM   33  N           1     -23.610  -2.822 -11.824  0.00  0.00    -0.235 N 
HETATM   34  H           1     -22.594  -2.757 -14.052  0.00  0.00     0.174 HD
HETATM   35  H           1     -21.271  -3.942 -13.660  0.00  0.00     0.174 HD
HETATM   36  H           1     -24.084  -2.188 -12.506  0.00  0.00     0.174 HD
HETATM   37  H           1     -23.977  -2.909 -10.849  0.00  0.00     0.174 HD
ENDBRANCH  28  29
ENDBRANCH  27  28
ENDBRANCH  26  27
ENDBRANCH  25  26
BRANCH  25  38
HETATM   38  N           1     -20.027  -5.892  -7.575  0.00  0.00    -0.067 N 
HETATM   39  H           1     -20.378  -6.875  -7.542  0.00  0.00     0.275 HD
HETATM   40  H           1     -19.043  -5.860  -7.227  0.00  0.00     0.275 HD
HETATM   41  H           1     -20.059  -5.544  -8.560  0.00  0.00     0.275 HD
ENDBRANCH  25  38
ENDBRANCH   4  25
TORSDOF 15
ENDMDL
MODEL 8
REMARK VINA RESULT:      -6.5     12.806     14.803
REMARK  15 active torsions:
REMARK  status: ('A' for Active; 'I' for Inactive)
REMARK    1  A    between atoms: N_6  and  C_20 
REMARK    2  A    between atoms: N_6  and  C_7 
REMARK    3  A    between atoms: C_7  and  C_8 
REMARK    4  A    between atoms: C_8  and  C_38 
REMARK    5  A    between atoms: N_9  and  C_38 
REMARK       I    between atoms: N_9  and  C_28 
REMARK    6  A    between atoms: C_18  and  C_19 
REMARK    7  A    between atoms: C_19  and  C_20 
REMARK    8  A    between atoms: C_20  and  C_22 
REMARK    9  A    between atoms: C_28  and  C_29 
REMARK   10  A    between atoms: C_29  and  C_30 
REMARK   11  A    between atoms: C_29  and  N_37 
REMARK   12  A    between atoms: C_30  and  C_31 
REMARK   13  A    between atoms: C_31  and  C_32 
REMARK   14  A    between atoms: C_32  and  N_33 
REMARK       I    between atoms: N_33  and  C_34 
REMARK       I    between atoms: C_34  and  N_35 
REMARK   15  A    between atoms: C_38  and  C_39 
ROOT
HETATM    1  N           1     -31.825  -4.591 -15.798  0.00  0.00    -0.345 N 
HETATM    2  O           1     -31.090  -6.017 -17.352  0.00  0.00    -0.271 OA
HETATM    3  H           1     -31.641  -4.090 -14.938  0.00  0.00     0.163 HD
HETATM    4  C           1     -30.870  -5.419 -16.326  0.00  0.00     0.249 C 
ENDROOT
BRANCH   1   5
HETATM    5  C           1     -33.099  -4.434 -16.471  0.00  0.00     0.187 C 
BRANCH   5   6
HETATM    6  C           1     -34.196  -4.222 -15.435  0.00  0.00     0.066 C 
BRANCH   6   7
HETATM    7  C           1     -33.654  -4.541 -14.048  0.00  0.00     0.273 C 
BRANCH   7   8
HETATM    8  N           1     -34.668  -5.206 -13.276  0.00  0.00     0.098 N 
HETATM    9  H           1     -34.445  -6.200 -13.208  0.00  0.00     0.317 HD
BRANCH   8  10
HETATM   10  C           1     -34.670  -4.623 -11.962  0.00  0.00     0.325 C 
BRANCH  10  11
HETATM   11  C           1     -33.509  -5.189 -11.154  0.00  0.00     0.105 C 
BRANCH  11  12
HETATM   12  C           1     -33.913  -6.495 -10.545  0.00  0.00     0.028 A 
HETATM   13  N           1     -33.172  -7.646 -10.608  0.00  0.00    -0.355 N 
HETATM   14  C           1     -33.873  -8.546  -9.957  0.00  0.00     0.180 A 
ATOM     15  HN          1     -32.269  -7.777 -11.064  1.00  0.00     0.166 HD
HETATM   16  N           1     -35.039  -8.020  -9.475  0.00  0.00    -0.360 N 
HETATM   17  C           1     -35.078  -6.704  -9.844  0.00  0.00     0.114 A 
HETATM   18  H           1     -35.769  -8.532  -8.922  0.00  0.00     0.166 HD
ENDBRANCH  11  12
ENDBRANCH  10  11
BRANCH  10  19
HETATM   19  C           1     -34.522  -3.125 -12.076  0.00  0.00     0.207 C 
HETATM   20  O           1     -35.431  -2.446 -12.597  0.00  0.00    -0.646 OA
HETATM   21  O           1     -33.489  -2.567 -11.649  0.00  0.00    -0.646 OA
ENDBRANCH  10  19
ENDBRANCH   8  10
ENDBRANCH   7   8
ENDBRANCH   6   7
ENDBRANCH   5   6
BRANCH   5  22
HETATM   22  C           1     -33.037  -3.238 -17.390  0.00  0.00     0.196 C 
HETATM   23  O           1     -34.033  -2.495 -17.515  0.00  0.00    -0.646 OA
HETATM   24  O           1     -31.989  -2.992 -18.025  0.00  0.00    -0.646 OA
ENDBRANCH   5  22
ENDBRANCH   1   5
BRANCH   4  25
HETATM   25  C           1     -29.544  -5.583 -15.624  0.00  0.00     0.274 C 
BRANCH  25  26
HETATM   26  C           1     -28.735  -6.672 -16.316  0.00  0.00     0.044 C 
BRANCH  26  27
HETATM   27  C           1     -27.681  -7.210 -15.356  0.00  0.00     0.023 C 
BRANCH  27  28
HETATM   28  C           1     -26.296  -6.798 -15.840  0.00  0.00     0.138 C 
BRANCH  28  29
HETATM   29  N           1     -26.314  -6.637 -17.301  0.00  0.00    -0.227 N 
HETATM   30  H           1     -27.167  -6.250 -17.776  0.00  0.00     0.177 HD
HETATM   31  C           1     -25.301  -6.964 -17.987  0.00  0.00     0.665 C 
HETATM   32  N           1     -25.316  -6.826 -19.244  0.00  0.00    -0.235 N 
HETATM   33  N           1     -24.246  -7.443 -17.398  0.00  0.00    -0.235 N 
HETATM   34  H           1     -24.476  -7.097 -19.813  0.00  0.00     0.174 HD
HETATM   35  H           1     -26.169  -6.439 -19.720  0.00  0.00     0.174 HD
HETATM   36  H           1     -23.410  -7.713 -17.963  0.00  0.00     0.174 HD
HETATM   37  H           1     -24.234  -7.558 -16.359  0.00  0.00     0.174 HD
ENDBRANCH  28  29
ENDBRANCH  27  28
ENDBRANCH  26  27
ENDBRANCH  25  26
BRANCH  25  38
HETATM   38  N           1     -29.779  -5.969 -14.194  0.00  0.00    -0.067 N 
HETATM   39  H           1     -28.980  -6.552 -13.855  0.00  0.00     0.275 HD
HETATM   40  H           1     -30.666  -6.517 -14.124  0.00  0.00     0.275 HD
HETATM   41  H           1     -29.856  -5.108 -13.608  0.00  0.00     0.275 HD
ENDBRANCH  25  38
ENDBRANCH   4  25
TORSDOF 15
ENDMDL
MODEL 9
REMARK VINA RESULT:      -6.4      2.178      3.403
REMARK  15 active torsions:
REMARK  status: ('A' for Active; 'I' for Inactive)
REMARK    1  A    between atoms: N_6  and  C_20 
REMARK    2  A    between atoms: N_6  and  C_7 
REMARK    3  A    between atoms: C_7  and  C_8 
REMARK    4  A    between atoms: C_8  and  C_38 
REMARK    5  A    between atoms: N_9  and  C_38 
REMARK       I    between atoms: N_9  and  C_28 
REMARK    6  A    between atoms: C_18  and  C_19 
REMARK    7  A    between atoms: C_19  and  C_20 
REMARK    8  A    between atoms: C_20  and  C_22 
REMARK    9  A    between atoms: C_28  and  C_29 
REMARK   10  A    between atoms: C_29  and  C_30 
REMARK   11  A    between atoms: C_29  and  N_37 
REMARK   12  A    between atoms: C_30  and  C_31 
REMARK   13  A    between atoms: C_31  and  C_32 
REMARK   14  A    between atoms: C_32  and  N_33 
REMARK       I    between atoms: N_33  and  C_34 
REMARK       I    between atoms: C_34  and  N_35 
REMARK   15  A    between atoms: C_38  and  C_39 
ROOT
HETATM    1  N           1     -21.423  -8.418  -5.512  0.00  0.00    -0.345 N 
HETATM    2  O           1     -19.532  -7.341  -6.015  0.00  0.00    -0.271 OA
HETATM    3  H           1     -22.434  -8.438  -5.548  0.00  0.00     0.163 HD
HETATM    4  C           1     -20.739  -7.364  -6.058  0.00  0.00     0.249 C 
ENDROOT
BRANCH   1   5
HETATM    5  C           1     -20.698  -9.505  -4.883  0.00  0.00     0.187 C 
BRANCH   5   6
HETATM    6  C           1     -21.001  -9.518  -3.390  0.00  0.00     0.066 C 
BRANCH   6   7
HETATM    7  C           1     -19.762  -9.084  -2.617  0.00  0.00     0.273 C 
BRANCH   7   8
HETATM    8  N           1     -20.094  -7.982  -1.756  0.00  0.00     0.098 N 
HETATM    9  H           1     -19.819  -7.107  -2.203  0.00  0.00     0.317 HD
BRANCH   8  10
HETATM   10  C           1     -21.519  -7.994  -1.559  0.00  0.00     0.325 C 
BRANCH  10  11
HETATM   11  C           1     -21.827  -8.311  -0.101  0.00  0.00     0.105 C 
BRANCH  11  12
HETATM   12  C           1     -22.316  -9.721   0.012  0.00  0.00     0.028 A 
HETATM   13  N           1     -23.606 -10.119  -0.221  0.00  0.00    -0.355 N 
HETATM   14  C           1     -23.612 -11.416  -0.016  0.00  0.00     0.180 A 
ATOM     15  HN          1     -24.395  -9.532  -0.494  1.00  0.00     0.166 HD
HETATM   16  N           1     -22.373 -11.871   0.340  0.00  0.00    -0.360 N 
HETATM   17  C           1     -21.530 -10.795   0.362  0.00  0.00     0.114 A 
HETATM   18  H           1     -22.116 -12.865   0.557  0.00  0.00     0.166 HD
ENDBRANCH  11  12
ENDBRANCH  10  11
BRANCH  10  19
HETATM   19  C           1     -22.086  -6.640  -1.911  0.00  0.00     0.207 C 
HETATM   20  O           1     -22.290  -6.340  -3.106  0.00  0.00    -0.646 OA
HETATM   21  O           1     -22.351  -5.820  -1.006  0.00  0.00    -0.646 OA
ENDBRANCH  10  19
ENDBRANCH   8  10
ENDBRANCH   7   8
ENDBRANCH   6   7
ENDBRANCH   5   6
BRANCH   5  22
HETATM   22  C           1     -21.128 -10.816  -5.495  0.00  0.00     0.196 C 
HETATM   23  O           1     -21.190 -10.935  -6.738  0.00  0.00    -0.646 OA
HETATM   24  O           1     -21.420 -11.784  -4.760  0.00  0.00    -0.646 OA
ENDBRANCH   5  22
ENDBRANCH   1   5
BRANCH   4  25
HETATM   25  C           1     -21.494  -6.234  -6.712  0.00  0.00     0.274 C 
BRANCH  25  26
HETATM   26  C           1     -20.587  -5.528  -7.712  0.00  0.00     0.044 C 
BRANCH  26  27
HETATM   27  C           1     -21.137  -4.138  -8.003  0.00  0.00     0.023 C 
BRANCH  27  28
HETATM   28  C           1     -21.927  -4.167  -9.306  0.00  0.00     0.138 C 
BRANCH  28  29
HETATM   29  N           1     -23.365  -4.095  -9.009  0.00  0.00    -0.227 N 
HETATM   30  H           1     -23.727  -4.429  -8.082  0.00  0.00     0.177 HD
HETATM   31  C           1     -24.167  -3.629  -9.871  0.00  0.00     0.665 C 
HETATM   32  N           1     -25.405  -3.566  -9.616  0.00  0.00    -0.235 N 
HETATM   33  N           1     -23.717  -3.214 -11.018  0.00  0.00    -0.235 N 
HETATM   34  H           1     -26.069  -3.180 -10.331  0.00  0.00     0.174 HD
HETATM   35  H           1     -25.767  -3.901  -8.689  0.00  0.00     0.174 HD
HETATM   36  H           1     -24.379  -2.830 -11.730  0.00  0.00     0.174 HD
HETATM   37  H           1     -22.695  -3.267 -11.229  0.00  0.00     0.174 HD
ENDBRANCH  28  29
ENDBRANCH  27  28
ENDBRANCH  26  27
ENDBRANCH  25  26
BRANCH  25  38
HETATM   38  N           1     -21.938  -5.256  -5.664  0.00  0.00    -0.067 N 
HETATM   39  H           1     -21.128  -5.015  -5.050  0.00  0.00     0.275 HD
HETATM   40  H           1     -22.698  -5.684  -5.090  0.00  0.00     0.275 HD
HETATM   41  H           1     -22.296  -4.390  -6.125  0.00  0.00     0.275 HD
ENDBRANCH  25  38
ENDBRANCH   4  25
TORSDOF 15
ENDMDL
