MODEL 1
REMARK VINA RESULT:      -6.8      0.000      0.000
REMARK  2 active torsions:
REMARK  status: ('A' for Active; 'I' for Inactive)
REMARK    1  A    between atoms: C_9  and  C_15 
REMARK    2  A    between atoms: C_12  and  C_13 
REMARK       I    between atoms: C_13  and  N_16 
ROOT
HETATM    1  C           1     -35.069   0.750 -12.873  0.00  0.00     0.038 C 
HETATM    2  C           1     -35.454   0.356 -14.293  0.00  0.00     0.022 C 
HETATM    3  C           1     -35.776  -1.127 -14.220  0.00  0.00     0.127 C 
HETATM    4  O           1     -34.295  -3.547 -13.822  0.00  0.00    -0.271 OA
HETATM    5  C           1     -34.341  -2.758 -12.908  0.00  0.00     0.254 C 
HETATM    6  C           1     -35.198  -0.525 -12.058  0.00  0.00     0.188 C 
HETATM    7  N           1     -35.036  -1.587 -13.048  0.00  0.00    -0.336 N 
ENDROOT
BRANCH   5   8
HETATM    8  C           1     -33.631  -3.064 -11.611  0.00  0.00     0.311 C 
HETATM    9  C           1     -32.694  -4.248 -11.774  0.00  0.00     0.047 C 
HETATM   10  C           1     -33.500  -5.460 -11.325  0.00  0.00     0.033 C 
HETATM   11  C           1     -34.856  -4.904 -10.920  0.00  0.00     0.271 C 
HETATM   12  N           1     -34.579  -3.509 -10.593  0.00  0.00     0.097 N 
HETATM   13  H           1     -34.163  -3.454  -9.663  0.00  0.00     0.317 HD
ENDBRANCH   5   8
BRANCH   6  14
HETATM   14  C           1     -36.553  -0.608 -11.400  0.00  0.00     0.196 C 
HETATM   15  O           1     -36.940  -1.685 -10.899  0.00  0.00    -0.646 OA
HETATM   16  O           1     -37.289   0.402 -11.357  0.00  0.00    -0.646 OA
ENDBRANCH   6  14
TORSDOF 2
ENDMDL
MODEL 2
REMARK VINA RESULT:      -6.2     11.599     13.375
REMARK  2 active torsions:
REMARK  status: ('A' for Active; 'I' for Inactive)
REMARK    1  A    between atoms: C_9  and  C_15 
REMARK    2  A    between atoms: C_12  and  C_13 
REMARK       I    between atoms: C_13  and  N_16 
ROOT
HETATM    1  C           1     -22.805  -2.405 -11.676  0.00  0.00     0.038 C 
HETATM    2  C           1     -22.048  -3.425 -12.516  0.00  0.00     0.022 C 
HETATM    3  C           1     -21.836  -4.617 -11.597  0.00  0.00     0.127 C 
HETATM    4  O           1     -20.258  -5.181  -9.274  0.00  0.00    -0.271 OA
HETATM    5  C           1     -21.126  -4.346  -9.175  0.00  0.00     0.254 C 
HETATM    6  C           1     -22.995  -3.067 -10.322  0.00  0.00     0.188 C 
HETATM    7  N           1     -21.908  -4.041 -10.257  0.00  0.00    -0.336 N 
ENDROOT
BRANCH   5   8
HETATM    8  C           1     -21.349  -3.641  -7.860  0.00  0.00     0.311 C 
HETATM    9  C           1     -20.285  -4.032  -6.849  0.00  0.00     0.047 C 
HETATM   10  C           1     -20.897  -5.175  -6.050  0.00  0.00     0.033 C 
HETATM   11  C           1     -22.284  -5.373  -6.640  0.00  0.00     0.271 C 
HETATM   12  N           1     -22.596  -4.079  -7.240  0.00  0.00     0.097 N 
HETATM   13  H           1     -22.885  -3.427  -6.510  0.00  0.00     0.317 HD
ENDBRANCH   5   8
BRANCH   6  14
HETATM   14  C           1     -24.336  -3.754 -10.244  0.00  0.00     0.196 C 
HETATM   15  O           1     -25.325  -3.261 -10.828  0.00  0.00    -0.646 OA
HETATM   16  O           1     -24.458  -4.815  -9.594  0.00  0.00    -0.646 OA
ENDBRANCH   6  14
TORSDOF 2
ENDMDL
MODEL 3
REMARK VINA RESULT:      -6.1     12.022     14.191
REMARK  2 active torsions:
REMARK  status: ('A' for Active; 'I' for Inactive)
REMARK    1  A    between atoms: C_9  and  C_15 
REMARK    2  A    between atoms: C_12  and  C_13 
REMARK       I    between atoms: C_13  and  N_16 
ROOT
HETATM    1  C           1     -20.062  -6.067  -7.320  0.00  0.00     0.038 C 
HETATM    2  C           1     -19.149  -4.854  -7.439  0.00  0.00     0.022 C 
HETATM    3  C           1     -20.054  -3.719  -7.886  0.00  0.00     0.127 C 
HETATM    4  O           1     -21.480  -3.029 -10.273  0.00  0.00    -0.271 OA
HETATM    5  C           1     -21.821  -4.026  -9.682  0.00  0.00     0.254 C 
HETATM    6  C           1     -21.445  -5.563  -7.698  0.00  0.00     0.188 C 
HETATM    7  N           1     -21.172  -4.399  -8.536  0.00  0.00    -0.336 N 
ENDROOT
BRANCH   5   8
HETATM    8  C           1     -22.963  -4.861 -10.208  0.00  0.00     0.311 C 
HETATM    9  C           1     -23.293  -4.485 -11.642  0.00  0.00     0.047 C 
HETATM   10  C           1     -24.421  -3.466 -11.536  0.00  0.00     0.033 C 
HETATM   11  C           1     -24.682  -3.318 -10.047  0.00  0.00     0.271 C 
HETATM   12  N           1     -24.196  -4.573  -9.480  0.00  0.00     0.097 N 
HETATM   13  H           1     -24.887  -5.307  -9.635  0.00  0.00     0.317 HD
ENDBRANCH   5   8
BRANCH   6  14
HETATM   14  C           1     -22.226  -5.168  -6.469  0.00  0.00     0.196 C 
HETATM   15  O           1     -23.319  -4.573  -6.588  0.00  0.00    -0.646 OA
HETATM   16  O           1     -21.781  -5.435  -5.332  0.00  0.00    -0.646 OA
ENDBRANCH   6  14
TORSDOF 2
ENDMDL
MODEL 4
REMARK VINA RESULT:      -5.8      1.688      4.951
REMARK  2 active torsions:
REMARK  status: ('A' for Active; 'I' for Inactive)
REMARK    1  A    between atoms: C_9  and  C_15 
REMARK    2  A    between atoms: C_12  and  C_13 
REMARK       I    between atoms: C_13  and  N_16 
ROOT
HETATM    1  C           1     -33.456  -2.543 -10.900  0.00  0.00     0.038 C 
HETATM    2  C           1     -34.683  -2.395 -10.009  0.00  0.00     0.022 C 
HETATM    3  C           1     -35.833  -2.111 -10.960  0.00  0.00     0.127 C 
HETATM    4  O           1     -36.641   0.067 -12.636  0.00  0.00    -0.271 OA
HETATM    5  C           1     -35.609  -0.501 -12.909  0.00  0.00     0.254 C 
HETATM    6  C           1     -33.969  -2.344 -12.317  0.00  0.00     0.188 C 
HETATM    7  N           1     -35.180  -1.548 -12.139  0.00  0.00    -0.336 N 
ENDROOT
BRANCH   5   8
HETATM    8  C           1     -34.795  -0.054 -14.099  0.00  0.00     0.311 C 
HETATM    9  C           1     -35.206   1.338 -14.544  0.00  0.00     0.047 C 
HETATM   10  C           1     -36.230   1.115 -15.650  0.00  0.00     0.033 C 
HETATM   11  C           1     -36.345  -0.394 -15.784  0.00  0.00     0.271 C 
HETATM   12  N           1     -35.074  -0.889 -15.263  0.00  0.00     0.097 N 
HETATM   13  H           1     -34.349  -0.777 -15.971  0.00  0.00     0.317 HD
ENDBRANCH   5   8
BRANCH   6  14
HETATM   14  C           1     -34.288  -3.670 -12.963  0.00  0.00     0.196 C 
HETATM   15  O           1     -34.461  -3.736 -14.199  0.00  0.00    -0.646 OA
HETATM   16  O           1     -34.380  -4.701 -12.263  0.00  0.00    -0.646 OA
ENDBRANCH   6  14
TORSDOF 2
ENDMDL
MODEL 5
REMARK VINA RESULT:      -5.6      1.817      4.791
REMARK  2 active torsions:
REMARK  status: ('A' for Active; 'I' for Inactive)
REMARK    1  A    between atoms: C_9  and  C_15 
REMARK    2  A    between atoms: C_12  and  C_13 
REMARK       I    between atoms: C_13  and  N_16 
ROOT
HETATM    1  C           1     -32.953  -3.789 -11.570  0.00  0.00     0.038 C 
HETATM    2  C           1     -33.731  -4.980 -11.026  0.00  0.00     0.022 C 
HETATM    3  C           1     -35.194  -4.621 -11.217  0.00  0.00     0.127 C 
HETATM    4  O           1     -37.030  -2.746 -10.068  0.00  0.00    -0.271 OA
HETATM    5  C           1     -36.096  -2.306 -10.697  0.00  0.00     0.254 C 
HETATM    6  C           1     -34.012  -2.811 -12.053  0.00  0.00     0.188 C 
HETATM    7  N           1     -35.191  -3.161 -11.266  0.00  0.00    -0.336 N 
ENDROOT
BRANCH   5   8
HETATM    8  C           1     -35.929  -0.814 -10.854  0.00  0.00     0.311 C 
HETATM    9  C           1     -36.758  -0.066  -9.826  0.00  0.00     0.047 C 
HETATM   10  C           1     -38.067   0.263 -10.533  0.00  0.00     0.033 C 
HETATM   11  C           1     -37.914  -0.309 -11.932  0.00  0.00     0.271 C 
HETATM   12  N           1     -36.469  -0.363 -12.133  0.00  0.00     0.097 N 
HETATM   13  H           1     -36.122   0.569 -12.363  0.00  0.00     0.317 HD
ENDBRANCH   5   8
BRANCH   6  14
HETATM   14  C           1     -34.277  -2.993 -13.527  0.00  0.00     0.196 C 
HETATM   15  O           1     -33.717  -3.918 -14.153  0.00  0.00    -0.646 OA
HETATM   16  O           1     -35.057  -2.217 -14.122  0.00  0.00    -0.646 OA
ENDBRANCH   6  14
TORSDOF 2
ENDMDL
MODEL 6
REMARK VINA RESULT:      -5.3     16.159     18.305
REMARK  2 active torsions:
REMARK  status: ('A' for Active; 'I' for Inactive)
REMARK    1  A    between atoms: C_9  and  C_15 
REMARK    2  A    between atoms: C_12  and  C_13 
REMARK       I    between atoms: C_13  and  N_16 
ROOT
HETATM    1  C           1     -20.966  -8.814   0.724  0.00  0.00     0.038 C 
HETATM    2  C           1     -22.192  -8.075   1.246  0.00  0.00     0.022 C 
HETATM    3  C           1     -22.999  -7.722   0.010  0.00  0.00     0.127 C 
HETATM    4  O           1     -22.712  -5.926  -2.203  0.00  0.00    -0.271 OA
HETATM    5  C           1     -21.914  -6.827  -2.103  0.00  0.00     0.254 C 
HETATM    6  C           1     -21.140  -8.853  -0.785  0.00  0.00     0.188 C 
HETATM    7  N           1     -22.009  -7.713  -1.063  0.00  0.00    -0.336 N 
ENDROOT
BRANCH   5   8
HETATM    8  C           1     -20.813  -6.977  -3.125  0.00  0.00     0.311 C 
HETATM    9  C           1     -20.786  -5.788  -4.069  0.00  0.00     0.047 C 
HETATM   10  C           1     -21.615  -6.216  -5.273  0.00  0.00     0.033 C 
HETATM   11  C           1     -22.067  -7.633  -4.958  0.00  0.00     0.271 C 
HETATM   12  N           1     -21.071  -8.113  -4.004  0.00  0.00     0.097 N 
HETATM   13  H           1     -20.224  -8.384  -4.504  0.00  0.00     0.317 HD
ENDBRANCH   5   8
BRANCH   6  14
HETATM   14  C           1     -21.792 -10.143  -1.217  0.00  0.00     0.196 C 
HETATM   15  O           1     -21.835 -11.115  -0.433  0.00  0.00    -0.646 OA
HETATM   16  O           1     -22.290 -10.239  -2.360  0.00  0.00    -0.646 OA
ENDBRANCH   6  14
TORSDOF 2
ENDMDL
MODEL 7
REMARK VINA RESULT:      -5.2     16.501     18.370
REMARK  2 active torsions:
REMARK  status: ('A' for Active; 'I' for Inactive)
REMARK    1  A    between atoms: C_9  and  C_15 
REMARK    2  A    between atoms: C_12  and  C_13 
REMARK       I    between atoms: C_13  and  N_16 
ROOT
HETATM    1  C           1     -21.567  -8.244  -5.078  0.00  0.00     0.038 C 
HETATM    2  C           1     -21.601  -6.722  -5.147  0.00  0.00     0.022 C 
HETATM    3  C           1     -21.205  -6.252  -3.759  0.00  0.00     0.127 C 
HETATM    4  O           1     -22.388  -6.279  -1.150  0.00  0.00    -0.271 OA
HETATM    5  C           1     -22.110  -7.342  -1.653  0.00  0.00     0.254 C 
HETATM    6  C           1     -21.144  -8.566  -3.655  0.00  0.00     0.188 C 
HETATM    7  N           1     -21.542  -7.383  -2.898  0.00  0.00    -0.336 N 
ENDROOT
BRANCH   5   8
HETATM    8  C           1     -22.389  -8.625  -0.908  0.00  0.00     0.311 C 
HETATM    9  C           1     -23.273  -8.367   0.300  0.00  0.00     0.047 C 
HETATM   10  C           1     -22.310  -8.196   1.468  0.00  0.00     0.033 C 
HETATM   11  C           1     -20.925  -8.373   0.868  0.00  0.00     0.271 C 
HETATM   12  N           1     -21.163  -9.169  -0.333  0.00  0.00     0.097 N 
HETATM   13  H           1     -21.289 -10.147  -0.072  0.00  0.00     0.317 HD
ENDBRANCH   5   8
BRANCH   6  14
HETATM   14  C           1     -19.652  -8.779  -3.573  0.00  0.00     0.196 C 
HETATM   15  O           1     -18.975  -8.860  -4.620  0.00  0.00    -0.646 OA
HETATM   16  O           1     -19.095  -8.873  -2.458  0.00  0.00    -0.646 OA
ENDBRANCH   6  14
TORSDOF 2
ENDMDL
MODEL 8
REMARK VINA RESULT:      -5.0     17.464     19.257
REMARK  2 active torsions:
REMARK  status: ('A' for Active; 'I' for Inactive)
REMARK    1  A    between atoms: C_9  and  C_15 
REMARK    2  A    between atoms: C_12  and  C_13 
REMARK       I    between atoms: C_13  and  N_16 
ROOT
HETATM    1  C           1     -23.835 -11.206   0.193  0.00  0.00     0.038 C 
HETATM    2  C           1     -24.199 -11.866  -1.130  0.00  0.00     0.022 C 
HETATM    3  C           1     -22.990 -11.655  -2.025  0.00  0.00     0.127 C 
HETATM    4  O           1     -21.753  -9.430  -3.338  0.00  0.00    -0.271 OA
HETATM    5  C           1     -21.756  -9.439  -2.130  0.00  0.00     0.254 C 
HETATM    6  C           1     -22.432 -10.658  -0.009  0.00  0.00     0.188 C 
HETATM    7  N           1     -22.335 -10.481  -1.455  0.00  0.00    -0.336 N 
ENDROOT
BRANCH   5   8
HETATM    8  C           1     -21.123  -8.303  -1.365  0.00  0.00     0.311 C 
HETATM    9  C           1     -22.182  -7.355  -0.829  0.00  0.00     0.047 C 
HETATM   10  C           1     -22.295  -6.253  -1.874  0.00  0.00     0.033 C 
HETATM   11  C           1     -21.289  -6.623  -2.951  0.00  0.00     0.271 C 
HETATM   12  N           1     -20.321  -7.463  -2.251  0.00  0.00     0.097 N 
HETATM   13  H           1     -19.685  -6.874  -1.713  0.00  0.00     0.317 HD
ENDBRANCH   5   8
BRANCH   6  14
HETATM   14  C           1     -21.396 -11.639   0.482  0.00  0.00     0.196 C 
HETATM   15  O           1     -20.191 -11.470   0.197  0.00  0.00    -0.646 OA
HETATM   16  O           1     -21.743 -12.621   1.173  0.00  0.00    -0.646 OA
ENDBRANCH   6  14
TORSDOF 2
ENDMDL
MODEL 9
REMARK VINA RESULT:      -5.0     17.613     18.921
REMARK  2 active torsions:
REMARK  status: ('A' for Active; 'I' for Inactive)
REMARK    1  A    between atoms: C_9  and  C_15 
REMARK    2  A    between atoms: C_12  and  C_13 
REMARK       I    between atoms: C_13  and  N_16 
ROOT
HETATM    1  C           1     -21.440  -7.698  -3.706  0.00  0.00     0.038 C 
HETATM    2  C           1     -21.569  -6.611  -2.647  0.00  0.00     0.022 C 
HETATM    3  C           1     -21.465  -7.338  -1.317  0.00  0.00     0.127 C 
HETATM    4  O           1     -23.098  -9.156   0.178  0.00  0.00    -0.271 OA
HETATM    5  C           1     -22.659  -9.535  -0.882  0.00  0.00     0.254 C 
HETATM    6  C           1     -21.261  -8.991  -2.928  0.00  0.00     0.188 C 
HETATM    7  N           1     -21.873  -8.704  -1.634  0.00  0.00    -0.336 N 
ENDROOT
BRANCH   5   8
HETATM    8  C           1     -22.977 -10.925  -1.376  0.00  0.00     0.311 C 
HETATM    9  C           1     -24.118 -11.534  -0.579  0.00  0.00     0.047 C 
HETATM   10  C           1     -23.446 -12.352   0.516  0.00  0.00     0.033 C 
HETATM   11  C           1     -21.955 -12.174   0.285  0.00  0.00     0.271 C 
HETATM   12  N           1     -21.860 -11.832  -1.131  0.00  0.00     0.097 N 
HETATM   13  H           1     -21.951 -12.679  -1.693  0.00  0.00     0.317 HD
ENDBRANCH   5   8
BRANCH   6  14
HETATM   14  C           1     -19.797  -9.323  -2.768  0.00  0.00     0.196 C 
HETATM   15  O           1     -19.428 -10.094  -1.856  0.00  0.00    -0.646 OA
HETATM   16  O           1     -18.955  -8.827  -3.547  0.00  0.00    -0.646 OA
ENDBRANCH   6  14
TORSDOF 2
ENDMDL
