MODEL 1
REMARK VINA RESULT:      -5.7      0.000      0.000
REMARK  10 active torsions:
REMARK  status: ('A' for Active; 'I' for Inactive)
REMARK    1  A    between atoms: C_1  and  C_2 
REMARK    2  A    between atoms: C_2  and  C_3 
REMARK    3  A    between atoms: C_2  and  N_8 
REMARK    4  A    between atoms: C_3  and  C_4 
REMARK    5  A    between atoms: C_4  and  C_11 
REMARK    6  A    between atoms: C_5  and  C_6 
REMARK    7  A    between atoms: C_5  and  Se_23 
REMARK    8  A    between atoms: C_6  and  C_7 
REMARK    9  A    between atoms: C_6  and  N_22 
REMARK       I    between atoms: C_7  and  N_8 
REMARK   10  A    between atoms: C_11  and  N_12 
ROOT
HETATM    1  C           1     -34.250  -2.573 -12.195  0.00  0.00     0.249 C 
HETATM    2  N           1     -34.913  -1.649 -12.956  0.00  0.00    -0.345 N 
HETATM    3  H           1     -35.346  -1.928 -13.828  0.00  0.00     0.163 HD
HETATM    4  O           1     -33.734  -2.240 -11.154  0.00  0.00    -0.271 OA
ENDROOT
BRANCH   2   5
HETATM    5  C           1     -34.995  -0.270 -12.515  0.00  0.00     0.185 C 
BRANCH   5   6
HETATM    6  C           1     -36.290  -0.058 -11.769  0.00  0.00     0.196 C 
HETATM    7  O           1     -37.354  -0.540 -12.216  0.00  0.00    -0.646 OA
HETATM    8  O           1     -36.298   0.597 -10.705  0.00  0.00    -0.646 OA
ENDBRANCH   5   6
BRANCH   5   9
HETATM    9  C           1     -34.948   0.653 -13.726  0.00  0.00     0.038 C 
BRANCH   9  10
HETATM   10  C           1     -35.364  -0.119 -14.970  0.00  0.00     0.030 C 
BRANCH  10  11
HETATM   11  C           1     -36.651   0.472 -15.529  0.00  0.00     0.230 C 
BRANCH  11  12
HETATM   12  N           1     -36.385   1.855 -16.044  0.00  0.00    -0.079 N 
HETATM   13  H           1     -35.498   2.218 -15.627  0.00  0.00     0.274 HD
HETATM   14  H           1     -36.295   1.828 -17.084  0.00  0.00     0.274 HD
HETATM   15  H           1     -37.177   2.484 -15.778  0.00  0.00     0.274 HD
ENDBRANCH  11  12
ENDBRANCH  10  11
ENDBRANCH   9  10
ENDBRANCH   5   9
ENDBRANCH   2   5
BRANCH   1  16
HETATM   16  C           1     -34.165  -4.008 -12.654  0.00  0.00     0.274 C 
BRANCH  16  17
HETATM   17  C           1     -33.211  -4.776 -11.748  0.00  0.00     0.045 C 
BRANCH  17  18
HETATM   18 Se           1     -34.208  -6.112 -10.738  0.00  0.00     0.000 Se
HETATM   19  H           1     -35.423  -5.288 -10.627  0.00  0.00     0.000 HD
ENDBRANCH  17  18
ENDBRANCH  16  17
BRANCH  16  20
HETATM   20  N           1     -33.656  -4.051 -14.065  0.00  0.00    -0.067 N 
HETATM   21  H           1     -32.648  -4.326 -14.065  0.00  0.00     0.275 HD
HETATM   22  H           1     -34.208  -4.750 -14.612  0.00  0.00     0.275 HD
HETATM   23  H           1     -33.759  -3.107 -14.501  0.00  0.00     0.275 HD
ENDBRANCH  16  20
ENDBRANCH   1  16
TORSDOF 10
ENDMDL
MODEL 2
REMARK VINA RESULT:      -5.6     11.975     13.747
REMARK  10 active torsions:
REMARK  status: ('A' for Active; 'I' for Inactive)
REMARK    1  A    between atoms: C_1  and  C_2 
REMARK    2  A    between atoms: C_2  and  C_3 
REMARK    3  A    between atoms: C_2  and  N_8 
REMARK    4  A    between atoms: C_3  and  C_4 
REMARK    5  A    between atoms: C_4  and  C_11 
REMARK    6  A    between atoms: C_5  and  C_6 
REMARK    7  A    between atoms: C_5  and  Se_23 
REMARK    8  A    between atoms: C_6  and  C_7 
REMARK    9  A    between atoms: C_6  and  N_22 
REMARK       I    between atoms: C_7  and  N_8 
REMARK   10  A    between atoms: C_11  and  N_12 
ROOT
HETATM    1  C           1     -21.616  -4.569  -7.647  0.00  0.00     0.249 C 
HETATM    2  N           1     -22.184  -4.853  -8.859  0.00  0.00    -0.345 N 
HETATM    3  H           1     -22.254  -5.812  -9.173  0.00  0.00     0.163 HD
HETATM    4  O           1     -21.532  -3.423  -7.272  0.00  0.00    -0.271 OA
ENDROOT
BRANCH   2   5
HETATM    5  C           1     -22.686  -3.778  -9.694  0.00  0.00     0.185 C 
BRANCH   5   6
HETATM    6  C           1     -24.194  -3.820  -9.713  0.00  0.00     0.196 C 
HETATM    7  O           1     -24.786  -4.879 -10.016  0.00  0.00    -0.646 OA
HETATM    8  O           1     -24.851  -2.797  -9.425  0.00  0.00    -0.646 OA
ENDBRANCH   5   6
BRANCH   5   9
HETATM    9  C           1     -22.154  -3.947 -11.112  0.00  0.00     0.038 C 
BRANCH   9  10
HETATM   10  C           1     -22.303  -2.635 -11.870  0.00  0.00     0.030 C 
BRANCH  10  11
HETATM   11  C           1     -23.265  -2.828 -13.035  0.00  0.00     0.230 C 
BRANCH  11  12
HETATM   12  N           1     -23.722  -4.256 -13.076  0.00  0.00    -0.079 N 
HETATM   13  H           1     -24.082  -4.534 -12.135  0.00  0.00     0.274 HD
HETATM   14  H           1     -24.484  -4.357 -13.783  0.00  0.00     0.274 HD
HETATM   15  H           1     -22.918  -4.871 -13.338  0.00  0.00     0.274 HD
ENDBRANCH  11  12
ENDBRANCH  10  11
ENDBRANCH   9  10
ENDBRANCH   5   9
ENDBRANCH   2   5
BRANCH   1  16
HETATM   16  C           1     -21.094  -5.687  -6.779  0.00  0.00     0.274 C 
BRANCH  16  17
HETATM   17  C           1     -20.721  -5.135  -5.408  0.00  0.00     0.045 C 
BRANCH  17  18
HETATM   18 Se           1     -21.405  -6.321  -4.021  0.00  0.00     0.000 Se
HETATM   19  H           1     -22.716  -5.658  -3.940  0.00  0.00     0.000 HD
ENDBRANCH  17  18
ENDBRANCH  16  17
BRANCH  16  20
HETATM   20  N           1     -19.881  -6.293  -7.420  0.00  0.00    -0.067 N 
HETATM   21  H           1     -19.132  -6.418  -6.702  0.00  0.00     0.275 HD
HETATM   22  H           1     -20.131  -7.222  -7.828  0.00  0.00     0.275 HD
HETATM   23  H           1     -19.535  -5.661  -8.177  0.00  0.00     0.275 HD
ENDBRANCH  16  20
ENDBRANCH   1  16
TORSDOF 10
ENDMDL
MODEL 3
REMARK VINA RESULT:      -5.3      3.289      6.347
REMARK  10 active torsions:
REMARK  status: ('A' for Active; 'I' for Inactive)
REMARK    1  A    between atoms: C_1  and  C_2 
REMARK    2  A    between atoms: C_2  and  C_3 
REMARK    3  A    between atoms: C_2  and  N_8 
REMARK    4  A    between atoms: C_3  and  C_4 
REMARK    5  A    between atoms: C_4  and  C_11 
REMARK    6  A    between atoms: C_5  and  C_6 
REMARK    7  A    between atoms: C_5  and  Se_23 
REMARK    8  A    between atoms: C_6  and  C_7 
REMARK    9  A    between atoms: C_6  and  N_22 
REMARK       I    between atoms: C_7  and  N_8 
REMARK   10  A    between atoms: C_11  and  N_12 
ROOT
HETATM    1  C           1     -35.554  -1.666 -10.622  0.00  0.00     0.249 C 
HETATM    2  N           1     -35.645  -2.892 -11.224  0.00  0.00    -0.345 N 
HETATM    3  H           1     -36.456  -3.121 -11.785  0.00  0.00     0.163 HD
HETATM    4  O           1     -34.586  -1.392  -9.953  0.00  0.00    -0.271 OA
ENDROOT
BRANCH   2   5
HETATM    5  C           1     -34.580  -3.862 -11.058  0.00  0.00     0.185 C 
BRANCH   5   6
HETATM    6  C           1     -33.655  -3.800 -12.248  0.00  0.00     0.196 C 
HETATM    7  O           1     -34.122  -3.616 -13.393  0.00  0.00    -0.646 OA
HETATM    8  O           1     -32.422  -3.932 -12.089  0.00  0.00    -0.646 OA
ENDBRANCH   5   6
BRANCH   5   9
HETATM    9  C           1     -35.179  -5.259 -10.951  0.00  0.00     0.038 C 
BRANCH   9  10
HETATM   10  C           1     -34.083  -6.256 -10.600  0.00  0.00     0.030 C 
BRANCH  10  11
HETATM   11  C           1     -34.714  -7.582 -10.194  0.00  0.00     0.230 C 
BRANCH  11  12
HETATM   12  N           1     -33.678  -8.666 -10.249  0.00  0.00    -0.079 N 
HETATM   13  H           1     -33.852  -9.272 -11.083  0.00  0.00     0.274 HD
HETATM   14  H           1     -32.729  -8.237 -10.323  0.00  0.00     0.274 HD
HETATM   15  H           1     -33.734  -9.244  -9.380  0.00  0.00     0.274 HD
ENDBRANCH  11  12
ENDBRANCH  10  11
ENDBRANCH   9  10
ENDBRANCH   5   9
ENDBRANCH   2   5
BRANCH   1  16
HETATM   16  C           1     -36.662  -0.657 -10.795  0.00  0.00     0.274 C 
BRANCH  16  17
HETATM   17  C           1     -36.804  -0.305 -12.271  0.00  0.00     0.045 C 
BRANCH  17  18
HETATM   18 Se           1     -35.095   0.337 -12.954  0.00  0.00     0.000 Se
HETATM   19  H           1     -35.695   1.370 -13.813  0.00  0.00     0.000 HD
ENDBRANCH  17  18
ENDBRANCH  16  17
BRANCH  16  20
HETATM   20  N           1     -36.335   0.583 -10.016  0.00  0.00    -0.067 N 
HETATM   21  H           1     -37.219   1.055  -9.722  0.00  0.00     0.275 HD
HETATM   22  H           1     -35.778   0.325  -9.170  0.00  0.00     0.275 HD
HETATM   23  H           1     -35.777   1.233 -10.616  0.00  0.00     0.275 HD
ENDBRANCH  16  20
ENDBRANCH   1  16
TORSDOF 10
ENDMDL
MODEL 4
REMARK VINA RESULT:      -5.2      3.184      4.561
REMARK  10 active torsions:
REMARK  status: ('A' for Active; 'I' for Inactive)
REMARK    1  A    between atoms: C_1  and  C_2 
REMARK    2  A    between atoms: C_2  and  C_3 
REMARK    3  A    between atoms: C_2  and  N_8 
REMARK    4  A    between atoms: C_3  and  C_4 
REMARK    5  A    between atoms: C_4  and  C_11 
REMARK    6  A    between atoms: C_5  and  C_6 
REMARK    7  A    between atoms: C_5  and  Se_23 
REMARK    8  A    between atoms: C_6  and  C_7 
REMARK    9  A    between atoms: C_6  and  N_22 
REMARK       I    between atoms: C_7  and  N_8 
REMARK   10  A    between atoms: C_11  and  N_12 
ROOT
HETATM    1  C           1     -37.020  -0.469 -11.020  0.00  0.00     0.249 C 
HETATM    2  N           1     -35.808  -0.225 -11.605  0.00  0.00    -0.345 N 
HETATM    3  H           1     -35.032   0.104 -11.045  0.00  0.00     0.163 HD
HETATM    4  O           1     -37.947  -0.862 -11.688  0.00  0.00    -0.271 OA
ENDROOT
BRANCH   2   5
HETATM    5  C           1     -35.635  -0.438 -13.029  0.00  0.00     0.185 C 
BRANCH   5   6
HETATM    6  C           1     -34.916  -1.744 -13.258  0.00  0.00     0.196 C 
HETATM    7  O           1     -34.317  -2.301 -12.312  0.00  0.00    -0.646 OA
HETATM    8  O           1     -34.920  -2.270 -14.392  0.00  0.00    -0.646 OA
ENDBRANCH   5   6
BRANCH   5   9
HETATM    9  C           1     -34.815   0.704 -13.617  0.00  0.00     0.038 C 
BRANCH   9  10
HETATM   10  C           1     -35.400   1.110 -14.962  0.00  0.00     0.030 C 
BRANCH  10  11
HETATM   11  C           1     -36.745   0.421 -15.160  0.00  0.00     0.230 C 
BRANCH  11  12
HETATM   12  N           1     -36.710  -0.391 -16.420  0.00  0.00    -0.079 N 
HETATM   13  H           1     -36.920   0.224 -17.238  0.00  0.00     0.274 HD
HETATM   14  H           1     -35.762  -0.813 -16.536  0.00  0.00     0.274 HD
HETATM   15  H           1     -37.426  -1.152 -16.363  0.00  0.00     0.274 HD
ENDBRANCH  11  12
ENDBRANCH  10  11
ENDBRANCH   9  10
ENDBRANCH   5   9
ENDBRANCH   2   5
BRANCH   1  16
HETATM   16  C           1     -37.200  -0.247  -9.538  0.00  0.00     0.274 C 
BRANCH  16  17
HETATM   17  C           1     -37.822   1.123  -9.300  0.00  0.00     0.045 C 
BRANCH  17  18
HETATM   18 Se           1     -37.554   1.645  -7.441  0.00  0.00     0.000 Se
HETATM   19  H           1     -38.679   2.594  -7.425  0.00  0.00     0.000 HD
ENDBRANCH  17  18
ENDBRANCH  16  17
BRANCH  16  20
HETATM   20  N           1     -35.865  -0.314  -8.857  0.00  0.00    -0.067 N 
HETATM   21  H           1     -35.529  -1.304  -8.841  0.00  0.00     0.275 HD
HETATM   22  H           1     -35.179   0.279  -9.377  0.00  0.00     0.275 HD
HETATM   23  H           1     -35.956   0.037  -7.877  0.00  0.00     0.275 HD
ENDBRANCH  16  20
ENDBRANCH   1  16
TORSDOF 10
ENDMDL
MODEL 5
REMARK VINA RESULT:      -4.7     12.697     15.466
REMARK  10 active torsions:
REMARK  status: ('A' for Active; 'I' for Inactive)
REMARK    1  A    between atoms: C_1  and  C_2 
REMARK    2  A    between atoms: C_2  and  C_3 
REMARK    3  A    between atoms: C_2  and  N_8 
REMARK    4  A    between atoms: C_3  and  C_4 
REMARK    5  A    between atoms: C_4  and  C_11 
REMARK    6  A    between atoms: C_5  and  C_6 
REMARK    7  A    between atoms: C_5  and  Se_23 
REMARK    8  A    between atoms: C_6  and  C_7 
REMARK    9  A    between atoms: C_6  and  N_22 
REMARK       I    between atoms: C_7  and  N_8 
REMARK   10  A    between atoms: C_11  and  N_12 
ROOT
HETATM    1  C           1     -23.289  -4.354  -8.706  0.00  0.00     0.249 C 
HETATM    2  N           1     -21.965  -4.700  -8.708  0.00  0.00    -0.345 N 
HETATM    3  H           1     -21.489  -4.875  -9.583  0.00  0.00     0.163 HD
HETATM    4  O           1     -23.858  -4.145  -7.661  0.00  0.00    -0.271 OA
ENDROOT
BRANCH   2   5
HETATM    5  C           1     -21.245  -4.816  -7.455  0.00  0.00     0.185 C 
BRANCH   5   6
HETATM    6  C           1     -19.815  -4.378  -7.655  0.00  0.00     0.196 C 
HETATM    7  O           1     -18.911  -4.843  -6.927  0.00  0.00    -0.646 OA
HETATM    8  O           1     -19.534  -3.551  -8.550  0.00  0.00    -0.646 OA
ENDBRANCH   5   6
BRANCH   5   9
HETATM    9  C           1     -21.272  -6.265  -6.987  0.00  0.00     0.038 C 
BRANCH   9  10
HETATM   10  C           1     -21.681  -6.318  -5.521  0.00  0.00     0.030 C 
BRANCH  10  11
HETATM   11  C           1     -20.730  -7.233  -4.761  0.00  0.00     0.230 C 
BRANCH  11  12
HETATM   12  N           1     -19.697  -7.775  -5.703  0.00  0.00    -0.079 N 
HETATM   13  H           1     -19.738  -7.251  -6.606  0.00  0.00     0.274 HD
HETATM   14  H           1     -18.748  -7.665  -5.281  0.00  0.00     0.274 HD
HETATM   15  H           1     -19.884  -8.788  -5.880  0.00  0.00     0.274 HD
ENDBRANCH  11  12
ENDBRANCH  10  11
ENDBRANCH   9  10
ENDBRANCH   5   9
ENDBRANCH   2   5
BRANCH   1  16
HETATM   16  C           1     -24.039  -4.234 -10.011  0.00  0.00     0.274 C 
BRANCH  16  17
HETATM   17  C           1     -23.240  -3.370 -10.978  0.00  0.00     0.045 C 
BRANCH  17  18
HETATM   18 Se           1     -24.297  -3.042 -12.582  0.00  0.00     0.000 Se
HETATM   19  H           1     -25.541  -2.765 -11.846  0.00  0.00     0.000 HD
ENDBRANCH  17  18
ENDBRANCH  16  17
BRANCH  16  20
HETATM   20  N           1     -25.375  -3.599  -9.762  0.00  0.00    -0.067 N 
HETATM   21  H           1     -25.442  -2.704 -10.298  0.00  0.00     0.275 HD
HETATM   22  H           1     -26.132  -4.249 -10.072  0.00  0.00     0.275 HD
HETATM   23  H           1     -25.482  -3.401  -8.741  0.00  0.00     0.275 HD
ENDBRANCH  16  20
ENDBRANCH   1  16
TORSDOF 10
ENDMDL
MODEL 6
REMARK VINA RESULT:      -4.7     14.485     16.387
REMARK  10 active torsions:
REMARK  status: ('A' for Active; 'I' for Inactive)
REMARK    1  A    between atoms: C_1  and  C_2 
REMARK    2  A    between atoms: C_2  and  C_3 
REMARK    3  A    between atoms: C_2  and  N_8 
REMARK    4  A    between atoms: C_3  and  C_4 
REMARK    5  A    between atoms: C_4  and  C_11 
REMARK    6  A    between atoms: C_5  and  C_6 
REMARK    7  A    between atoms: C_5  and  Se_23 
REMARK    8  A    between atoms: C_6  and  C_7 
REMARK    9  A    between atoms: C_6  and  N_22 
REMARK       I    between atoms: C_7  and  N_8 
REMARK   10  A    between atoms: C_11  and  N_12 
ROOT
HETATM    1  C           1     -21.544  -6.592  -4.328  0.00  0.00     0.249 C 
HETATM    2  N           1     -21.130  -5.520  -5.070  0.00  0.00    -0.345 N 
HETATM    3  H           1     -20.673  -4.738  -4.620  0.00  0.00     0.163 HD
HETATM    4  O           1     -22.090  -7.526  -4.866  0.00  0.00    -0.271 OA
ENDROOT
BRANCH   2   5
HETATM    5  C           1     -21.347  -5.505  -6.504  0.00  0.00     0.185 C 
BRANCH   5   6
HETATM    6  C           1     -20.043  -5.780  -7.212  0.00  0.00     0.196 C 
HETATM    7  O           1     -19.554  -4.921  -7.977  0.00  0.00    -0.646 OA
HETATM    8  O           1     -19.451  -6.867  -7.031  0.00  0.00    -0.646 OA
ENDBRANCH   5   6
BRANCH   5   9
HETATM    9  C           1     -21.874  -4.139  -6.923  0.00  0.00     0.038 C 
BRANCH   9  10
HETATM   10  C           1     -23.080  -4.318  -7.834  0.00  0.00     0.030 C 
BRANCH  10  11
HETATM   11  C           1     -22.817  -3.630  -9.167  0.00  0.00     0.230 C 
BRANCH  11  12
HETATM   12  N           1     -21.870  -4.462  -9.981  0.00  0.00    -0.079 N 
HETATM   13  H           1     -21.510  -5.251  -9.399  0.00  0.00     0.274 HD
HETATM   14  H           1     -22.371  -4.845 -10.814  0.00  0.00     0.274 HD
HETATM   15  H           1     -21.070  -3.869 -10.298  0.00  0.00     0.274 HD
ENDBRANCH  11  12
ENDBRANCH  10  11
ENDBRANCH   9  10
ENDBRANCH   5   9
ENDBRANCH   2   5
BRANCH   1  16
HETATM   16  C           1     -21.319  -6.608  -2.835  0.00  0.00     0.274 C 
BRANCH  16  17
HETATM   17  C           1     -21.313  -8.048  -2.337  0.00  0.00     0.045 C 
BRANCH  17  18
HETATM   18 Se           1     -21.656  -8.073  -0.418  0.00  0.00     0.000 Se
HETATM   19  H           1     -20.848  -9.278  -0.173  0.00  0.00     0.000 HD
ENDBRANCH  17  18
ENDBRANCH  16  17
BRANCH  16  20
HETATM   20  N           1     -22.421  -5.850  -2.156  0.00  0.00    -0.067 N 
HETATM   21  H           1     -22.850  -6.447  -1.414  0.00  0.00     0.275 HD
HETATM   22  H           1     -22.030  -4.982  -1.723  0.00  0.00     0.275 HD
HETATM   23  H           1     -23.149  -5.590  -2.859  0.00  0.00     0.275 HD
ENDBRANCH  16  20
ENDBRANCH   1  16
TORSDOF 10
ENDMDL
MODEL 7
REMARK VINA RESULT:      -4.7     15.281     17.421
REMARK  10 active torsions:
REMARK  status: ('A' for Active; 'I' for Inactive)
REMARK    1  A    between atoms: C_1  and  C_2 
REMARK    2  A    between atoms: C_2  and  C_3 
REMARK    3  A    between atoms: C_2  and  N_8 
REMARK    4  A    between atoms: C_3  and  C_4 
REMARK    5  A    between atoms: C_4  and  C_11 
REMARK    6  A    between atoms: C_5  and  C_6 
REMARK    7  A    between atoms: C_5  and  Se_23 
REMARK    8  A    between atoms: C_6  and  C_7 
REMARK    9  A    between atoms: C_6  and  N_22 
REMARK       I    between atoms: C_7  and  N_8 
REMARK   10  A    between atoms: C_11  and  N_12 
ROOT
HETATM    1  C           1     -20.964  -5.155  -6.719  0.00  0.00     0.249 C 
HETATM    2  N           1     -21.226  -6.411  -6.244  0.00  0.00    -0.345 N 
HETATM    3  H           1     -21.730  -7.075  -6.819  0.00  0.00     0.163 HD
HETATM    4  O           1     -20.363  -4.363  -6.033  0.00  0.00    -0.271 OA
ENDROOT
BRANCH   2   5
HETATM    5  C           1     -20.783  -6.792  -4.917  0.00  0.00     0.185 C 
BRANCH   5   6
HETATM    6  C           1     -20.234  -8.197  -4.955  0.00  0.00     0.196 C 
HETATM    7  O           1     -19.328  -8.492  -5.764  0.00  0.00    -0.646 OA
HETATM    8  O           1     -20.684  -9.065  -4.176  0.00  0.00    -0.646 OA
ENDBRANCH   5   6
BRANCH   5   9
HETATM    9  C           1     -21.961  -6.732  -3.953  0.00  0.00     0.038 C 
BRANCH   9  10
HETATM   10  C           1     -21.526  -6.051  -2.662  0.00  0.00     0.030 C 
BRANCH  10  11
HETATM   11  C           1     -22.193  -6.737  -1.477  0.00  0.00     0.230 C 
BRANCH  11  12
HETATM   12  N           1     -21.789  -8.182  -1.442  0.00  0.00    -0.079 N 
HETATM   13  H           1     -22.022  -8.631  -2.356  0.00  0.00     0.274 HD
HETATM   14  H           1     -20.760  -8.251  -1.273  0.00  0.00     0.274 HD
HETATM   15  H           1     -22.303  -8.669  -0.673  0.00  0.00     0.274 HD
ENDBRANCH  11  12
ENDBRANCH  10  11
ENDBRANCH   9  10
ENDBRANCH   5   9
ENDBRANCH   2   5
BRANCH   1  16
HETATM   16  C           1     -21.425  -4.759  -8.101  0.00  0.00     0.274 C 
BRANCH  16  17
HETATM   17  C           1     -20.215  -4.424  -8.964  0.00  0.00     0.045 C 
BRANCH  17  18
HETATM   18 Se           1     -20.784  -4.174 -10.811  0.00  0.00     0.000 Se
HETATM   19  H           1     -19.784  -3.134 -11.100  0.00  0.00     0.000 HD
ENDBRANCH  17  18
ENDBRANCH  16  17
BRANCH  16  20
HETATM   20  N           1     -22.318  -3.557  -8.004  0.00  0.00    -0.067 N 
HETATM   21  H           1     -23.311  -3.846  -8.151  0.00  0.00     0.275 HD
HETATM   22  H           1     -22.216  -3.124  -7.059  0.00  0.00     0.275 HD
HETATM   23  H           1     -22.045  -2.863  -8.737  0.00  0.00     0.275 HD
ENDBRANCH  16  20
ENDBRANCH   1  16
TORSDOF 10
ENDMDL
MODEL 8
REMARK VINA RESULT:      -4.6      1.869      2.137
REMARK  10 active torsions:
REMARK  status: ('A' for Active; 'I' for Inactive)
REMARK    1  A    between atoms: C_1  and  C_2 
REMARK    2  A    between atoms: C_2  and  C_3 
REMARK    3  A    between atoms: C_2  and  N_8 
REMARK    4  A    between atoms: C_3  and  C_4 
REMARK    5  A    between atoms: C_4  and  C_11 
REMARK    6  A    between atoms: C_5  and  C_6 
REMARK    7  A    between atoms: C_5  and  Se_23 
REMARK    8  A    between atoms: C_6  and  C_7 
REMARK    9  A    between atoms: C_6  and  N_22 
REMARK       I    between atoms: C_7  and  N_8 
REMARK   10  A    between atoms: C_11  and  N_12 
ROOT
HETATM    1  C           1     -34.260  -2.399 -10.876  0.00  0.00     0.249 C 
HETATM    2  N           1     -35.456  -2.025 -11.426  0.00  0.00    -0.345 N 
HETATM    3  H           1     -36.135  -2.729 -11.687  0.00  0.00     0.163 HD
HETATM    4  O           1     -33.449  -1.559 -10.565  0.00  0.00    -0.271 OA
ENDROOT
BRANCH   2   5
HETATM    5  C           1     -35.749  -0.621 -11.637  0.00  0.00     0.185 C 
BRANCH   5   6
HETATM    6  C           1     -36.931  -0.222 -10.788  0.00  0.00     0.196 C 
HETATM    7  O           1     -36.778   0.579  -9.841  0.00  0.00    -0.646 OA
HETATM    8  O           1     -38.063  -0.692 -11.033  0.00  0.00    -0.646 OA
ENDBRANCH   5   6
BRANCH   5   9
HETATM    9  C           1     -36.076  -0.386 -13.106  0.00  0.00     0.038 C 
BRANCH   9  10
HETATM   10  C           1     -35.354   0.862 -13.594  0.00  0.00     0.030 C 
BRANCH  10  11
HETATM   11  C           1     -34.687   0.573 -14.932  0.00  0.00     0.230 C 
BRANCH  11  12
HETATM   12  N           1     -35.130  -0.769 -15.433  0.00  0.00    -0.079 N 
HETATM   13  H           1     -34.330  -1.440 -15.387  0.00  0.00     0.274 HD
HETATM   14  H           1     -35.913  -1.122 -14.838  0.00  0.00     0.274 HD
HETATM   15  H           1     -35.456  -0.682 -16.423  0.00  0.00     0.274 HD
ENDBRANCH  11  12
ENDBRANCH  10  11
ENDBRANCH   9  10
ENDBRANCH   5   9
ENDBRANCH   2   5
BRANCH   1  16
HETATM   16  C           1     -33.954  -3.861 -10.656  0.00  0.00     0.274 C 
BRANCH  16  17
HETATM   17  C           1     -32.993  -4.347 -11.734  0.00  0.00     0.045 C 
BRANCH  17  18
HETATM   18 Se           1     -33.853  -4.219 -13.478  0.00  0.00     0.000 Se
HETATM   19  H           1     -34.924  -5.173 -13.148  0.00  0.00     0.000 HD
ENDBRANCH  17  18
ENDBRANCH  16  17
BRANCH  16  20
HETATM   20  N           1     -35.226  -4.653 -10.728  0.00  0.00    -0.067 N 
HETATM   21  H           1     -36.044  -4.015 -10.604  0.00  0.00     0.275 HD
HETATM   22  H           1     -35.290  -5.125 -11.659  0.00  0.00     0.275 HD
HETATM   23  H           1     -35.230  -5.374  -9.972  0.00  0.00     0.275 HD
ENDBRANCH  16  20
ENDBRANCH   1  16
TORSDOF 10
ENDMDL
MODEL 9
REMARK VINA RESULT:      -4.4     15.482     17.867
REMARK  10 active torsions:
REMARK  status: ('A' for Active; 'I' for Inactive)
REMARK    1  A    between atoms: C_1  and  C_2 
REMARK    2  A    between atoms: C_2  and  C_3 
REMARK    3  A    between atoms: C_2  and  N_8 
REMARK    4  A    between atoms: C_3  and  C_4 
REMARK    5  A    between atoms: C_4  and  C_11 
REMARK    6  A    between atoms: C_5  and  C_6 
REMARK    7  A    between atoms: C_5  and  Se_23 
REMARK    8  A    between atoms: C_6  and  C_7 
REMARK    9  A    between atoms: C_6  and  N_22 
REMARK       I    between atoms: C_7  and  N_8 
REMARK   10  A    between atoms: C_11  and  N_12 
ROOT
HETATM    1  C           1     -21.421  -5.484  -5.723  0.00  0.00     0.249 C 
HETATM    2  N           1     -20.805  -6.356  -4.868  0.00  0.00    -0.345 N 
HETATM    3  H           1     -19.798  -6.344  -4.770  0.00  0.00     0.163 HD
HETATM    4  O           1     -22.624  -5.499  -5.839  0.00  0.00    -0.271 OA
ENDROOT
BRANCH   2   5
HETATM    5  C           1     -21.596  -7.300  -4.101  0.00  0.00     0.185 C 
BRANCH   5   6
HETATM    6  C           1     -21.636  -6.864  -2.657  0.00  0.00     0.196 C 
HETATM    7  O           1     -22.381  -5.921  -2.310  0.00  0.00    -0.646 OA
HETATM    8  O           1     -20.927  -7.446  -1.808  0.00  0.00    -0.646 OA
ENDBRANCH   5   6
BRANCH   5   9
HETATM    9  C           1     -20.967  -8.684  -4.197  0.00  0.00     0.038 C 
BRANCH   9  10
HETATM   10  C           1     -19.615  -8.581  -4.888  0.00  0.00     0.030 C 
BRANCH  10  11
HETATM   11  C           1     -18.613  -9.484  -4.181  0.00  0.00     0.230 C 
BRANCH  11  12
HETATM   12  N           1     -18.592  -9.159  -2.717  0.00  0.00    -0.079 N 
HETATM   13  H           1     -18.144  -9.943  -2.192  0.00  0.00     0.274 HD
HETATM   14  H           1     -18.046  -8.282  -2.564  0.00  0.00     0.274 HD
HETATM   15  H           1     -19.571  -9.025  -2.376  0.00  0.00     0.274 HD
ENDBRANCH  11  12
ENDBRANCH  10  11
ENDBRANCH   9  10
ENDBRANCH   5   9
ENDBRANCH   2   5
BRANCH   1  16
HETATM   16  C           1     -20.598  -4.502  -6.521  0.00  0.00     0.274 C 
BRANCH  16  17
HETATM   17  C           1     -21.521  -3.641  -7.375  0.00  0.00     0.045 C 
BRANCH  17  18
HETATM   18 Se           1     -21.572  -4.347  -9.191  0.00  0.00     0.000 Se
HETATM   19  H           1     -20.174  -4.807  -9.175  0.00  0.00     0.000 HD
ENDBRANCH  17  18
ENDBRANCH  16  17
BRANCH  16  20
HETATM   20  N           1     -19.650  -5.251  -7.410  0.00  0.00    -0.067 N 
HETATM   21  H           1     -18.668  -4.979  -7.181  0.00  0.00     0.275 HD
HETATM   22  H           1     -19.772  -6.278  -7.261  0.00  0.00     0.275 HD
HETATM   23  H           1     -19.852  -5.017  -8.409  0.00  0.00     0.275 HD
ENDBRANCH  16  20
ENDBRANCH   1  16
TORSDOF 10
ENDMDL
