MODEL 1
REMARK VINA RESULT:      -5.6      0.000      0.000
REMARK  8 active torsions:
REMARK  status: ('A' for Active; 'I' for Inactive)
REMARK    1  A    between atoms: C_1  and  C_3 
REMARK    2  A    between atoms: C_1  and  C_15 
REMARK    3  A    between atoms: C_1  and  N_7 
REMARK    4  A    between atoms: C_2  and  C_14 
REMARK    5  A    between atoms: C_2  and  C_16 
REMARK    6  A    between atoms: C_2  and  N_4 
REMARK       I    between atoms: C_3  and  N_4 
REMARK    7  A    between atoms: C_6  and  C_14 
REMARK    8  A    between atoms: C_15  and  O_20 
ROOT
HETATM    1  C           1     -22.270  -4.179  -7.710  0.00  0.00     0.251 C 
HETATM    2  N           1     -23.139  -4.484  -8.723  0.00  0.00    -0.345 N 
HETATM    3  H           1     -23.814  -5.230  -8.604  0.00  0.00     0.163 HD
HETATM    4  O           1     -21.466  -3.289  -7.851  0.00  0.00    -0.271 OA
ENDROOT
BRANCH   1   5
HETATM    5  C           1     -22.315  -4.957  -6.418  0.00  0.00     0.297 C 
BRANCH   5   6
HETATM    6  C           1     -21.506  -6.239  -6.568  0.00  0.00     0.206 C 
BRANCH   6   7
HETATM    7  O           1     -20.546  -6.071  -7.576  0.00  0.00    -0.398 OA
HETATM    8  H           1     -20.382  -5.145  -7.646  0.00  0.00     0.209 HD
ENDBRANCH   6   7
ENDBRANCH   5   6
BRANCH   5   9
HETATM    9  N           1     -23.738  -5.302  -6.092  0.00  0.00    -0.064 N 
HETATM   10  H           1     -24.028  -6.141  -6.642  0.00  0.00     0.275 HD
HETATM   11  H           1     -23.820  -5.510  -5.071  0.00  0.00     0.275 HD
HETATM   12  H           1     -24.357  -4.496  -6.335  0.00  0.00     0.275 HD
ENDBRANCH   5   9
ENDBRANCH   1   5
BRANCH   2  13
HETATM   13  C           1     -23.097  -3.737  -9.965  0.00  0.00     0.185 C 
BRANCH  13  14
HETATM   14  C           1     -22.583  -4.635 -11.081  0.00  0.00     0.040 C 
BRANCH  14  15
HETATM   15  C           1     -21.247  -4.106 -11.586  0.00  0.00    -0.020 C 
HETATM   16  C           1     -20.119  -4.690 -10.745  0.00  0.00     0.009 C 
HETATM   17  C           1     -21.229  -2.587 -11.475  0.00  0.00     0.009 C 
ENDBRANCH  14  15
ENDBRANCH  13  14
BRANCH  13  18
HETATM   18  C           1     -24.483  -3.252 -10.307  0.00  0.00     0.196 C 
HETATM   19  O           1     -24.859  -3.222 -11.500  0.00  0.00    -0.646 OA
HETATM   20  O           1     -25.257  -2.879  -9.399  0.00  0.00    -0.646 OA
ENDBRANCH  13  18
ENDBRANCH   2  13
TORSDOF 8
ENDMDL
MODEL 2
REMARK VINA RESULT:      -5.3      2.641      5.117
REMARK  8 active torsions:
REMARK  status: ('A' for Active; 'I' for Inactive)
REMARK    1  A    between atoms: C_1  and  C_3 
REMARK    2  A    between atoms: C_1  and  C_15 
REMARK    3  A    between atoms: C_1  and  N_7 
REMARK    4  A    between atoms: C_2  and  C_14 
REMARK    5  A    between atoms: C_2  and  C_16 
REMARK    6  A    between atoms: C_2  and  N_4 
REMARK       I    between atoms: C_3  and  N_4 
REMARK    7  A    between atoms: C_6  and  C_14 
REMARK    8  A    between atoms: C_15  and  O_20 
ROOT
HETATM    1  C           1     -22.969  -3.343 -12.527  0.00  0.00     0.251 C 
HETATM    2  N           1     -22.766  -2.900 -11.248  0.00  0.00    -0.345 N 
HETATM    3  H           1     -22.573  -1.921 -11.076  0.00  0.00     0.163 HD
HETATM    4  O           1     -23.200  -4.511 -12.732  0.00  0.00    -0.271 OA
ENDROOT
BRANCH   1   5
HETATM    5  C           1     -22.903  -2.373 -13.681  0.00  0.00     0.297 C 
BRANCH   5   6
HETATM    6  C           1     -24.291  -1.804 -13.946  0.00  0.00     0.206 C 
BRANCH   6   7
HETATM    7  O           1     -25.206  -2.361 -13.042  0.00  0.00    -0.398 OA
HETATM    8  H           1     -24.995  -3.277 -12.968  0.00  0.00     0.209 HD
ENDBRANCH   6   7
ENDBRANCH   5   6
BRANCH   5   9
HETATM    9  N           1     -22.414  -3.087 -14.906  0.00  0.00    -0.064 N 
HETATM   10  H           1     -22.749  -4.077 -14.890  0.00  0.00     0.275 HD
HETATM   11  H           1     -22.786  -2.609 -15.758  0.00  0.00     0.275 HD
HETATM   12  H           1     -21.370  -3.073 -14.925  0.00  0.00     0.275 HD
ENDBRANCH   5   9
ENDBRANCH   1   5
BRANCH   2  13
HETATM   13  C           1     -22.830  -3.831 -10.139  0.00  0.00     0.185 C 
BRANCH  13  14
HETATM   14  C           1     -21.715  -3.522  -9.150  0.00  0.00     0.040 C 
BRANCH  14  15
HETATM   15  C           1     -20.692  -4.650  -9.167  0.00  0.00    -0.020 C 
HETATM   16  C           1     -19.647  -4.403  -8.086  0.00  0.00     0.009 C 
HETATM   17  C           1     -20.013  -4.699 -10.529  0.00  0.00     0.009 C 
ENDBRANCH  14  15
ENDBRANCH  13  14
BRANCH  13  18
HETATM   18  C           1     -24.165  -3.700  -9.449  0.00  0.00     0.196 C 
HETATM   19  O           1     -24.289  -4.049  -8.254  0.00  0.00    -0.646 OA
HETATM   20  O           1     -25.148  -3.242 -10.070  0.00  0.00    -0.646 OA
ENDBRANCH  13  18
ENDBRANCH   2  13
TORSDOF 8
ENDMDL
MODEL 3
REMARK VINA RESULT:      -5.0      2.112      4.965
REMARK  8 active torsions:
REMARK  status: ('A' for Active; 'I' for Inactive)
REMARK    1  A    between atoms: C_1  and  C_3 
REMARK    2  A    between atoms: C_1  and  C_15 
REMARK    3  A    between atoms: C_1  and  N_7 
REMARK    4  A    between atoms: C_2  and  C_14 
REMARK    5  A    between atoms: C_2  and  C_16 
REMARK    6  A    between atoms: C_2  and  N_4 
REMARK       I    between atoms: C_3  and  N_4 
REMARK    7  A    between atoms: C_6  and  C_14 
REMARK    8  A    between atoms: C_15  and  O_20 
ROOT
HETATM    1  C           1     -22.981  -4.105  -8.970  0.00  0.00     0.251 C 
HETATM    2  N           1     -22.137  -4.847  -8.187  0.00  0.00    -0.345 N 
HETATM    3  H           1     -22.265  -5.849  -8.114  0.00  0.00     0.163 HD
HETATM    4  O           1     -22.828  -2.910  -9.058  0.00  0.00    -0.271 OA
ENDROOT
BRANCH   1   5
HETATM    5  C           1     -24.102  -4.781  -9.721  0.00  0.00     0.297 C 
BRANCH   5   6
HETATM    6  C           1     -23.683  -4.999 -11.169  0.00  0.00     0.206 C 
BRANCH   6   7
HETATM    7  O           1     -22.320  -4.706 -11.312  0.00  0.00    -0.398 OA
HETATM    8  H           1     -22.220  -3.783 -11.151  0.00  0.00     0.209 HD
ENDBRANCH   6   7
ENDBRANCH   5   6
BRANCH   5   9
HETATM    9  N           1     -25.324  -3.912  -9.681  0.00  0.00    -0.064 N 
HETATM   10  H           1     -25.705  -3.891  -8.708  0.00  0.00     0.275 HD
HETATM   11  H           1     -25.070  -2.941  -9.975  0.00  0.00     0.275 HD
HETATM   12  H           1     -26.047  -4.296 -10.330  0.00  0.00     0.275 HD
ENDBRANCH   5   9
ENDBRANCH   1   5
BRANCH   2  13
HETATM   13  C           1     -21.060  -4.199  -7.466  0.00  0.00     0.185 C 
BRANCH  13  14
HETATM   14  C           1     -20.967  -4.780  -6.062  0.00  0.00     0.040 C 
BRANCH  14  15
HETATM   15  C           1     -21.362  -6.251  -6.093  0.00  0.00    -0.020 C 
HETATM   16  C           1     -22.440  -6.508  -5.047  0.00  0.00     0.009 C 
HETATM   17  C           1     -20.143  -7.110  -5.787  0.00  0.00     0.009 C 
ENDBRANCH  14  15
ENDBRANCH  13  14
BRANCH  13  18
HETATM   18  C           1     -19.758  -4.429  -8.193  0.00  0.00     0.196 C 
HETATM   19  O           1     -18.673  -4.334  -7.579  0.00  0.00    -0.646 OA
HETATM   20  O           1     -19.764  -4.715  -9.409  0.00  0.00    -0.646 OA
ENDBRANCH  13  18
ENDBRANCH   2  13
TORSDOF 8
ENDMDL
MODEL 4
REMARK VINA RESULT:      -4.9      2.178      4.722
REMARK  8 active torsions:
REMARK  status: ('A' for Active; 'I' for Inactive)
REMARK    1  A    between atoms: C_1  and  C_3 
REMARK    2  A    between atoms: C_1  and  C_15 
REMARK    3  A    between atoms: C_1  and  N_7 
REMARK    4  A    between atoms: C_2  and  C_14 
REMARK    5  A    between atoms: C_2  and  C_16 
REMARK    6  A    between atoms: C_2  and  N_4 
REMARK       I    between atoms: C_3  and  N_4 
REMARK    7  A    between atoms: C_6  and  C_14 
REMARK    8  A    between atoms: C_15  and  O_20 
ROOT
HETATM    1  C           1     -22.695  -4.070  -8.976  0.00  0.00     0.251 C 
HETATM    2  N           1     -22.752  -4.029  -7.609  0.00  0.00    -0.345 N 
HETATM    3  H           1     -23.324  -3.334  -7.147  0.00  0.00     0.163 HD
HETATM    4  O           1     -22.013  -4.900  -9.528  0.00  0.00    -0.271 OA
ENDROOT
BRANCH   1   5
HETATM    5  C           1     -23.483  -3.076  -9.794  0.00  0.00     0.297 C 
BRANCH   5   6
HETATM    6  C           1     -24.969  -3.388  -9.677  0.00  0.00     0.206 C 
BRANCH   6   7
HETATM    7  O           1     -25.147  -4.769  -9.522  0.00  0.00    -0.398 OA
HETATM    8  H           1     -24.465  -5.190 -10.019  0.00  0.00     0.209 HD
ENDBRANCH   6   7
ENDBRANCH   5   6
BRANCH   5   9
HETATM    9  N           1     -23.065  -3.169 -11.231  0.00  0.00    -0.064 N 
HETATM   10  H           1     -23.700  -2.580 -11.818  0.00  0.00     0.275 HD
HETATM   11  H           1     -22.083  -2.826 -11.331  0.00  0.00     0.275 HD
HETATM   12  H           1     -23.123  -4.163 -11.547  0.00  0.00     0.275 HD
ENDBRANCH   5   9
ENDBRANCH   1   5
BRANCH   2  13
HETATM   13  C           1     -21.996  -4.984  -6.823  0.00  0.00     0.185 C 
BRANCH  13  14
HETATM   14  C           1     -20.816  -4.281  -6.166  0.00  0.00     0.040 C 
BRANCH  14  15
HETATM   15  C           1     -19.515  -4.856  -6.708  0.00  0.00    -0.020 C 
HETATM   16  C           1     -19.080  -4.063  -7.933  0.00  0.00     0.009 C 
HETATM   17  C           1     -19.727  -6.314  -7.095  0.00  0.00     0.009 C 
ENDBRANCH  14  15
ENDBRANCH  13  14
BRANCH  13  18
HETATM   18  C           1     -22.885  -5.576  -5.758  0.00  0.00     0.196 C 
HETATM   19  O           1     -22.384  -6.221  -4.811  0.00  0.00    -0.646 OA
HETATM   20  O           1     -24.124  -5.422  -5.822  0.00  0.00    -0.646 OA
ENDBRANCH  13  18
ENDBRANCH   2  13
TORSDOF 8
ENDMDL
MODEL 5
REMARK VINA RESULT:      -4.9      3.193      6.816
REMARK  8 active torsions:
REMARK  status: ('A' for Active; 'I' for Inactive)
REMARK    1  A    between atoms: C_1  and  C_3 
REMARK    2  A    between atoms: C_1  and  C_15 
REMARK    3  A    between atoms: C_1  and  N_7 
REMARK    4  A    between atoms: C_2  and  C_14 
REMARK    5  A    between atoms: C_2  and  C_16 
REMARK    6  A    between atoms: C_2  and  N_4 
REMARK       I    between atoms: C_3  and  N_4 
REMARK    7  A    between atoms: C_6  and  C_14 
REMARK    8  A    between atoms: C_15  and  O_20 
ROOT
HETATM    1  C           1     -20.737  -4.865  -6.089  0.00  0.00     0.251 C 
HETATM    2  N           1     -21.131  -6.175  -6.029  0.00  0.00    -0.345 N 
HETATM    3  H           1     -21.753  -6.548  -6.736  0.00  0.00     0.163 HD
HETATM    4  O           1     -19.995  -4.418  -5.247  0.00  0.00    -0.271 OA
ENDROOT
BRANCH   1   5
HETATM    5  C           1     -21.231  -3.978  -7.206  0.00  0.00     0.297 C 
BRANCH   5   6
HETATM    6  C           1     -22.531  -4.543  -7.765  0.00  0.00     0.206 C 
BRANCH   6   7
HETATM    7  O           1     -23.543  -4.430  -6.802  0.00  0.00    -0.398 OA
HETATM    8  H           1     -23.999  -3.623  -6.977  0.00  0.00     0.209 HD
ENDBRANCH   6   7
ENDBRANCH   5   6
BRANCH   5   9
HETATM    9  N           1     -20.201  -3.927  -8.295  0.00  0.00    -0.064 N 
HETATM   10  H           1     -19.525  -3.153  -8.100  0.00  0.00     0.275 HD
HETATM   11  H           1     -19.686  -4.836  -8.330  0.00  0.00     0.275 HD
HETATM   12  H           1     -20.670  -3.755  -9.212  0.00  0.00     0.275 HD
ENDBRANCH   5   9
ENDBRANCH   1   5
BRANCH   2  13
HETATM   13  C           1     -20.657  -7.027  -4.957  0.00  0.00     0.185 C 
BRANCH  13  14
HETATM   14  C           1     -21.770  -7.227  -3.937  0.00  0.00     0.040 C 
BRANCH  14  15
HETATM   15  C           1     -21.227  -6.981  -2.536  0.00  0.00    -0.020 C 
HETATM   16  C           1     -20.955  -8.317  -1.856  0.00  0.00     0.009 C 
HETATM   17  C           1     -22.251  -6.198  -1.726  0.00  0.00     0.009 C 
ENDBRANCH  14  15
ENDBRANCH  13  14
BRANCH  13  18
HETATM   18  C           1     -20.244  -8.363  -5.521  0.00  0.00     0.196 C 
HETATM   19  O           1     -21.105  -9.246  -5.733  0.00  0.00    -0.646 OA
HETATM   20  O           1     -19.042  -8.589  -5.779  0.00  0.00    -0.646 OA
ENDBRANCH  13  18
ENDBRANCH   2  13
TORSDOF 8
ENDMDL
MODEL 6
REMARK VINA RESULT:      -4.8      4.222      5.866
REMARK  8 active torsions:
REMARK  status: ('A' for Active; 'I' for Inactive)
REMARK    1  A    between atoms: C_1  and  C_3 
REMARK    2  A    between atoms: C_1  and  C_15 
REMARK    3  A    between atoms: C_1  and  N_7 
REMARK    4  A    between atoms: C_2  and  C_14 
REMARK    5  A    between atoms: C_2  and  C_16 
REMARK    6  A    between atoms: C_2  and  N_4 
REMARK       I    between atoms: C_3  and  N_4 
REMARK    7  A    between atoms: C_6  and  C_14 
REMARK    8  A    between atoms: C_15  and  O_20 
ROOT
HETATM    1  C           1     -20.053  -9.005  -4.995  0.00  0.00     0.251 C 
HETATM    2  N           1     -20.808  -8.156  -5.758  0.00  0.00    -0.345 N 
HETATM    3  H           1     -21.412  -8.527  -6.481  0.00  0.00     0.163 HD
HETATM    4  O           1     -19.332  -8.563  -4.133  0.00  0.00    -0.271 OA
ENDROOT
BRANCH   1   5
HETATM    5  C           1     -20.120 -10.494  -5.232  0.00  0.00     0.297 C 
BRANCH   5   6
HETATM    6  C           1     -18.778 -10.985  -5.760  0.00  0.00     0.206 C 
BRANCH   6   7
HETATM    7  O           1     -18.157  -9.959  -6.485  0.00  0.00    -0.398 OA
HETATM    8  H           1     -18.574  -9.152  -6.231  0.00  0.00     0.209 HD
ENDBRANCH   6   7
ENDBRANCH   5   6
BRANCH   5   9
HETATM    9  N           1     -21.191 -10.791  -6.239  0.00  0.00    -0.064 N 
HETATM   10  H           1     -21.935 -11.375  -5.795  0.00  0.00     0.275 HD
HETATM   11  H           1     -21.609  -9.894  -6.577  0.00  0.00     0.275 HD
HETATM   12  H           1     -20.777 -11.310  -7.046  0.00  0.00     0.275 HD
ENDBRANCH   5   9
ENDBRANCH   1   5
BRANCH   2  13
HETATM   13  C           1     -20.744  -6.725  -5.531  0.00  0.00     0.185 C 
BRANCH  13  14
HETATM   14  C           1     -20.842  -5.994  -6.863  0.00  0.00     0.040 C 
BRANCH  14  15
HETATM   15  C           1     -20.305  -4.578  -6.706  0.00  0.00    -0.020 C 
HETATM   16  C           1     -21.347  -3.584  -7.204  0.00  0.00     0.009 C 
HETATM   17  C           1     -19.028  -4.426  -7.522  0.00  0.00     0.009 C 
ENDBRANCH  14  15
ENDBRANCH  13  14
BRANCH  13  18
HETATM   18  C           1     -21.888  -6.306  -4.642  0.00  0.00     0.196 C 
HETATM   19  O           1     -23.048  -6.238  -5.104  0.00  0.00    -0.646 OA
HETATM   20  O           1     -21.678  -6.027  -3.442  0.00  0.00    -0.646 OA
ENDBRANCH  13  18
ENDBRANCH   2  13
TORSDOF 8
ENDMDL
MODEL 7
REMARK VINA RESULT:      -4.7      2.902      4.435
REMARK  8 active torsions:
REMARK  status: ('A' for Active; 'I' for Inactive)
REMARK    1  A    between atoms: C_1  and  C_3 
REMARK    2  A    between atoms: C_1  and  C_15 
REMARK    3  A    between atoms: C_1  and  N_7 
REMARK    4  A    between atoms: C_2  and  C_14 
REMARK    5  A    between atoms: C_2  and  C_16 
REMARK    6  A    between atoms: C_2  and  N_4 
REMARK       I    between atoms: C_3  and  N_4 
REMARK    7  A    between atoms: C_6  and  C_14 
REMARK    8  A    between atoms: C_15  and  O_20 
ROOT
HETATM    1  C           1     -21.568  -6.772  -5.576  0.00  0.00     0.251 C 
HETATM    2  N           1     -21.667  -5.466  -5.976  0.00  0.00    -0.345 N 
HETATM    3  H           1     -22.061  -4.774  -5.351  0.00  0.00     0.163 HD
HETATM    4  O           1     -21.098  -7.598  -6.321  0.00  0.00    -0.271 OA
ENDROOT
BRANCH   1   5
HETATM    5  C           1     -22.048  -7.178  -4.204  0.00  0.00     0.297 C 
BRANCH   5   6
HETATM    6  C           1     -21.476  -6.225  -3.163  0.00  0.00     0.206 C 
BRANCH   6   7
HETATM    7  O           1     -22.490  -5.836  -2.277  0.00  0.00    -0.398 OA
HETATM    8  H           1     -22.077  -5.661  -1.447  0.00  0.00     0.209 HD
ENDBRANCH   6   7
ENDBRANCH   5   6
BRANCH   5   9
HETATM    9  N           1     -21.588  -8.575  -3.908  0.00  0.00    -0.064 N 
HETATM   10  H           1     -22.388  -9.238  -4.027  0.00  0.00     0.275 HD
HETATM   11  H           1     -20.821  -8.835  -4.568  0.00  0.00     0.275 HD
HETATM   12  H           1     -21.238  -8.626  -2.925  0.00  0.00     0.275 HD
ENDBRANCH   5   9
ENDBRANCH   1   5
BRANCH   2  13
HETATM   13  C           1     -21.205  -5.075  -7.293  0.00  0.00     0.185 C 
BRANCH  13  14
HETATM   14  C           1     -22.099  -3.968  -7.836  0.00  0.00     0.040 C 
BRANCH  14  15
HETATM   15  C           1     -22.756  -4.432  -9.129  0.00  0.00    -0.020 C 
HETATM   16  C           1     -21.874  -4.053 -10.311  0.00  0.00     0.009 C 
HETATM   17  C           1     -24.117  -3.763  -9.274  0.00  0.00     0.009 C 
ENDBRANCH  14  15
ENDBRANCH  13  14
BRANCH  13  18
HETATM   18  C           1     -19.785  -4.575  -7.200  0.00  0.00     0.196 C 
HETATM   19  O           1     -19.186  -4.195  -8.231  0.00  0.00    -0.646 OA
HETATM   20  O           1     -19.206  -4.541  -6.094  0.00  0.00    -0.646 OA
ENDBRANCH  13  18
ENDBRANCH   2  13
TORSDOF 8
ENDMDL
MODEL 8
REMARK VINA RESULT:      -4.6     17.249     19.323
REMARK  8 active torsions:
REMARK  status: ('A' for Active; 'I' for Inactive)
REMARK    1  A    between atoms: C_1  and  C_3 
REMARK    2  A    between atoms: C_1  and  C_15 
REMARK    3  A    between atoms: C_1  and  N_7 
REMARK    4  A    between atoms: C_2  and  C_14 
REMARK    5  A    between atoms: C_2  and  C_16 
REMARK    6  A    between atoms: C_2  and  N_4 
REMARK       I    between atoms: C_3  and  N_4 
REMARK    7  A    between atoms: C_6  and  C_14 
REMARK    8  A    between atoms: C_15  and  O_20 
ROOT
HETATM    1  C           1     -12.267   4.561 -21.777  0.00  0.00     0.251 C 
HETATM    2  N           1     -11.667   5.702 -21.316  0.00  0.00    -0.345 N 
HETATM    3  H           1     -12.169   6.581 -21.337  0.00  0.00     0.163 HD
HETATM    4  O           1     -11.669   3.512 -21.752  0.00  0.00    -0.271 OA
ENDROOT
BRANCH   1   5
HETATM    5  C           1     -13.675   4.615 -22.318  0.00  0.00     0.297 C 
BRANCH   5   6
HETATM    6  C           1     -14.638   4.971 -21.193  0.00  0.00     0.206 C 
BRANCH   6   7
HETATM    7  O           1     -14.035   4.700 -19.957  0.00  0.00    -0.398 OA
HETATM    8  H           1     -14.722   4.695 -19.312  0.00  0.00     0.209 HD
ENDBRANCH   6   7
ENDBRANCH   5   6
BRANCH   5   9
HETATM    9  N           1     -14.043   3.276 -22.885  0.00  0.00    -0.064 N 
HETATM   10  H           1     -13.182   2.693 -22.991  0.00  0.00     0.275 HD
HETATM   11  H           1     -14.709   2.796 -22.238  0.00  0.00     0.275 HD
HETATM   12  H           1     -14.493   3.404 -23.819  0.00  0.00     0.275 HD
ENDBRANCH   5   9
ENDBRANCH   1   5
BRANCH   2  13
HETATM   13  C           1     -10.315   5.651 -20.795  0.00  0.00     0.185 C 
BRANCH  13  14
HETATM   14  C           1      -9.600   6.958 -21.111  0.00  0.00     0.040 C 
BRANCH  14  15
HETATM   15  C           1     -10.594   8.110 -21.051  0.00  0.00    -0.020 C 
HETATM   16  C           1     -10.510   8.919 -22.339  0.00  0.00     0.009 C 
HETATM   17  C           1     -10.261   9.005 -19.865  0.00  0.00     0.009 C 
ENDBRANCH  14  15
ENDBRANCH  13  14
BRANCH  13  18
HETATM   18  C           1     -10.359   5.450 -19.301  0.00  0.00     0.196 C 
HETATM   19  O           1      -9.296   5.407 -18.643  0.00  0.00    -0.646 OA
HETATM   20  O           1     -11.458   5.327 -18.719  0.00  0.00    -0.646 OA
ENDBRANCH  13  18
ENDBRANCH   2  13
TORSDOF 8
ENDMDL
MODEL 9
REMARK VINA RESULT:      -4.5      6.997      8.836
REMARK  8 active torsions:
REMARK  status: ('A' for Active; 'I' for Inactive)
REMARK    1  A    between atoms: C_1  and  C_3 
REMARK    2  A    between atoms: C_1  and  C_15 
REMARK    3  A    between atoms: C_1  and  N_7 
REMARK    4  A    between atoms: C_2  and  C_14 
REMARK    5  A    between atoms: C_2  and  C_16 
REMARK    6  A    between atoms: C_2  and  N_4 
REMARK       I    between atoms: C_3  and  N_4 
REMARK    7  A    between atoms: C_6  and  C_14 
REMARK    8  A    between atoms: C_15  and  O_20 
ROOT
HETATM    1  C           1     -20.949  -9.743  -4.053  0.00  0.00     0.251 C 
HETATM    2  N           1     -20.510  -8.712  -3.266  0.00  0.00    -0.345 N 
HETATM    3  H           1     -19.538  -8.428  -3.300  0.00  0.00     0.163 HD
HETATM    4  O           1     -22.108 -10.081  -4.014  0.00  0.00    -0.271 OA
ENDROOT
BRANCH   1   5
HETATM    5  C           1     -19.985 -10.456  -4.969  0.00  0.00     0.297 C 
BRANCH   5   6
HETATM    6  C           1     -18.852  -9.512  -5.348  0.00  0.00     0.206 C 
BRANCH   6   7
HETATM    7  O           1     -19.385  -8.297  -5.800  0.00  0.00    -0.398 OA
HETATM    8  H           1     -20.271  -8.471  -6.071  0.00  0.00     0.209 HD
ENDBRANCH   6   7
ENDBRANCH   5   6
BRANCH   5   9
HETATM    9  N           1     -20.706 -10.893  -6.211  0.00  0.00    -0.064 N 
HETATM   10  H           1     -20.029 -10.950  -7.005  0.00  0.00     0.275 HD
HETATM   11  H           1     -21.135 -11.832  -6.051  0.00  0.00     0.275 HD
HETATM   12  H           1     -21.454 -10.201  -6.441  0.00  0.00     0.275 HD
ENDBRANCH   5   9
ENDBRANCH   1   5
BRANCH   2  13
HETATM   13  C           1     -21.435  -8.026  -2.387  0.00  0.00     0.185 C 
BRANCH  13  14
HETATM   14  C           1     -20.834  -7.931  -0.991  0.00  0.00     0.040 C 
BRANCH  14  15
HETATM   15  C           1     -21.899  -8.262   0.046  0.00  0.00    -0.020 C 
HETATM   16  C           1     -21.228  -8.617   1.366  0.00  0.00     0.009 C 
HETATM   17  C           1     -22.726  -9.446  -0.438  0.00  0.00     0.009 C 
ENDBRANCH  14  15
ENDBRANCH  13  14
BRANCH  13  18
HETATM   18  C           1     -21.698  -6.638  -2.917  0.00  0.00     0.196 C 
HETATM   19  O           1     -21.154  -6.260  -3.978  0.00  0.00    -0.646 OA
HETATM   20  O           1     -22.459  -5.865  -2.296  0.00  0.00    -0.646 OA
ENDBRANCH  13  18
ENDBRANCH   2  13
TORSDOF 8
ENDMDL
