MODEL 1
REMARK VINA RESULT:      -7.6      0.000      0.000
REMARK  8 active torsions:
REMARK  status: ('A' for Active; 'I' for Inactive)
REMARK    1  A    between atoms: C_5  and  Se_21 
REMARK    2  A    between atoms: C_5  and  C_6 
REMARK    3  A    between atoms: C_6  and  C_7 
REMARK    4  A    between atoms: C_6  and  N_24 
REMARK    5  A    between atoms: C_13  and  C_26 
REMARK    6  A    between atoms: C_13  and  C_17 
REMARK    7  A    between atoms: C_13  and  N_25 
REMARK    8  A    between atoms: C_17  and  C_19 
REMARK       I    between atoms: N_24  and  C_26 
ROOT
HETATM    1  C           1     -21.008  -5.423  -6.602  0.00  0.00     0.278 C 
ENDROOT
BRANCH   1   2
HETATM    2  C           1     -21.544  -4.378  -7.549  0.00  0.00     0.249 C 
HETATM    3  O           1     -21.478  -3.206  -7.257  0.00  0.00    -0.271 OA
HETATM    4  N           1     -22.105  -4.754  -8.739  0.00  0.00    -0.345 N 
HETATM    5  H           1     -22.162  -5.735  -8.985  0.00  0.00     0.163 HD
BRANCH   4   6
HETATM    6  C           1     -22.620  -3.749  -9.649  0.00  0.00     0.185 C 
BRANCH   6   7
HETATM    7  C           1     -22.048  -3.981 -11.040  0.00  0.00     0.039 C 
BRANCH   7   8
HETATM    8 Se           1     -22.931  -2.799 -12.314  0.00  0.00     0.000 Se
HETATM    9  H           1     -23.492  -3.894 -13.120  0.00  0.00     0.000 HD
ENDBRANCH   7   8
ENDBRANCH   6   7
BRANCH   6  10
HETATM   10  C           1     -24.126  -3.844  -9.703  0.00  0.00     0.196 C 
HETATM   11  O           1     -24.826  -2.842  -9.444  0.00  0.00    -0.646 OA
HETATM   12  O           1     -24.672  -4.926 -10.008  0.00  0.00    -0.646 OA
ENDBRANCH   6  10
ENDBRANCH   4   6
ENDBRANCH   1   2
BRANCH   1  13
HETATM   13  C           1     -22.118  -5.877  -5.665  0.00  0.00     0.083 C 
BRANCH  13  14
HETATM   14  C           1     -21.621  -7.002  -4.810  0.00  0.00    -0.028 A 
HETATM   15  C           1     -20.998  -8.145  -5.254  0.00  0.00     0.096 A 
HETATM   16  N           1     -20.704  -8.915  -4.160  0.00  0.00    -0.365 N 
HETATM   17  C           1     -21.127  -8.288  -3.010  0.00  0.00     0.042 A 
HETATM   18  H           1     -20.225  -9.848  -4.194  0.00  0.00     0.165 HD
HETATM   19  C           1     -21.040  -8.695  -1.674  0.00  0.00     0.030 A 
HETATM   20  C           1     -21.709  -7.080  -3.392  0.00  0.00    -0.002 A 
HETATM   21  C           1     -21.565  -7.838  -0.701  0.00  0.00     0.002 A 
HETATM   22  C           1     -22.152  -6.625  -1.054  0.00  0.00     0.001 A 
HETATM   23  C           1     -22.231  -6.232  -2.395  0.00  0.00     0.014 A 
ENDBRANCH  13  14
ENDBRANCH   1  13
BRANCH   1  24
HETATM   24  N           1     -19.884  -4.840  -5.800  0.00  0.00    -0.066 N 
HETATM   25  H           1     -19.313  -4.210  -6.407  0.00  0.00     0.275 HD
HETATM   26  H           1     -19.281  -5.611  -5.432  0.00  0.00     0.275 HD
HETATM   27  H           1     -20.273  -4.292  -4.999  0.00  0.00     0.275 HD
ENDBRANCH   1  24
TORSDOF 8
ENDMDL
MODEL 2
REMARK VINA RESULT:      -7.3      3.926      7.727
REMARK  8 active torsions:
REMARK  status: ('A' for Active; 'I' for Inactive)
REMARK    1  A    between atoms: C_5  and  Se_21 
REMARK    2  A    between atoms: C_5  and  C_6 
REMARK    3  A    between atoms: C_6  and  C_7 
REMARK    4  A    between atoms: C_6  and  N_24 
REMARK    5  A    between atoms: C_13  and  C_26 
REMARK    6  A    between atoms: C_13  and  C_17 
REMARK    7  A    between atoms: C_13  and  N_25 
REMARK    8  A    between atoms: C_17  and  C_19 
REMARK       I    between atoms: N_24  and  C_26 
ROOT
HETATM    1  C           1     -20.804  -5.504  -6.106  0.00  0.00     0.278 C 
ENDROOT
BRANCH   1   2
HETATM    2  C           1     -20.250  -6.874  -5.801  0.00  0.00     0.249 C 
HETATM    3  O           1     -19.410  -7.361  -6.522  0.00  0.00    -0.271 OA
HETATM    4  N           1     -20.695  -7.565  -4.707  0.00  0.00    -0.345 N 
HETATM    5  H           1     -21.398  -7.159  -4.103  0.00  0.00     0.163 HD
BRANCH   4   6
HETATM    6  C           1     -20.162  -8.882  -4.415  0.00  0.00     0.185 C 
BRANCH   6   7
HETATM    7  C           1     -19.990  -9.038  -2.910  0.00  0.00     0.039 C 
BRANCH   7   8
HETATM    8 Se           1     -21.009  -7.654  -1.991  0.00  0.00     0.000 Se
HETATM    9  H           1     -21.690  -7.184  -3.207  0.00  0.00     0.000 HD
ENDBRANCH   7   8
ENDBRANCH   6   7
BRANCH   6  10
HETATM   10  C           1     -21.117  -9.935  -4.922  0.00  0.00     0.196 C 
HETATM   11  O           1     -21.049 -10.320  -6.110  0.00  0.00    -0.646 OA
HETATM   12  O           1     -21.974 -10.422  -4.155  0.00  0.00    -0.646 OA
ENDBRANCH   6  10
ENDBRANCH   4   6
ENDBRANCH   1   2
BRANCH   1  13
HETATM   13  C           1     -20.606  -5.193  -7.583  0.00  0.00     0.083 C 
BRANCH  13  14
HETATM   14  C           1     -21.872  -4.628  -8.148  0.00  0.00    -0.028 A 
HETATM   15  C           1     -23.058  -4.456  -7.471  0.00  0.00     0.096 A 
HETATM   16  N           1     -23.964  -3.914  -8.343  0.00  0.00    -0.365 N 
HETATM   17  C           1     -23.385  -3.730  -9.578  0.00  0.00     0.042 A 
HETATM   18  H           1     -24.958  -3.673  -8.104  0.00  0.00     0.165 HD
HETATM   19  C           1     -23.923  -3.211 -10.762  0.00  0.00     0.030 A 
HETATM   20  C           1     -22.065  -4.172  -9.482  0.00  0.00    -0.002 A 
HETATM   21  C           1     -23.084  -3.144 -11.879  0.00  0.00     0.002 A 
HETATM   22  C           1     -21.762  -3.578 -11.812  0.00  0.00     0.001 A 
HETATM   23  C           1     -21.239  -4.094 -10.620  0.00  0.00     0.014 A 
ENDBRANCH  13  14
ENDBRANCH   1  13
BRANCH   1  24
HETATM   24  N           1     -20.086  -4.480  -5.278  0.00  0.00    -0.066 N 
HETATM   25  H           1     -19.092  -4.771  -5.149  0.00  0.00     0.275 HD
HETATM   26  H           1     -20.550  -4.398  -4.345  0.00  0.00     0.275 HD
HETATM   27  H           1     -20.117  -3.554  -5.764  0.00  0.00     0.275 HD
ENDBRANCH   1  24
TORSDOF 8
ENDMDL
MODEL 3
REMARK VINA RESULT:      -7.2      3.685      7.637
REMARK  8 active torsions:
REMARK  status: ('A' for Active; 'I' for Inactive)
REMARK    1  A    between atoms: C_5  and  Se_21 
REMARK    2  A    between atoms: C_5  and  C_6 
REMARK    3  A    between atoms: C_6  and  C_7 
REMARK    4  A    between atoms: C_6  and  N_24 
REMARK    5  A    between atoms: C_13  and  C_26 
REMARK    6  A    between atoms: C_13  and  C_17 
REMARK    7  A    between atoms: C_13  and  N_25 
REMARK    8  A    between atoms: C_17  and  C_19 
REMARK       I    between atoms: N_24  and  C_26 
ROOT
HETATM    1  C           1     -20.076  -4.344  -7.273  0.00  0.00     0.278 C 
ENDROOT
BRANCH   1   2
HETATM    2  C           1     -20.137  -5.079  -5.956  0.00  0.00     0.249 C 
HETATM    3  O           1     -19.914  -4.490  -4.925  0.00  0.00    -0.271 OA
HETATM    4  N           1     -20.446  -6.412  -5.929  0.00  0.00    -0.345 N 
HETATM    5  H           1     -20.633  -6.906  -6.793  0.00  0.00     0.163 HD
BRANCH   4   6
HETATM    6  C           1     -20.505  -7.117  -4.664  0.00  0.00     0.185 C 
BRANCH   6   7
HETATM    7  C           1     -21.933  -7.097  -4.137  0.00  0.00     0.039 C 
BRANCH   7   8
HETATM    8 Se           1     -21.950  -6.375  -2.326  0.00  0.00     0.000 Se
HETATM    9  H           1     -22.810  -5.230  -2.665  0.00  0.00     0.000 HD
ENDBRANCH   7   8
ENDBRANCH   6   7
BRANCH   6  10
HETATM   10  C           1     -20.064  -8.547  -4.864  0.00  0.00     0.196 C 
HETATM   11  O           1     -19.205  -8.821  -5.730  0.00  0.00    -0.646 OA
HETATM   12  O           1     -20.559  -9.457  -4.165  0.00  0.00    -0.646 OA
ENDBRANCH   6  10
ENDBRANCH   4   6
ENDBRANCH   1   2
BRANCH   1  13
HETATM   13  C           1     -20.723  -5.192  -8.359  0.00  0.00     0.083 C 
BRANCH  13  14
HETATM   14  C           1     -22.028  -4.577  -8.762  0.00  0.00    -0.028 A 
HETATM   15  C           1     -23.109  -4.357  -7.940  0.00  0.00     0.096 A 
HETATM   16  N           1     -24.097  -3.781  -8.693  0.00  0.00    -0.365 N 
HETATM   17  C           1     -23.674  -3.623  -9.993  0.00  0.00     0.042 A 
HETATM   18  H           1     -25.042  -3.500  -8.330  0.00  0.00     0.165 HD
HETATM   19  C           1     -24.338  -3.085 -11.101  0.00  0.00     0.030 A 
HETATM   20  C           1     -22.372  -4.117 -10.063  0.00  0.00    -0.002 A 
HETATM   21  C           1     -23.647  -3.053 -12.317  0.00  0.00     0.002 A 
HETATM   22  C           1     -22.346  -3.540 -12.416  0.00  0.00     0.001 A 
HETATM   23  C           1     -21.695  -4.075 -11.298  0.00  0.00     0.014 A 
ENDBRANCH  13  14
ENDBRANCH   1  13
BRANCH   1  24
HETATM   24  N           1     -18.644  -4.080  -7.631  0.00  0.00    -0.066 N 
HETATM   25  H           1     -18.519  -4.181  -8.663  0.00  0.00     0.275 HD
HETATM   26  H           1     -18.028  -4.765  -7.136  0.00  0.00     0.275 HD
HETATM   27  H           1     -18.385  -3.109  -7.342  0.00  0.00     0.275 HD
ENDBRANCH   1  24
TORSDOF 8
ENDMDL
MODEL 4
REMARK VINA RESULT:      -7.2      4.277      7.830
REMARK  8 active torsions:
REMARK  status: ('A' for Active; 'I' for Inactive)
REMARK    1  A    between atoms: C_5  and  Se_21 
REMARK    2  A    between atoms: C_5  and  C_6 
REMARK    3  A    between atoms: C_6  and  C_7 
REMARK    4  A    between atoms: C_6  and  N_24 
REMARK    5  A    between atoms: C_13  and  C_26 
REMARK    6  A    between atoms: C_13  and  C_17 
REMARK    7  A    between atoms: C_13  and  N_25 
REMARK    8  A    between atoms: C_17  and  C_19 
REMARK       I    between atoms: N_24  and  C_26 
ROOT
HETATM    1  C           1     -21.382  -6.230  -5.716  0.00  0.00     0.278 C 
ENDROOT
BRANCH   1   2
HETATM    2  C           1     -20.241  -7.217  -5.717  0.00  0.00     0.249 C 
HETATM    3  O           1     -19.432  -7.205  -6.615  0.00  0.00    -0.271 OA
HETATM    4  N           1     -20.120  -8.126  -4.701  0.00  0.00    -0.345 N 
HETATM    5  H           1     -20.797  -8.137  -3.948  0.00  0.00     0.163 HD
BRANCH   4   6
HETATM    6  C           1     -19.023  -9.074  -4.702  0.00  0.00     0.185 C 
BRANCH   6   7
HETATM    7  C           1     -18.552  -9.310  -3.274  0.00  0.00     0.039 C 
BRANCH   7   8
HETATM    8 Se           1     -16.650  -9.735  -3.276  0.00  0.00     0.000 Se
HETATM    9  H           1     -16.711 -10.549  -2.052  0.00  0.00     0.000 HD
ENDBRANCH   7   8
ENDBRANCH   6   7
BRANCH   6  10
HETATM   10  C           1     -19.488 -10.380  -5.300  0.00  0.00     0.196 C 
HETATM   11  O           1     -20.298 -11.099  -4.676  0.00  0.00    -0.646 OA
HETATM   12  O           1     -19.063 -10.742  -6.418  0.00  0.00    -0.646 OA
ENDBRANCH   6  10
ENDBRANCH   4   6
ENDBRANCH   1   2
BRANCH   1  13
HETATM   13  C           1     -20.927  -4.927  -6.359  0.00  0.00     0.083 C 
BRANCH  13  14
HETATM   14  C           1     -21.906  -4.525  -7.419  0.00  0.00    -0.028 A 
HETATM   15  C           1     -23.264  -4.380  -7.256  0.00  0.00     0.096 A 
HETATM   16  N           1     -23.793  -4.003  -8.462  0.00  0.00    -0.365 N 
HETATM   17  C           1     -22.798  -3.902  -9.407  0.00  0.00     0.042 A 
HETATM   18  H           1     -24.811  -3.819  -8.640  0.00  0.00     0.165 HD
HETATM   19  C           1     -22.868  -3.551 -10.760  0.00  0.00     0.030 A 
HETATM   20  C           1     -21.597  -4.226  -8.775  0.00  0.00    -0.002 A 
HETATM   21  C           1     -21.672  -3.532 -11.487  0.00  0.00     0.002 A 
HETATM   22  C           1     -20.459  -3.851 -10.881  0.00  0.00     0.001 A 
HETATM   23  C           1     -20.406  -4.199  -9.526  0.00  0.00     0.014 A 
ENDBRANCH  13  14
ENDBRANCH   1  13
BRANCH   1  24
HETATM   24  N           1     -21.813  -5.967  -4.303  0.00  0.00    -0.066 N 
HETATM   25  H           1     -21.888  -4.936  -4.149  0.00  0.00     0.275 HD
HETATM   26  H           1     -21.108  -6.367  -3.643  0.00  0.00     0.275 HD
HETATM   27  H           1     -22.742  -6.414  -4.133  0.00  0.00     0.275 HD
ENDBRANCH   1  24
TORSDOF 8
ENDMDL
MODEL 5
REMARK VINA RESULT:      -6.7      1.829      2.064
REMARK  8 active torsions:
REMARK  status: ('A' for Active; 'I' for Inactive)
REMARK    1  A    between atoms: C_5  and  Se_21 
REMARK    2  A    between atoms: C_5  and  C_6 
REMARK    3  A    between atoms: C_6  and  C_7 
REMARK    4  A    between atoms: C_6  and  N_24 
REMARK    5  A    between atoms: C_13  and  C_26 
REMARK    6  A    between atoms: C_13  and  C_17 
REMARK    7  A    between atoms: C_13  and  N_25 
REMARK    8  A    between atoms: C_17  and  C_19 
REMARK       I    between atoms: N_24  and  C_26 
ROOT
HETATM    1  C           1     -21.046  -4.537  -6.867  0.00  0.00     0.278 C 
ENDROOT
BRANCH   1   2
HETATM    2  C           1     -21.094  -4.814  -8.349  0.00  0.00     0.249 C 
HETATM    3  O           1     -20.280  -5.553  -8.852  0.00  0.00    -0.271 OA
HETATM    4  N           1     -22.059  -4.230  -9.124  0.00  0.00    -0.345 N 
HETATM    5  H           1     -22.741  -3.611  -8.704  0.00  0.00     0.163 HD
BRANCH   4   6
HETATM    6  C           1     -22.104  -4.497 -10.549  0.00  0.00     0.185 C 
BRANCH   6   7
HETATM    7  C           1     -23.552  -4.661 -10.990  0.00  0.00     0.039 C 
BRANCH   7   8
HETATM    8 Se           1     -24.708  -3.594  -9.840  0.00  0.00     0.000 Se
HETATM    9  H           1     -25.140  -2.689 -10.916  0.00  0.00     0.000 HD
ENDBRANCH   7   8
ENDBRANCH   6   7
BRANCH   6  10
HETATM   10  C           1     -21.480  -3.344 -11.297  0.00  0.00     0.196 C 
HETATM   11  O           1     -20.265  -3.090 -11.152  0.00  0.00    -0.646 OA
HETATM   12  O           1     -22.178  -2.643 -12.060  0.00  0.00    -0.646 OA
ENDBRANCH   6  10
ENDBRANCH   4   6
ENDBRANCH   1   2
BRANCH   1  13
HETATM   13  C           1     -22.028  -5.450  -6.147  0.00  0.00     0.083 C 
BRANCH  13  14
HETATM   14  C           1     -21.271  -6.462  -5.343  0.00  0.00    -0.028 A 
HETATM   15  C           1     -20.307  -7.320  -5.818  0.00  0.00     0.096 A 
HETATM   16  N           1     -19.865  -8.079  -4.767  0.00  0.00    -0.365 N 
HETATM   17  C           1     -20.529  -7.727  -3.614  0.00  0.00     0.042 A 
HETATM   18  H           1     -19.127  -8.822  -4.832  0.00  0.00     0.165 HD
HETATM   19  C           1     -20.409  -8.227  -2.312  0.00  0.00     0.030 A 
HETATM   20  C           1     -21.422  -6.709  -3.950  0.00  0.00    -0.002 A 
HETATM   21  C           1     -21.228  -7.668  -1.326  0.00  0.00     0.002 A 
HETATM   22  C           1     -22.129  -6.650  -1.633  0.00  0.00     0.001 A 
HETATM   23  C           1     -22.236  -6.161  -2.940  0.00  0.00     0.014 A 
ENDBRANCH  13  14
ENDBRANCH   1  13
BRANCH   1  24
HETATM   24  N           1     -21.417  -3.106  -6.614  0.00  0.00    -0.066 N 
HETATM   25  H           1     -22.141  -2.807  -7.305  0.00  0.00     0.275 HD
HETATM   26  H           1     -20.569  -2.503  -6.714  0.00  0.00     0.275 HD
HETATM   27  H           1     -21.799  -3.010  -5.646  0.00  0.00     0.275 HD
ENDBRANCH   1  24
TORSDOF 8
ENDMDL
MODEL 6
REMARK VINA RESULT:      -6.6      1.962      2.476
REMARK  8 active torsions:
REMARK  status: ('A' for Active; 'I' for Inactive)
REMARK    1  A    between atoms: C_5  and  Se_21 
REMARK    2  A    between atoms: C_5  and  C_6 
REMARK    3  A    between atoms: C_6  and  C_7 
REMARK    4  A    between atoms: C_6  and  N_24 
REMARK    5  A    between atoms: C_13  and  C_26 
REMARK    6  A    between atoms: C_13  and  C_17 
REMARK    7  A    between atoms: C_13  and  N_25 
REMARK    8  A    between atoms: C_17  and  C_19 
REMARK       I    between atoms: N_24  and  C_26 
ROOT
HETATM    1  C           1     -20.486  -5.862  -5.148  0.00  0.00     0.278 C 
ENDROOT
BRANCH   1   2
HETATM    2  C           1     -21.004  -5.899  -6.565  0.00  0.00     0.249 C 
HETATM    3  O           1     -21.159  -6.960  -7.124  0.00  0.00    -0.271 OA
HETATM    4  N           1     -21.300  -4.733  -7.217  0.00  0.00    -0.345 N 
HETATM    5  H           1     -21.171  -3.844  -6.750  0.00  0.00     0.163 HD
BRANCH   4   6
HETATM    6  C           1     -21.799  -4.770  -8.579  0.00  0.00     0.185 C 
BRANCH   6   7
HETATM    7  C           1     -22.965  -3.803  -8.720  0.00  0.00     0.039 C 
BRANCH   7   8
HETATM    8 Se           1     -24.225  -4.490 -10.039  0.00  0.00     0.000 Se
HETATM    9  H           1     -24.877  -3.190 -10.265  0.00  0.00     0.000 HD
ENDBRANCH   7   8
ENDBRANCH   6   7
BRANCH   6  10
HETATM   10  C           1     -20.696  -4.369  -9.528  0.00  0.00     0.196 C 
HETATM   11  O           1     -20.786  -4.646 -10.744  0.00  0.00    -0.646 OA
HETATM   12  O           1     -19.693  -3.759  -9.099  0.00  0.00    -0.646 OA
ENDBRANCH   6  10
ENDBRANCH   4   6
ENDBRANCH   1   2
BRANCH   1  13
HETATM   13  C           1     -21.603  -6.244  -4.188  0.00  0.00     0.083 C 
BRANCH  13  14
HETATM   14  C           1     -21.151  -7.380  -3.322  0.00  0.00    -0.028 A 
HETATM   15  C           1     -20.301  -8.395  -3.695  0.00  0.00     0.096 A 
HETATM   16  N           1     -20.143  -9.226  -2.617  0.00  0.00    -0.365 N 
HETATM   17  C           1     -20.879  -8.766  -1.549  0.00  0.00     0.042 A 
HETATM   18  H           1     -19.547 -10.090  -2.608  0.00  0.00     0.165 HD
HETATM   19  C           1     -21.022  -9.285  -0.258  0.00  0.00     0.030 A 
HETATM   20  C           1     -21.525  -7.602  -1.968  0.00  0.00    -0.002 A 
HETATM   21  C           1     -21.850  -8.592   0.631  0.00  0.00     0.002 A 
HETATM   22  C           1     -22.507  -7.427   0.240  0.00  0.00     0.001 A 
HETATM   23  C           1     -22.353  -6.921  -1.056  0.00  0.00     0.014 A 
ENDBRANCH  13  14
ENDBRANCH   1  13
BRANCH   1  24
HETATM   24  N           1     -20.005  -4.477  -4.829  0.00  0.00    -0.066 N 
HETATM   25  H           1     -20.631  -4.048  -4.113  0.00  0.00     0.275 HD
HETATM   26  H           1     -20.017  -3.895  -5.698  0.00  0.00     0.275 HD
HETATM   27  H           1     -19.029  -4.524  -4.456  0.00  0.00     0.275 HD
ENDBRANCH   1  24
TORSDOF 8
ENDMDL
MODEL 7
REMARK VINA RESULT:      -6.5      3.738      7.778
REMARK  8 active torsions:
REMARK  status: ('A' for Active; 'I' for Inactive)
REMARK    1  A    between atoms: C_5  and  Se_21 
REMARK    2  A    between atoms: C_5  and  C_6 
REMARK    3  A    between atoms: C_6  and  C_7 
REMARK    4  A    between atoms: C_6  and  N_24 
REMARK    5  A    between atoms: C_13  and  C_26 
REMARK    6  A    between atoms: C_13  and  C_17 
REMARK    7  A    between atoms: C_13  and  N_25 
REMARK    8  A    between atoms: C_17  and  C_19 
REMARK       I    between atoms: N_24  and  C_26 
ROOT
HETATM    1  C           1     -21.242  -4.957  -7.246  0.00  0.00     0.278 C 
ENDROOT
BRANCH   1   2
HETATM    2  C           1     -20.822  -5.726  -6.018  0.00  0.00     0.249 C 
HETATM    3  O           1     -20.714  -5.158  -4.956  0.00  0.00    -0.271 OA
HETATM    4  N           1     -20.566  -7.068  -6.103  0.00  0.00    -0.345 N 
HETATM    5  H           1     -20.657  -7.545  -6.992  0.00  0.00     0.163 HD
BRANCH   4   6
HETATM    6  C           1     -20.164  -7.806  -4.922  0.00  0.00     0.185 C 
BRANCH   6   7
HETATM    7  C           1     -21.397  -8.374  -4.233  0.00  0.00     0.039 C 
BRANCH   7   8
HETATM    8 Se           1     -21.318  -7.977  -2.326  0.00  0.00     0.000 Se
HETATM    9  H           1     -20.526  -9.172  -1.991  0.00  0.00     0.000 HD
ENDBRANCH   7   8
ENDBRANCH   6   7
BRANCH   6  10
HETATM   10  C           1     -19.249  -8.938  -5.324  0.00  0.00     0.196 C 
HETATM   11  O           1     -19.220  -9.989  -4.648  0.00  0.00    -0.646 OA
HETATM   12  O           1     -18.519  -8.823  -6.332  0.00  0.00    -0.646 OA
ENDBRANCH   6  10
ENDBRANCH   4   6
ENDBRANCH   1   2
BRANCH   1  13
HETATM   13  C           1     -20.469  -5.468  -8.454  0.00  0.00     0.083 C 
BRANCH  13  14
HETATM   14  C           1     -20.790  -4.622  -9.647  0.00  0.00    -0.028 A 
HETATM   15  C           1     -19.880  -4.079 -10.525  0.00  0.00     0.096 A 
HETATM   16  N           1     -20.578  -3.376 -11.471  0.00  0.00    -0.365 N 
HETATM   17  C           1     -21.930  -3.455 -11.221  0.00  0.00     0.042 A 
HETATM   18  H           1     -20.145  -2.853 -12.272  0.00  0.00     0.165 HD
HETATM   19  C           1     -23.012  -2.901 -11.915  0.00  0.00     0.030 A 
HETATM   20  C           1     -22.090  -4.235 -10.076  0.00  0.00    -0.002 A 
HETATM   21  C           1     -24.295  -3.153 -11.420  0.00  0.00     0.002 A 
HETATM   22  C           1     -24.485  -3.929 -10.278  0.00  0.00     0.001 A 
HETATM   23  C           1     -23.392  -4.477  -9.596  0.00  0.00     0.014 A 
ENDBRANCH  13  14
ENDBRANCH   1  13
BRANCH   1  24
HETATM   24  N           1     -20.951  -3.500  -7.046  0.00  0.00    -0.066 N 
HETATM   25  H           1     -21.490  -3.147  -6.225  0.00  0.00     0.275 HD
HETATM   26  H           1     -21.231  -2.968  -7.902  0.00  0.00     0.275 HD
HETATM   27  H           1     -19.928  -3.368  -6.875  0.00  0.00     0.275 HD
ENDBRANCH   1  24
TORSDOF 8
ENDMDL
MODEL 8
REMARK VINA RESULT:      -6.4      5.180      7.951
REMARK  8 active torsions:
REMARK  status: ('A' for Active; 'I' for Inactive)
REMARK    1  A    between atoms: C_5  and  Se_21 
REMARK    2  A    between atoms: C_5  and  C_6 
REMARK    3  A    between atoms: C_6  and  C_7 
REMARK    4  A    between atoms: C_6  and  N_24 
REMARK    5  A    between atoms: C_13  and  C_26 
REMARK    6  A    between atoms: C_13  and  C_17 
REMARK    7  A    between atoms: C_13  and  N_25 
REMARK    8  A    between atoms: C_17  and  C_19 
REMARK       I    between atoms: N_24  and  C_26 
ROOT
HETATM    1  C           1     -19.566  -8.519  -3.775  0.00  0.00     0.278 C 
ENDROOT
BRANCH   1   2
HETATM    2  C           1     -20.567  -9.075  -2.793  0.00  0.00     0.249 C 
HETATM    3  O           1     -21.150 -10.104  -3.041  0.00  0.00    -0.271 OA
HETATM    4  N           1     -20.816  -8.415  -1.620  0.00  0.00    -0.345 N 
HETATM    5  H           1     -20.329  -7.552  -1.411  0.00  0.00     0.163 HD
BRANCH   4   6
HETATM    6  C           1     -21.779  -8.950  -0.677  0.00  0.00     0.185 C 
BRANCH   6   7
HETATM    7  C           1     -21.044  -9.548   0.515  0.00  0.00     0.039 C 
BRANCH   7   8
HETATM    8 Se           1     -21.284 -11.482   0.525  0.00  0.00     0.000 Se
HETATM    9  H           1     -22.721 -11.420   0.835  0.00  0.00     0.000 HD
ENDBRANCH   7   8
ENDBRANCH   6   7
BRANCH   6  10
HETATM   10  C           1     -22.687  -7.842  -0.202  0.00  0.00     0.196 C 
HETATM   11  O           1     -22.713  -6.750  -0.811  0.00  0.00    -0.646 OA
HETATM   12  O           1     -23.413  -8.015   0.800  0.00  0.00    -0.646 OA
ENDBRANCH   6  10
ENDBRANCH   4   6
ENDBRANCH   1   2
BRANCH   1  13
HETATM   13  C           1     -20.145  -8.578  -5.181  0.00  0.00     0.083 C 
BRANCH  13  14
HETATM   14  C           1     -20.981  -7.360  -5.429  0.00  0.00    -0.028 A 
HETATM   15  C           1     -22.230  -7.113  -4.909  0.00  0.00     0.096 A 
HETATM   16  N           1     -22.647  -5.896  -5.378  0.00  0.00    -0.365 N 
HETATM   17  C           1     -21.686  -5.347  -6.197  0.00  0.00     0.042 A 
HETATM   18  H           1     -23.567  -5.446  -5.148  0.00  0.00     0.165 HD
HETATM   19  C           1     -21.675  -4.132  -6.892  0.00  0.00     0.030 A 
HETATM   20  C           1     -20.624  -6.251  -6.246  0.00  0.00    -0.002 A 
HETATM   21  C           1     -20.544  -3.835  -7.659  0.00  0.00     0.002 A 
HETATM   22  C           1     -19.469  -4.719  -7.725  0.00  0.00     0.001 A 
HETATM   23  C           1     -19.495  -5.930  -7.024  0.00  0.00     0.014 A 
ENDBRANCH  13  14
ENDBRANCH   1  13
BRANCH   1  24
HETATM   24  N           1     -18.307  -9.331  -3.718  0.00  0.00    -0.066 N 
HETATM   25  H           1     -17.506  -8.756  -4.061  0.00  0.00     0.275 HD
HETATM   26  H           1     -18.412 -10.179  -4.321  0.00  0.00     0.275 HD
HETATM   27  H           1     -18.126  -9.627  -2.732  0.00  0.00     0.275 HD
ENDBRANCH   1  24
TORSDOF 8
ENDMDL
MODEL 9
REMARK VINA RESULT:      -6.4     13.374     15.630
REMARK  8 active torsions:
REMARK  status: ('A' for Active; 'I' for Inactive)
REMARK    1  A    between atoms: C_5  and  Se_21 
REMARK    2  A    between atoms: C_5  and  C_6 
REMARK    3  A    between atoms: C_6  and  C_7 
REMARK    4  A    between atoms: C_6  and  N_24 
REMARK    5  A    between atoms: C_13  and  C_26 
REMARK    6  A    between atoms: C_13  and  C_17 
REMARK    7  A    between atoms: C_13  and  N_25 
REMARK    8  A    between atoms: C_17  and  C_19 
REMARK       I    between atoms: N_24  and  C_26 
ROOT
HETATM    1  C           1     -36.085  -0.386 -11.294  0.00  0.00     0.278 C 
ENDROOT
BRANCH   1   2
HETATM    2  C           1     -36.879  -0.440 -12.575  0.00  0.00     0.249 C 
HETATM    3  O           1     -38.075  -0.614 -12.538  0.00  0.00    -0.271 OA
HETATM    4  N           1     -36.247  -0.291 -13.780  0.00  0.00    -0.345 N 
HETATM    5  H           1     -35.246  -0.145 -13.812  0.00  0.00     0.163 HD
BRANCH   4   6
HETATM    6  C           1     -37.011  -0.342 -15.011  0.00  0.00     0.185 C 
BRANCH   6   7
HETATM    7  C           1     -37.367   1.072 -15.449  0.00  0.00     0.039 C 
BRANCH   7   8
HETATM    8 Se           1     -35.733   2.093 -15.742  0.00  0.00     0.000 Se
HETATM    9  H           1     -36.423   3.249 -16.336  0.00  0.00     0.000 HD
ENDBRANCH   7   8
ENDBRANCH   6   7
BRANCH   6  10
HETATM   10  C           1     -36.187  -1.008 -16.087  0.00  0.00     0.196 C 
HETATM   11  O           1     -35.140  -1.618 -15.784  0.00  0.00    -0.646 OA
HETATM   12  O           1     -36.553  -0.948 -17.280  0.00  0.00    -0.646 OA
ENDBRANCH   6  10
ENDBRANCH   4   6
ENDBRANCH   1   2
BRANCH   1  13
HETATM   13  C           1     -36.150  -1.739 -10.598  0.00  0.00     0.083 C 
BRANCH  13  14
HETATM   14  C           1     -34.902  -2.512 -10.891  0.00  0.00    -0.028 A 
HETATM   15  C           1     -33.694  -1.985 -11.285  0.00  0.00     0.096 A 
HETATM   16  N           1     -32.815  -3.023 -11.449  0.00  0.00    -0.365 N 
HETATM   17  C           1     -33.436  -4.219 -11.167  0.00  0.00     0.042 A 
HETATM   18  H           1     -31.814  -2.921 -11.747  0.00  0.00     0.165 HD
HETATM   19  C           1     -32.937  -5.526 -11.199  0.00  0.00     0.030 A 
HETATM   20  C           1     -34.752  -3.925 -10.813  0.00  0.00    -0.002 A 
HETATM   21  C           1     -33.813  -6.562 -10.858  0.00  0.00     0.002 A 
HETATM   22  C           1     -35.133  -6.297 -10.500  0.00  0.00     0.001 A 
HETATM   23  C           1     -35.616  -4.984 -10.472  0.00  0.00     0.014 A 
ENDBRANCH  13  14
ENDBRANCH   1  13
BRANCH   1  24
HETATM   24  N           1     -36.659   0.667 -10.394  0.00  0.00    -0.066 N 
HETATM   25  H           1     -35.891   1.283 -10.045  0.00  0.00     0.275 HD
HETATM   26  H           1     -37.136   0.211  -9.583  0.00  0.00     0.275 HD
HETATM   27  H           1     -37.351   1.241 -10.927  0.00  0.00     0.275 HD
ENDBRANCH   1  24
TORSDOF 8
ENDMDL
