MODEL 1
REMARK VINA RESULT:      -6.2      0.000      0.000
REMARK  8 active torsions:
REMARK  status: ('A' for Active; 'I' for Inactive)
REMARK    1  A    between atoms: O_1  and  C_2 
REMARK    2  A    between atoms: C_2  and  C_3 
REMARK    3  A    between atoms: C_3  and  C_14 
REMARK    4  A    between atoms: C_3  and  N_5 
REMARK       I    between atoms: N_5  and  C_11 
REMARK    5  A    between atoms: C_8  and  C_9 
REMARK    6  A    between atoms: C_9  and  C_10 
REMARK    7  A    between atoms: C_10  and  C_11 
REMARK    8  A    between atoms: C_10  and  N_15 
ROOT
HETATM    1  N           1     -34.956  -0.535 -14.092  0.00  0.00    -0.343 N 
HETATM    2  C           1     -35.370  -1.155 -12.944  0.00  0.00     0.249 C 
HETATM    3  O           1     -36.549  -1.273 -12.711  0.00  0.00    -0.271 OA
HETATM    4  H           1     -33.967  -0.437 -14.286  0.00  0.00     0.163 HD
ENDROOT
BRANCH   2   5
HETATM    5  C           1     -34.352  -1.692 -11.967  0.00  0.00     0.284 C 
BRANCH   5   6
HETATM    6  C           1     -34.147  -3.181 -12.214  0.00  0.00     0.155 C 
BRANCH   6   7
HETATM    7  C           1     -34.717  -3.965 -11.058  0.00  0.00     0.175 C 
HETATM    8  O           1     -33.951  -4.546 -10.258  0.00  0.00    -0.648 OA
HETATM    9  O           1     -35.956  -4.034 -10.900  0.00  0.00    -0.648 OA
ENDBRANCH   6   7
ENDBRANCH   5   6
BRANCH   5  10
HETATM   10  N           1     -34.845  -1.481 -10.566  0.00  0.00    -0.066 N 
HETATM   11  H           1     -34.052  -1.167  -9.961  0.00  0.00     0.275 HD
HETATM   12  H           1     -35.593  -0.752 -10.567  0.00  0.00     0.275 HD
HETATM   13  H           1     -35.232  -2.378 -10.194  0.00  0.00     0.275 HD
ENDBRANCH   5  10
ENDBRANCH   2   5
BRANCH   1  14
HETATM   14  C           1     -35.934  -0.020 -15.029  0.00  0.00     0.209 C 
BRANCH  14  15
HETATM   15  C           1     -35.615   1.436 -15.345  0.00  0.00     0.200 C 
BRANCH  15  16
HETATM   16  O           1     -36.650   1.986 -16.115  0.00  0.00    -0.398 OA
HETATM   17  H           1     -37.446   1.870 -15.626  0.00  0.00     0.209 HD
ENDBRANCH  15  16
ENDBRANCH  14  15
BRANCH  14  18
HETATM   18  C           1     -35.890  -0.832 -16.301  0.00  0.00     0.198 C 
HETATM   19  O           1     -36.841  -0.779 -17.109  0.00  0.00    -0.646 OA
HETATM   20  O           1     -34.900  -1.556 -16.545  0.00  0.00    -0.646 OA
ENDBRANCH  14  18
ENDBRANCH   1  14
TORSDOF 8
ENDMDL
MODEL 2
REMARK VINA RESULT:      -5.8      1.775      5.638
REMARK  8 active torsions:
REMARK  status: ('A' for Active; 'I' for Inactive)
REMARK    1  A    between atoms: O_1  and  C_2 
REMARK    2  A    between atoms: C_2  and  C_3 
REMARK    3  A    between atoms: C_3  and  C_14 
REMARK    4  A    between atoms: C_3  and  N_5 
REMARK       I    between atoms: N_5  and  C_11 
REMARK    5  A    between atoms: C_8  and  C_9 
REMARK    6  A    between atoms: C_9  and  C_10 
REMARK    7  A    between atoms: C_10  and  C_11 
REMARK    8  A    between atoms: C_10  and  N_15 
ROOT
HETATM    1  N           1     -34.853  -1.978 -13.033  0.00  0.00    -0.343 N 
HETATM    2  C           1     -35.873  -1.096 -12.798  0.00  0.00     0.249 C 
HETATM    3  O           1     -36.570  -1.222 -11.820  0.00  0.00    -0.271 OA
HETATM    4  H           1     -34.269  -1.870 -13.852  0.00  0.00     0.163 HD
ENDROOT
BRANCH   2   5
HETATM    5  C           1     -36.128   0.037 -13.762  0.00  0.00     0.284 C 
BRANCH   5   6
HETATM    6  C           1     -37.544  -0.072 -14.312  0.00  0.00     0.155 C 
BRANCH   6   7
HETATM    7  C           1     -37.539   0.259 -15.784  0.00  0.00     0.175 C 
HETATM    8  O           1     -37.601  -0.659 -16.632  0.00  0.00    -0.648 OA
HETATM    9  O           1     -37.471   1.451 -16.157  0.00  0.00    -0.648 OA
ENDBRANCH   6   7
ENDBRANCH   5   6
BRANCH   5  10
HETATM   10  N           1     -35.145  -0.040 -14.894  0.00  0.00    -0.066 N 
HETATM   11  H           1     -34.808   0.921 -15.128  0.00  0.00     0.275 HD
HETATM   12  H           1     -34.335  -0.635 -14.610  0.00  0.00     0.275 HD
HETATM   13  H           1     -35.611  -0.459 -15.731  0.00  0.00     0.275 HD
ENDBRANCH   5  10
ENDBRANCH   2   5
BRANCH   1  14
HETATM   14  C           1     -34.609  -3.065 -12.105  0.00  0.00     0.209 C 
BRANCH  14  15
HETATM   15  C           1     -34.426  -4.363 -12.883  0.00  0.00     0.200 C 
BRANCH  15  16
HETATM   16  O           1     -33.670  -4.114 -14.038  0.00  0.00    -0.398 OA
HETATM   17  H           1     -32.799  -3.898 -13.753  0.00  0.00     0.209 HD
ENDBRANCH  15  16
ENDBRANCH  14  15
BRANCH  14  18
HETATM   18  C           1     -33.361  -2.776 -11.308  0.00  0.00     0.198 C 
HETATM   19  O           1     -33.349  -1.835 -10.486  0.00  0.00    -0.646 OA
HETATM   20  O           1     -32.340  -3.479 -11.469  0.00  0.00    -0.646 OA
ENDBRANCH  14  18
ENDBRANCH   1  14
TORSDOF 8
ENDMDL
MODEL 3
REMARK VINA RESULT:      -5.7      1.478      5.345
REMARK  8 active torsions:
REMARK  status: ('A' for Active; 'I' for Inactive)
REMARK    1  A    between atoms: O_1  and  C_2 
REMARK    2  A    between atoms: C_2  and  C_3 
REMARK    3  A    between atoms: C_3  and  C_14 
REMARK    4  A    between atoms: C_3  and  N_5 
REMARK       I    between atoms: N_5  and  C_11 
REMARK    5  A    between atoms: C_8  and  C_9 
REMARK    6  A    between atoms: C_9  and  C_10 
REMARK    7  A    between atoms: C_10  and  C_11 
REMARK    8  A    between atoms: C_10  and  N_15 
ROOT
HETATM    1  N           1     -34.863  -1.507 -12.988  0.00  0.00    -0.343 N 
HETATM    2  C           1     -35.148  -0.168 -12.963  0.00  0.00     0.249 C 
HETATM    3  O           1     -35.029   0.457 -11.937  0.00  0.00    -0.271 OA
HETATM    4  H           1     -34.961  -2.030 -13.849  0.00  0.00     0.163 HD
ENDROOT
BRANCH   2   5
HETATM    5  C           1     -35.610   0.528 -14.220  0.00  0.00     0.284 C 
BRANCH   5   6
HETATM    6  C           1     -36.716  -0.288 -14.877  0.00  0.00     0.155 C 
BRANCH   6   7
HETATM    7  C           1     -36.173  -0.972 -16.107  0.00  0.00     0.175 C 
HETATM    8  O           1     -36.587  -0.642 -17.240  0.00  0.00    -0.648 OA
HETATM    9  O           1     -35.309  -1.869 -15.993  0.00  0.00    -0.648 OA
ENDBRANCH   6   7
ENDBRANCH   5   6
BRANCH   5  10
HETATM   10  N           1     -34.456   0.662 -15.170  0.00  0.00    -0.066 N 
HETATM   11  H           1     -34.371  -0.210 -15.740  0.00  0.00     0.275 HD
HETATM   12  H           1     -34.620   1.478 -15.801  0.00  0.00     0.275 HD
HETATM   13  H           1     -33.575   0.811 -14.627  0.00  0.00     0.275 HD
ENDBRANCH   5  10
ENDBRANCH   2   5
BRANCH   1  14
HETATM   14  C           1     -34.419  -2.175 -11.780  0.00  0.00     0.209 C 
BRANCH  14  15
HETATM   15  C           1     -35.632  -2.625 -10.975  0.00  0.00     0.200 C 
BRANCH  15  16
HETATM   16  O           1     -35.769  -4.017 -11.073  0.00  0.00    -0.398 OA
HETATM   17  H           1     -34.934  -4.355 -11.348  0.00  0.00     0.209 HD
ENDBRANCH  15  16
ENDBRANCH  14  15
BRANCH  14  18
HETATM   18  C           1     -33.585  -3.378 -12.148  0.00  0.00     0.198 C 
HETATM   19  O           1     -32.850  -3.915 -11.292  0.00  0.00    -0.646 OA
HETATM   20  O           1     -33.630  -3.837 -13.310  0.00  0.00    -0.646 OA
ENDBRANCH  14  18
ENDBRANCH   1  14
TORSDOF 8
ENDMDL
MODEL 4
REMARK VINA RESULT:      -5.7     12.273     14.770
REMARK  8 active torsions:
REMARK  status: ('A' for Active; 'I' for Inactive)
REMARK    1  A    between atoms: O_1  and  C_2 
REMARK    2  A    between atoms: C_2  and  C_3 
REMARK    3  A    between atoms: C_3  and  C_14 
REMARK    4  A    between atoms: C_3  and  N_5 
REMARK       I    between atoms: N_5  and  C_11 
REMARK    5  A    between atoms: C_8  and  C_9 
REMARK    6  A    between atoms: C_9  and  C_10 
REMARK    7  A    between atoms: C_10  and  C_11 
REMARK    8  A    between atoms: C_10  and  N_15 
ROOT
HETATM    1  N           1     -21.624  -4.269  -9.323  0.00  0.00    -0.343 N 
HETATM    2  C           1     -22.572  -3.827 -10.206  0.00  0.00     0.249 C 
HETATM    3  O           1     -23.515  -3.185  -9.811  0.00  0.00    -0.271 OA
HETATM    4  H           1     -20.833  -4.806  -9.655  0.00  0.00     0.163 HD
ENDROOT
BRANCH   2   5
HETATM    5  C           1     -22.437  -4.140 -11.676  0.00  0.00     0.284 C 
BRANCH   5   6
HETATM    6  C           1     -22.549  -2.853 -12.483  0.00  0.00     0.155 C 
BRANCH   6   7
HETATM    7  C           1     -23.729  -2.948 -13.419  0.00  0.00     0.175 C 
HETATM    8  O           1     -23.549  -3.211 -14.628  0.00  0.00    -0.648 OA
HETATM    9  O           1     -24.887  -2.762 -12.985  0.00  0.00    -0.648 OA
ENDBRANCH   6   7
ENDBRANCH   5   6
BRANCH   5  10
HETATM   10  N           1     -23.528  -5.085 -12.088  0.00  0.00    -0.066 N 
HETATM   11  H           1     -24.457  -4.671 -11.848  0.00  0.00     0.275 HD
HETATM   12  H           1     -23.474  -5.249 -13.118  0.00  0.00     0.275 HD
HETATM   13  H           1     -23.410  -5.992 -11.582  0.00  0.00     0.275 HD
ENDBRANCH   5  10
ENDBRANCH   2   5
BRANCH   1  14
HETATM   14  C           1     -21.755  -3.968  -7.910  0.00  0.00     0.209 C 
BRANCH  14  15
HETATM   15  C           1     -22.746  -4.935  -7.275  0.00  0.00     0.200 C 
BRANCH  15  16
HETATM   16  O           1     -23.931  -4.254  -6.965  0.00  0.00    -0.398 OA
HETATM   17  H           1     -24.165  -3.752  -7.726  0.00  0.00     0.209 HD
ENDBRANCH  15  16
ENDBRANCH  14  15
BRANCH  14  18
HETATM   18  C           1     -20.411  -4.112  -7.239  0.00  0.00     0.198 C 
HETATM   19  O           1     -19.362  -4.006  -7.911  0.00  0.00    -0.646 OA
HETATM   20  O           1     -20.347  -4.337  -6.011  0.00  0.00    -0.646 OA
ENDBRANCH  14  18
ENDBRANCH   1  14
TORSDOF 8
ENDMDL
MODEL 5
REMARK VINA RESULT:      -5.6     12.384     14.995
REMARK  8 active torsions:
REMARK  status: ('A' for Active; 'I' for Inactive)
REMARK    1  A    between atoms: O_1  and  C_2 
REMARK    2  A    between atoms: C_2  and  C_3 
REMARK    3  A    between atoms: C_3  and  C_14 
REMARK    4  A    between atoms: C_3  and  N_5 
REMARK       I    between atoms: N_5  and  C_11 
REMARK    5  A    between atoms: C_8  and  C_9 
REMARK    6  A    between atoms: C_9  and  C_10 
REMARK    7  A    between atoms: C_10  and  C_11 
REMARK    8  A    between atoms: C_10  and  N_15 
ROOT
HETATM    1  N           1     -21.420  -4.049  -9.469  0.00  0.00    -0.343 N 
HETATM    2  C           1     -22.378  -4.120 -10.444  0.00  0.00     0.249 C 
HETATM    3  O           1     -23.218  -4.986 -10.404  0.00  0.00    -0.271 OA
HETATM    4  H           1     -20.716  -3.322  -9.502  0.00  0.00     0.163 HD
ENDROOT
BRANCH   2   5
HETATM    5  C           1     -22.385  -3.115 -11.569  0.00  0.00     0.284 C 
BRANCH   5   6
HETATM    6  C           1     -23.822  -2.774 -11.938  0.00  0.00     0.155 C 
BRANCH   6   7
HETATM    7  C           1     -24.022  -2.971 -13.421  0.00  0.00     0.175 C 
HETATM    8  O           1     -23.816  -2.025 -14.211  0.00  0.00    -0.648 OA
HETATM    9  O           1     -24.394  -4.082 -13.858  0.00  0.00    -0.648 OA
ENDBRANCH   6   7
ENDBRANCH   5   6
BRANCH   5  10
HETATM   10  N           1     -21.687  -3.698 -12.764  0.00  0.00    -0.066 N 
HETATM   11  H           1     -21.926  -3.140 -13.614  0.00  0.00     0.275 HD
HETATM   12  H           1     -20.655  -3.673 -12.609  0.00  0.00     0.275 HD
HETATM   13  H           1     -21.997  -4.687 -12.898  0.00  0.00     0.275 HD
ENDBRANCH   5  10
ENDBRANCH   2   5
BRANCH   1  14
HETATM   14  C           1     -21.414  -5.015  -8.387  0.00  0.00     0.209 C 
BRANCH  14  15
HETATM   15  C           1     -19.986  -5.480  -8.131  0.00  0.00     0.200 C 
BRANCH  15  16
HETATM   16  O           1     -19.977  -6.404  -7.076  0.00  0.00    -0.398 OA
HETATM   17  H           1     -19.394  -7.099  -7.327  0.00  0.00     0.209 HD
ENDBRANCH  15  16
ENDBRANCH  14  15
BRANCH  14  18
HETATM   18  C           1     -21.966  -4.374  -7.137  0.00  0.00     0.198 C 
HETATM   19  O           1     -21.234  -3.647  -6.432  0.00  0.00    -0.646 OA
HETATM   20  O           1     -23.156  -4.571  -6.809  0.00  0.00    -0.646 OA
ENDBRANCH  14  18
ENDBRANCH   1  14
TORSDOF 8
ENDMDL
MODEL 6
REMARK VINA RESULT:      -5.5     12.909     15.517
REMARK  8 active torsions:
REMARK  status: ('A' for Active; 'I' for Inactive)
REMARK    1  A    between atoms: O_1  and  C_2 
REMARK    2  A    between atoms: C_2  and  C_3 
REMARK    3  A    between atoms: C_3  and  C_14 
REMARK    4  A    between atoms: C_3  and  N_5 
REMARK       I    between atoms: N_5  and  C_11 
REMARK    5  A    between atoms: C_8  and  C_9 
REMARK    6  A    between atoms: C_9  and  C_10 
REMARK    7  A    between atoms: C_10  and  C_11 
REMARK    8  A    between atoms: C_10  and  N_15 
ROOT
HETATM    1  N           1     -21.392  -4.552  -9.084  0.00  0.00    -0.343 N 
HETATM    2  C           1     -21.096  -4.374 -10.409  0.00  0.00     0.249 C 
HETATM    3  O           1     -20.055  -4.791 -10.858  0.00  0.00    -0.271 OA
HETATM    4  H           1     -22.264  -4.203  -8.709  0.00  0.00     0.163 HD
ENDROOT
BRANCH   2   5
HETATM    5  C           1     -22.072  -3.658 -11.310  0.00  0.00     0.284 C 
BRANCH   5   6
HETATM    6  C           1     -23.404  -4.395 -11.306  0.00  0.00     0.155 C 
BRANCH   6   7
HETATM    7  C           1     -24.522  -3.416 -11.566  0.00  0.00     0.175 C 
HETATM    8  O           1     -25.292  -3.084 -10.638  0.00  0.00    -0.648 OA
HETATM    9  O           1     -24.679  -2.937 -12.711  0.00  0.00    -0.648 OA
ENDBRANCH   6   7
ENDBRANCH   5   6
BRANCH   5  10
HETATM   10  N           1     -21.526  -3.619 -12.707  0.00  0.00    -0.066 N 
HETATM   11  H           1     -21.601  -2.647 -13.084  0.00  0.00     0.275 HD
HETATM   12  H           1     -20.524  -3.914 -12.697  0.00  0.00     0.275 HD
HETATM   13  H           1     -22.076  -4.270 -13.313  0.00  0.00     0.275 HD
ENDBRANCH   5  10
ENDBRANCH   2   5
BRANCH   1  14
HETATM   14  C           1     -20.453  -5.240  -8.220  0.00  0.00     0.209 C 
BRANCH  14  15
HETATM   15  C           1     -19.445  -4.240  -7.668  0.00  0.00     0.200 C 
BRANCH  15  16
HETATM   16  O           1     -19.250  -4.478  -6.300  0.00  0.00    -0.398 OA
HETATM   17  H           1     -20.048  -4.233  -5.864  0.00  0.00     0.209 HD
ENDBRANCH  15  16
ENDBRANCH  14  15
BRANCH  14  18
HETATM   18  C           1     -21.201  -5.883  -7.077  0.00  0.00     0.198 C 
HETATM   19  O           1     -22.120  -5.261  -6.503  0.00  0.00    -0.646 OA
HETATM   20  O           1     -20.901  -7.039  -6.706  0.00  0.00    -0.646 OA
ENDBRANCH  14  18
ENDBRANCH   1  14
TORSDOF 8
ENDMDL
MODEL 7
REMARK VINA RESULT:      -5.5     12.857     14.658
REMARK  8 active torsions:
REMARK  status: ('A' for Active; 'I' for Inactive)
REMARK    1  A    between atoms: O_1  and  C_2 
REMARK    2  A    between atoms: C_2  and  C_3 
REMARK    3  A    between atoms: C_3  and  C_14 
REMARK    4  A    between atoms: C_3  and  N_5 
REMARK       I    between atoms: N_5  and  C_11 
REMARK    5  A    between atoms: C_8  and  C_9 
REMARK    6  A    between atoms: C_9  and  C_10 
REMARK    7  A    between atoms: C_10  and  C_11 
REMARK    8  A    between atoms: C_10  and  N_15 
ROOT
HETATM    1  N           1     -22.264  -3.872  -9.586  0.00  0.00    -0.343 N 
HETATM    2  C           1     -20.954  -4.141  -9.294  0.00  0.00     0.249 C 
HETATM    3  O           1     -20.263  -4.725 -10.095  0.00  0.00    -0.271 OA
HETATM    4  H           1     -22.841  -3.381  -8.915  0.00  0.00     0.163 HD
ENDROOT
BRANCH   2   5
HETATM    5  C           1     -20.371  -3.707  -7.972  0.00  0.00     0.284 C 
BRANCH   5   6
HETATM    6  C           1     -19.503  -4.824  -7.407  0.00  0.00     0.155 C 
BRANCH   6   7
HETATM    7  C           1     -20.332  -5.691  -6.493  0.00  0.00     0.175 C 
HETATM    8  O           1     -20.377  -5.445  -5.268  0.00  0.00    -0.648 OA
HETATM    9  O           1     -20.973  -6.658  -6.961  0.00  0.00    -0.648 OA
ENDBRANCH   6   7
ENDBRANCH   5   6
BRANCH   5  10
HETATM   10  N           1     -21.483  -3.404  -7.011  0.00  0.00    -0.066 N 
HETATM   11  H           1     -21.101  -2.886  -6.187  0.00  0.00     0.275 HD
HETATM   12  H           1     -22.203  -2.817  -7.488  0.00  0.00     0.275 HD
HETATM   13  H           1     -21.917  -4.298  -6.689  0.00  0.00     0.275 HD
ENDBRANCH   5  10
ENDBRANCH   2   5
BRANCH   1  14
HETATM   14  C           1     -22.823  -4.289 -10.857  0.00  0.00     0.209 C 
BRANCH  14  15
HETATM   15  C           1     -24.005  -5.218 -10.610  0.00  0.00     0.200 C 
BRANCH  15  16
HETATM   16  O           1     -24.883  -4.625  -9.692  0.00  0.00    -0.398 OA
HETATM   17  H           1     -25.267  -3.882 -10.123  0.00  0.00     0.209 HD
ENDBRANCH  15  16
ENDBRANCH  14  15
BRANCH  14  18
HETATM   18  C           1     -23.288  -3.076 -11.625  0.00  0.00     0.198 C 
HETATM   19  O           1     -24.510  -2.872 -11.789  0.00  0.00    -0.646 OA
HETATM   20  O           1     -22.451  -2.275 -12.094  0.00  0.00    -0.646 OA
ENDBRANCH  14  18
ENDBRANCH   1  14
TORSDOF 8
ENDMDL
MODEL 8
REMARK VINA RESULT:      -5.5     13.039     14.963
REMARK  8 active torsions:
REMARK  status: ('A' for Active; 'I' for Inactive)
REMARK    1  A    between atoms: O_1  and  C_2 
REMARK    2  A    between atoms: C_2  and  C_3 
REMARK    3  A    between atoms: C_3  and  C_14 
REMARK    4  A    between atoms: C_3  and  N_5 
REMARK       I    between atoms: N_5  and  C_11 
REMARK    5  A    between atoms: C_8  and  C_9 
REMARK    6  A    between atoms: C_9  and  C_10 
REMARK    7  A    between atoms: C_10  and  C_11 
REMARK    8  A    between atoms: C_10  and  N_15 
ROOT
HETATM    1  N           1     -22.199  -4.846  -8.969  0.00  0.00    -0.343 N 
HETATM    2  C           1     -21.627  -4.581  -7.753  0.00  0.00     0.249 C 
HETATM    3  O           1     -21.439  -3.439  -7.409  0.00  0.00    -0.271 OA
HETATM    4  H           1     -22.357  -5.803  -9.257  0.00  0.00     0.163 HD
ENDROOT
BRANCH   2   5
HETATM    5  C           1     -21.233  -5.718  -6.842  0.00  0.00     0.284 C 
BRANCH   5   6
HETATM    6  C           1     -20.957  -5.178  -5.445  0.00  0.00     0.155 C 
BRANCH   6   7
HETATM    7  C           1     -21.244  -6.252  -4.425  0.00  0.00     0.175 C 
HETATM    8  O           1     -22.016  -6.017  -3.470  0.00  0.00    -0.648 OA
HETATM    9  O           1     -20.709  -7.377  -4.535  0.00  0.00    -0.648 OA
ENDBRANCH   6   7
ENDBRANCH   5   6
BRANCH   5  10
HETATM   10  N           1     -19.996  -6.379  -7.376  0.00  0.00    -0.066 N 
HETATM   11  H           1     -20.256  -7.268  -7.860  0.00  0.00     0.275 HD
HETATM   12  H           1     -19.524  -5.738  -8.053  0.00  0.00     0.275 HD
HETATM   13  H           1     -19.346  -6.591  -6.584  0.00  0.00     0.275 HD
ENDBRANCH   5  10
ENDBRANCH   2   5
BRANCH   1  14
HETATM   14  C           1     -22.578  -3.753  -9.843  0.00  0.00     0.209 C 
BRANCH  14  15
HETATM   15  C           1     -21.733  -3.801 -11.110  0.00  0.00     0.200 C 
BRANCH  15  16
HETATM   16  O           1     -22.411  -4.529 -12.098  0.00  0.00    -0.398 OA
HETATM   17  H           1     -23.247  -4.767 -11.736  0.00  0.00     0.209 HD
ENDBRANCH  15  16
ENDBRANCH  14  15
BRANCH  14  18
HETATM   18  C           1     -24.037  -3.882 -10.207  0.00  0.00     0.198 C 
HETATM   19  O           1     -24.662  -4.926  -9.920  0.00  0.00    -0.646 OA
HETATM   20  O           1     -24.620  -2.945 -10.794  0.00  0.00    -0.646 OA
ENDBRANCH  14  18
ENDBRANCH   1  14
TORSDOF 8
ENDMDL
MODEL 9
REMARK VINA RESULT:      -5.4     12.439     15.022
REMARK  8 active torsions:
REMARK  status: ('A' for Active; 'I' for Inactive)
REMARK    1  A    between atoms: O_1  and  C_2 
REMARK    2  A    between atoms: C_2  and  C_3 
REMARK    3  A    between atoms: C_3  and  C_14 
REMARK    4  A    between atoms: C_3  and  N_5 
REMARK       I    between atoms: N_5  and  C_11 
REMARK    5  A    between atoms: C_8  and  C_9 
REMARK    6  A    between atoms: C_9  and  C_10 
REMARK    7  A    between atoms: C_10  and  C_11 
REMARK    8  A    between atoms: C_10  and  N_15 
ROOT
HETATM    1  N           1     -22.253  -5.178  -8.617  0.00  0.00    -0.343 N 
HETATM    2  C           1     -23.147  -4.231  -9.039  0.00  0.00     0.249 C 
HETATM    3  O           1     -23.056  -3.094  -8.644  0.00  0.00    -0.271 OA
HETATM    4  H           1     -22.329  -6.131  -8.949  0.00  0.00     0.163 HD
ENDROOT
BRANCH   2   5
HETATM    5  C           1     -24.248  -4.609  -9.999  0.00  0.00     0.284 C 
BRANCH   5   6
HETATM    6  C           1     -23.697  -4.640 -11.419  0.00  0.00     0.155 C 
BRANCH   6   7
HETATM    7  C           1     -24.008  -3.334 -12.107  0.00  0.00     0.175 C 
HETATM    8  O           1     -25.083  -3.197 -12.732  0.00  0.00    -0.648 OA
HETATM    9  O           1     -23.191  -2.389 -12.054  0.00  0.00    -0.648 OA
ENDBRANCH   6   7
ENDBRANCH   5   6
BRANCH   5  10
HETATM   10  N           1     -25.354  -3.599  -9.914  0.00  0.00    -0.066 N 
HETATM   11  H           1     -25.950  -3.661 -10.770  0.00  0.00     0.275 HD
HETATM   12  H           1     -25.936  -3.792  -9.068  0.00  0.00     0.275 HD
HETATM   13  H           1     -24.944  -2.640  -9.845  0.00  0.00     0.275 HD
ENDBRANCH   5  10
ENDBRANCH   2   5
BRANCH   1  14
HETATM   14  C           1     -21.195  -4.814  -7.694  0.00  0.00     0.209 C 
BRANCH  14  15
HETATM   15  C           1     -21.002  -5.932  -6.678  0.00  0.00     0.200 C 
BRANCH  15  16
HETATM   16  O           1     -19.900  -6.716  -7.048  0.00  0.00    -0.398 OA
HETATM   17  H           1     -20.135  -7.159  -7.844  0.00  0.00     0.209 HD
ENDBRANCH  15  16
ENDBRANCH  14  15
BRANCH  14  18
HETATM   18  C           1     -19.911  -4.601  -8.458  0.00  0.00     0.198 C 
HETATM   19  O           1     -19.859  -4.868  -9.678  0.00  0.00    -0.646 OA
HETATM   20  O           1     -18.901  -4.156  -7.871  0.00  0.00    -0.646 OA
ENDBRANCH  14  18
ENDBRANCH   1  14
TORSDOF 8
ENDMDL
