MODEL 1
REMARK VINA RESULT:      -6.7      0.000      0.000
REMARK  10 active torsions:
REMARK  status: ('A' for Active; 'I' for Inactive)
REMARK    1  A    between atoms: C_1  and  C_20 
REMARK    2  A    between atoms: N_4  and  C_20 
REMARK       I    between atoms: N_4  and  C_5 
REMARK    3  A    between atoms: C_5  and  C_11 
REMARK       I    between atoms: N_6  and  C_16 
REMARK    4  A    between atoms: N_7  and  C_11 
REMARK    5  A    between atoms: C_10  and  C_18 
REMARK    6  A    between atoms: C_11  and  C_12 
REMARK    7  A    between atoms: C_12  and  C_13 
REMARK    8  A    between atoms: C_13  and  C_14 
REMARK    9  A    between atoms: C_14  and  N_17 
REMARK       I    between atoms: N_15  and  C_16 
REMARK   10  A    between atoms: C_18  and  C_20 
ROOT
HETATM    1  C           1     -35.835   0.364 -14.768  0.00  0.00     0.274 C 
ENDROOT
BRANCH   1   2
HETATM    2  C           1     -36.453  -0.332 -13.582  0.00  0.00     0.249 C 
HETATM    3  N           1     -35.733  -0.487 -12.428  0.00  0.00    -0.344 N 
HETATM    4  H           1     -34.786  -0.135 -12.371  0.00  0.00     0.163 HD
HETATM    5  O           1     -37.583  -0.753 -13.649  0.00  0.00    -0.271 OA
BRANCH   3   6
HETATM    6  C           1     -36.326  -1.158 -11.287  0.00  0.00     0.189 C 
BRANCH   6   7
HETATM    7  C           1     -36.764  -0.129 -10.273  0.00  0.00     0.197 C 
HETATM    8  O           1     -37.721   0.632 -10.528  0.00  0.00    -0.646 OA
HETATM    9  O           1     -36.169  -0.040  -9.177  0.00  0.00    -0.646 OA
ENDBRANCH   6   7
BRANCH   6  10
HETATM   10  C           1     -35.300  -2.089 -10.655  0.00  0.00     0.014 C 
HETATM   11  C           1     -35.749  -3.533 -10.833  0.00  0.00     0.012 C 
BRANCH  10  12
HETATM   12  C           1     -33.950  -1.889 -11.333  0.00  0.00     0.002 C 
HETATM   13  C           1     -33.176  -3.201 -11.322  0.00  0.00     0.005 C 
ENDBRANCH  10  12
ENDBRANCH   6  10
ENDBRANCH   3   6
ENDBRANCH   1   2
BRANCH   1  14
HETATM   14  N           1     -34.423   0.751 -14.441  0.00  0.00    -0.067 N 
HETATM   15  H           1     -33.775   0.339 -15.149  0.00  0.00     0.275 HD
HETATM   16  H           1     -34.335   1.792 -14.453  0.00  0.00     0.275 HD
HETATM   17  H           1     -34.175   0.391 -13.492  0.00  0.00     0.275 HD
ENDBRANCH   1  14
BRANCH   1  18
HETATM   18  C           1     -35.838  -0.574 -15.968  0.00  0.00     0.044 C 
BRANCH  18  19
HETATM   19  C           1     -35.054  -1.835 -15.628  0.00  0.00     0.023 C 
BRANCH  19  20
HETATM   20  C           1     -34.528  -2.466 -16.911  0.00  0.00     0.138 C 
BRANCH  20  21
HETATM   21  N           1     -33.902  -3.760 -16.600  0.00  0.00    -0.227 N 
HETATM   22  C           1     -32.703  -3.981 -16.941  0.00  0.00     0.665 C 
HETATM   23  N           1     -32.025  -3.065 -17.564  0.00  0.00    -0.235 N 
HETATM   24  N           1     -32.164  -5.095 -16.673  0.00  0.00    -0.235 N 
HETATM   25  H           1     -31.034  -3.246 -17.845  0.00  0.00     0.174 HD
HETATM   26  H           1     -32.469  -2.144 -17.784  0.00  0.00     0.174 HD
HETATM   27  H           1     -31.170  -5.279 -16.955  0.00  0.00     0.174 HD
HETATM   28  H           1     -32.713  -5.836 -16.169  0.00  0.00     0.174 HD
HETATM   29  H           1     -34.450  -4.500 -16.097  0.00  0.00     0.177 HD
ENDBRANCH  20  21
ENDBRANCH  19  20
ENDBRANCH  18  19
ENDBRANCH   1  18
TORSDOF 10
ENDMDL
MODEL 2
REMARK VINA RESULT:      -6.6      2.934      4.651
REMARK  10 active torsions:
REMARK  status: ('A' for Active; 'I' for Inactive)
REMARK    1  A    between atoms: C_1  and  C_20 
REMARK    2  A    between atoms: N_4  and  C_20 
REMARK       I    between atoms: N_4  and  C_5 
REMARK    3  A    between atoms: C_5  and  C_11 
REMARK       I    between atoms: N_6  and  C_16 
REMARK    4  A    between atoms: N_7  and  C_11 
REMARK    5  A    between atoms: C_10  and  C_18 
REMARK    6  A    between atoms: C_11  and  C_12 
REMARK    7  A    between atoms: C_12  and  C_13 
REMARK    8  A    between atoms: C_13  and  C_14 
REMARK    9  A    between atoms: C_14  and  N_17 
REMARK       I    between atoms: N_15  and  C_16 
REMARK   10  A    between atoms: C_18  and  C_20 
ROOT
HETATM    1  C           1     -36.496  -0.597 -10.974  0.00  0.00     0.274 C 
ENDROOT
BRANCH   1   2
HETATM    2  C           1     -35.437  -1.636 -10.700  0.00  0.00     0.249 C 
HETATM    3  N           1     -35.456  -2.827 -11.376  0.00  0.00    -0.344 N 
HETATM    4  H           1     -36.181  -3.010 -12.058  0.00  0.00     0.163 HD
HETATM    5  O           1     -34.572  -1.417  -9.886  0.00  0.00    -0.271 OA
BRANCH   3   6
HETATM    6  C           1     -34.439  -3.826 -11.113  0.00  0.00     0.189 C 
BRANCH   6   7
HETATM    7  C           1     -33.438  -3.832 -12.243  0.00  0.00     0.197 C 
HETATM    8  O           1     -33.778  -3.442 -13.380  0.00  0.00    -0.646 OA
HETATM    9  O           1     -32.270  -4.229 -12.040  0.00  0.00    -0.646 OA
ENDBRANCH   6   7
BRANCH   6  10
HETATM   10  C           1     -35.091  -5.198 -11.004  0.00  0.00     0.014 C 
HETATM   11  C           1     -35.057  -5.883 -12.364  0.00  0.00     0.012 C 
BRANCH  10  12
HETATM   12  C           1     -34.331  -6.042  -9.989  0.00  0.00     0.002 C 
HETATM   13  C           1     -34.816  -7.484 -10.061  0.00  0.00     0.005 C 
ENDBRANCH  10  12
ENDBRANCH   6  10
ENDBRANCH   3   6
ENDBRANCH   1   2
BRANCH   1  14
HETATM   14  N           1     -36.277   0.587 -10.078  0.00  0.00    -0.067 N 
HETATM   15  H           1     -35.615   1.253 -10.537  0.00  0.00     0.275 HD
HETATM   16  H           1     -37.189   1.067  -9.906  0.00  0.00     0.275 HD
HETATM   17  H           1     -35.874   0.266  -9.170  0.00  0.00     0.275 HD
ENDBRANCH   1  14
BRANCH   1  18
HETATM   18  C           1     -36.412  -0.155 -12.429  0.00  0.00     0.044 C 
BRANCH  18  19
HETATM   19  C           1     -34.981   0.257 -12.752  0.00  0.00     0.023 C 
BRANCH  19  20
HETATM   20  C           1     -34.952   0.983 -14.090  0.00  0.00     0.138 C 
BRANCH  20  21
HETATM   21  N           1     -35.116   0.010 -15.181  0.00  0.00    -0.227 N 
HETATM   22  C           1     -36.060   0.147 -16.013  0.00  0.00     0.665 C 
HETATM   23  N           1     -36.883   1.147 -15.906  0.00  0.00    -0.235 N 
HETATM   24  N           1     -36.202  -0.691 -16.953  0.00  0.00    -0.235 N 
HETATM   25  H           1     -37.662   1.261 -16.594  0.00  0.00     0.174 HD
HETATM   26  H           1     -36.766   1.839 -15.131  0.00  0.00     0.174 HD
HETATM   27  H           1     -36.984  -0.578 -17.644  0.00  0.00     0.174 HD
HETATM   28  H           1     -35.536  -1.499 -17.040  0.00  0.00     0.174 HD
HETATM   29  H           1     -34.452  -0.798 -15.267  0.00  0.00     0.177 HD
ENDBRANCH  20  21
ENDBRANCH  19  20
ENDBRANCH  18  19
ENDBRANCH   1  18
TORSDOF 10
ENDMDL
MODEL 3
REMARK VINA RESULT:      -6.6      2.908      4.864
REMARK  10 active torsions:
REMARK  status: ('A' for Active; 'I' for Inactive)
REMARK    1  A    between atoms: C_1  and  C_20 
REMARK    2  A    between atoms: N_4  and  C_20 
REMARK       I    between atoms: N_4  and  C_5 
REMARK    3  A    between atoms: C_5  and  C_11 
REMARK       I    between atoms: N_6  and  C_16 
REMARK    4  A    between atoms: N_7  and  C_11 
REMARK    5  A    between atoms: C_10  and  C_18 
REMARK    6  A    between atoms: C_11  and  C_12 
REMARK    7  A    between atoms: C_12  and  C_13 
REMARK    8  A    between atoms: C_13  and  C_14 
REMARK    9  A    between atoms: C_14  and  N_17 
REMARK       I    between atoms: N_15  and  C_16 
REMARK   10  A    between atoms: C_18  and  C_20 
ROOT
HETATM    1  C           1     -36.346  -1.063 -10.755  0.00  0.00     0.274 C 
ENDROOT
BRANCH   1   2
HETATM    2  C           1     -35.194  -1.606 -11.562  0.00  0.00     0.249 C 
HETATM    3  N           1     -35.112  -2.948 -11.822  0.00  0.00    -0.344 N 
HETATM    4  H           1     -35.824  -3.576 -11.471  0.00  0.00     0.163 HD
HETATM    5  O           1     -34.343  -0.858 -11.980  0.00  0.00    -0.271 OA
BRANCH   3   6
HETATM    6  C           1     -34.004  -3.471 -12.597  0.00  0.00     0.189 C 
BRANCH   6   7
HETATM    7  C           1     -34.448  -3.690 -14.023  0.00  0.00     0.197 C 
HETATM    8  O           1     -34.700  -2.710 -14.757  0.00  0.00    -0.646 OA
HETATM    9  O           1     -34.565  -4.852 -14.469  0.00  0.00    -0.646 OA
ENDBRANCH   6   7
BRANCH   6  10
HETATM   10  C           1     -33.546  -4.794 -11.999  0.00  0.00     0.014 C 
HETATM   11  C           1     -32.024  -4.858 -12.016  0.00  0.00     0.012 C 
BRANCH  10  12
HETATM   12  C           1     -34.043  -4.901 -10.563  0.00  0.00     0.002 C 
HETATM   13  C           1     -34.456  -6.338 -10.273  0.00  0.00     0.005 C 
ENDBRANCH  10  12
ENDBRANCH   6  10
ENDBRANCH   3   6
ENDBRANCH   1   2
BRANCH   1  14
HETATM   14  N           1     -35.860  -0.671  -9.391  0.00  0.00    -0.067 N 
HETATM   15  H           1     -36.674  -0.398  -8.796  0.00  0.00     0.275 HD
HETATM   16  H           1     -35.364  -1.480  -8.952  0.00  0.00     0.275 HD
HETATM   17  H           1     -35.204   0.137  -9.475  0.00  0.00     0.275 HD
ENDBRANCH   1  14
BRANCH   1  18
HETATM   18  C           1     -36.928   0.157 -11.456  0.00  0.00     0.044 C 
BRANCH  18  19
HETATM   19  C           1     -38.074  -0.276 -12.361  0.00  0.00     0.023 C 
BRANCH  19  20
HETATM   20  C           1     -37.716   0.022 -13.811  0.00  0.00     0.138 C 
BRANCH  20  21
HETATM   21  N           1     -36.265  -0.127 -13.999  0.00  0.00    -0.227 N 
HETATM   22  C           1     -35.668   0.556 -14.881  0.00  0.00     0.665 C 
HETATM   23  N           1     -36.336   1.390 -15.621  0.00  0.00    -0.235 N 
HETATM   24  N           1     -34.418   0.429 -15.043  0.00  0.00    -0.235 N 
HETATM   25  H           1     -35.843   1.955 -16.350  0.00  0.00     0.174 HD
HETATM   26  H           1     -37.368   1.497 -15.487  0.00  0.00     0.174 HD
HETATM   27  H           1     -33.922   0.995 -15.775  0.00  0.00     0.174 HD
HETATM   28  H           1     -33.878  -0.246 -14.445  0.00  0.00     0.174 HD
HETATM   29  H           1     -35.726  -0.800 -13.402  0.00  0.00     0.177 HD
ENDBRANCH  20  21
ENDBRANCH  19  20
ENDBRANCH  18  19
ENDBRANCH   1  18
TORSDOF 10
ENDMDL
MODEL 4
REMARK VINA RESULT:      -6.6     14.025     16.061
REMARK  10 active torsions:
REMARK  status: ('A' for Active; 'I' for Inactive)
REMARK    1  A    between atoms: C_1  and  C_20 
REMARK    2  A    between atoms: N_4  and  C_20 
REMARK       I    between atoms: N_4  and  C_5 
REMARK    3  A    between atoms: C_5  and  C_11 
REMARK       I    between atoms: N_6  and  C_16 
REMARK    4  A    between atoms: N_7  and  C_11 
REMARK    5  A    between atoms: C_10  and  C_18 
REMARK    6  A    between atoms: C_11  and  C_12 
REMARK    7  A    between atoms: C_12  and  C_13 
REMARK    8  A    between atoms: C_13  and  C_14 
REMARK    9  A    between atoms: C_14  and  N_17 
REMARK       I    between atoms: N_15  and  C_16 
REMARK   10  A    between atoms: C_18  and  C_20 
ROOT
HETATM    1  C           1     -21.950  -4.512  -7.144  0.00  0.00     0.274 C 
ENDROOT
BRANCH   1   2
HETATM    2  C           1     -21.047  -5.300  -6.228  0.00  0.00     0.249 C 
HETATM    3  N           1     -21.515  -6.429  -5.610  0.00  0.00    -0.344 N 
HETATM    4  H           1     -22.467  -6.734  -5.767  0.00  0.00     0.163 HD
HETATM    5  O           1     -19.911  -4.937  -6.039  0.00  0.00    -0.271 OA
BRANCH   3   6
HETATM    6  C           1     -20.648  -7.186  -4.728  0.00  0.00     0.189 C 
BRANCH   6   7
HETATM    7  C           1     -20.228  -8.464  -5.414  0.00  0.00     0.197 C 
HETATM    8  O           1     -19.023  -8.668  -5.673  0.00  0.00    -0.646 OA
HETATM    9  O           1     -21.087  -9.318  -5.723  0.00  0.00    -0.646 OA
ENDBRANCH   6   7
BRANCH   6  10
HETATM   10  C           1     -21.396  -7.521  -3.445  0.00  0.00     0.014 C 
HETATM   11  C           1     -20.459  -8.244  -2.487  0.00  0.00     0.012 C 
BRANCH  10  12
HETATM   12  C           1     -21.892  -6.234  -2.797  0.00  0.00     0.002 C 
HETATM   13  C           1     -22.271  -6.507  -1.347  0.00  0.00     0.005 C 
ENDBRANCH  10  12
ENDBRANCH   6  10
ENDBRANCH   3   6
ENDBRANCH   1   2
BRANCH   1  14
HETATM   14  N           1     -21.581  -3.060  -7.081  0.00  0.00    -0.067 N 
HETATM   15  H           1     -22.392  -2.480  -7.395  0.00  0.00     0.275 HD
HETATM   16  H           1     -21.332  -2.806  -6.098  0.00  0.00     0.275 HD
HETATM   17  H           1     -20.764  -2.881  -7.705  0.00  0.00     0.275 HD
ENDBRANCH   1  14
BRANCH   1  18
HETATM   18  C           1     -21.789  -5.015  -8.572  0.00  0.00     0.044 C 
BRANCH  18  19
HETATM   19  C           1     -22.847  -4.371  -9.459  0.00  0.00     0.023 C 
BRANCH  19  20
HETATM   20  C           1     -22.171  -3.679 -10.635  0.00  0.00     0.138 C 
BRANCH  20  21
HETATM   21  N           1     -23.166  -2.896 -11.383  0.00  0.00    -0.227 N 
HETATM   22  C           1     -23.083  -2.805 -12.643  0.00  0.00     0.665 C 
HETATM   23  N           1     -22.118  -3.404 -13.276  0.00  0.00    -0.235 N 
HETATM   24  N           1     -23.940  -2.132 -13.287  0.00  0.00    -0.235 N 
HETATM   25  H           1     -22.049  -3.330 -14.316  0.00  0.00     0.174 HD
HETATM   26  H           1     -21.411  -3.961 -12.744  0.00  0.00     0.174 HD
HETATM   27  H           1     -23.871  -2.057 -14.332  0.00  0.00     0.174 HD
HETATM   28  H           1     -24.719  -1.648 -12.776  0.00  0.00     0.174 HD
HETATM   29  H           1     -23.944  -2.412 -10.872  0.00  0.00     0.177 HD
ENDBRANCH  20  21
ENDBRANCH  19  20
ENDBRANCH  18  19
ENDBRANCH   1  18
TORSDOF 10
ENDMDL
MODEL 5
REMARK VINA RESULT:      -6.5     13.863     16.319
REMARK  10 active torsions:
REMARK  status: ('A' for Active; 'I' for Inactive)
REMARK    1  A    between atoms: C_1  and  C_20 
REMARK    2  A    between atoms: N_4  and  C_20 
REMARK       I    between atoms: N_4  and  C_5 
REMARK    3  A    between atoms: C_5  and  C_11 
REMARK       I    between atoms: N_6  and  C_16 
REMARK    4  A    between atoms: N_7  and  C_11 
REMARK    5  A    between atoms: C_10  and  C_18 
REMARK    6  A    between atoms: C_11  and  C_12 
REMARK    7  A    between atoms: C_12  and  C_13 
REMARK    8  A    between atoms: C_13  and  C_14 
REMARK    9  A    between atoms: C_14  and  N_17 
REMARK       I    between atoms: N_15  and  C_16 
REMARK   10  A    between atoms: C_18  and  C_20 
ROOT
HETATM    1  C           1     -21.202  -5.753  -7.084  0.00  0.00     0.274 C 
ENDROOT
BRANCH   1   2
HETATM    2  C           1     -21.782  -4.617  -7.889  0.00  0.00     0.249 C 
HETATM    3  N           1     -22.409  -4.871  -9.080  0.00  0.00    -0.344 N 
HETATM    4  H           1     -22.483  -5.822  -9.420  0.00  0.00     0.163 HD
HETATM    5  O           1     -21.695  -3.482  -7.484  0.00  0.00    -0.271 OA
BRANCH   3   6
HETATM    6  C           1     -22.966  -3.780  -9.854  0.00  0.00     0.189 C 
BRANCH   6   7
HETATM    7  C           1     -24.469  -3.781  -9.714  0.00  0.00     0.197 C 
HETATM    8  O           1     -25.109  -4.845  -9.851  0.00  0.00    -0.646 OA
HETATM    9  O           1     -25.073  -2.716  -9.460  0.00  0.00    -0.646 OA
ENDBRANCH   6   7
BRANCH   6  10
HETATM   10  C           1     -22.593  -3.956 -11.320  0.00  0.00     0.014 C 
HETATM   11  C           1     -22.937  -2.685 -12.086  0.00  0.00     0.012 C 
BRANCH  10  12
HETATM   12  C           1     -21.099  -4.230 -11.434  0.00  0.00     0.002 C 
HETATM   13  C           1     -20.324  -2.951 -11.148  0.00  0.00     0.005 C 
ENDBRANCH  10  12
ENDBRANCH   6  10
ENDBRANCH   3   6
ENDBRANCH   1   2
BRANCH   1  14
HETATM   14  N           1     -19.822  -6.065  -7.583  0.00  0.00    -0.067 N 
HETATM   15  H           1     -19.345  -5.179  -7.864  0.00  0.00     0.275 HD
HETATM   16  H           1     -19.274  -6.530  -6.824  0.00  0.00     0.275 HD
HETATM   17  H           1     -19.887  -6.702  -8.408  0.00  0.00     0.275 HD
ENDBRANCH   1  14
BRANCH   1  18
HETATM   18  C           1     -21.133  -5.353  -5.616  0.00  0.00     0.044 C 
BRANCH  18  19
HETATM   19  C           1     -20.871  -6.589  -4.765  0.00  0.00     0.023 C 
BRANCH  19  20
HETATM   20  C           1     -21.502  -6.402  -3.392  0.00  0.00     0.138 C 
BRANCH  20  21
HETATM   21  N           1     -20.972  -7.414  -2.466  0.00  0.00    -0.227 N 
HETATM   22  C           1     -21.474  -7.539  -1.311  0.00  0.00     0.665 C 
HETATM   23  N           1     -22.458  -6.774  -0.942  0.00  0.00    -0.235 N 
HETATM   24  N           1     -21.018  -8.411  -0.513  0.00  0.00    -0.235 N 
HETATM   25  H           1     -22.873  -6.877   0.012  0.00  0.00     0.174 HD
HETATM   26  H           1     -22.835  -6.054  -1.601  0.00  0.00     0.174 HD
HETATM   27  H           1     -21.434  -8.516   0.445  0.00  0.00     0.174 HD
HETATM   28  H           1     -20.223  -9.030  -0.811  0.00  0.00     0.174 HD
HETATM   29  H           1     -20.178  -8.032  -2.763  0.00  0.00     0.177 HD
ENDBRANCH  20  21
ENDBRANCH  19  20
ENDBRANCH  18  19
ENDBRANCH   1  18
TORSDOF 10
ENDMDL
MODEL 6
REMARK VINA RESULT:      -6.4     14.219     16.407
REMARK  10 active torsions:
REMARK  status: ('A' for Active; 'I' for Inactive)
REMARK    1  A    between atoms: C_1  and  C_20 
REMARK    2  A    between atoms: N_4  and  C_20 
REMARK       I    between atoms: N_4  and  C_5 
REMARK    3  A    between atoms: C_5  and  C_11 
REMARK       I    between atoms: N_6  and  C_16 
REMARK    4  A    between atoms: N_7  and  C_11 
REMARK    5  A    between atoms: C_10  and  C_18 
REMARK    6  A    between atoms: C_11  and  C_12 
REMARK    7  A    between atoms: C_12  and  C_13 
REMARK    8  A    between atoms: C_13  and  C_14 
REMARK    9  A    between atoms: C_14  and  N_17 
REMARK       I    between atoms: N_15  and  C_16 
REMARK   10  A    between atoms: C_18  and  C_20 
ROOT
HETATM    1  C           1     -20.488  -5.161  -6.362  0.00  0.00     0.274 C 
ENDROOT
BRANCH   1   2
HETATM    2  C           1     -21.341  -5.986  -5.432  0.00  0.00     0.249 C 
HETATM    3  N           1     -20.750  -6.815  -4.516  0.00  0.00    -0.344 N 
HETATM    4  H           1     -19.741  -6.874  -4.463  0.00  0.00     0.163 HD
HETATM    5  O           1     -22.545  -5.917  -5.494  0.00  0.00    -0.271 OA
BRANCH   3   6
HETATM    6  C           1     -21.570  -7.610  -3.622  0.00  0.00     0.189 C 
BRANCH   6   7
HETATM    7  C           1     -21.652  -6.928  -2.278  0.00  0.00     0.197 C 
HETATM    8  O           1     -22.279  -5.853  -2.159  0.00  0.00    -0.646 OA
HETATM    9  O           1     -21.093  -7.439  -1.283  0.00  0.00    -0.646 OA
ENDBRANCH   6   7
BRANCH   6  10
HETATM   10  C           1     -20.947  -8.989  -3.454  0.00  0.00     0.014 C 
HETATM   11  C           1     -21.822 -10.027  -4.144  0.00  0.00     0.012 C 
BRANCH  10  12
HETATM   12  C           1     -19.558  -8.998  -4.081  0.00  0.00     0.002 C 
HETATM   13  C           1     -18.522  -9.337  -3.018  0.00  0.00     0.005 C 
ENDBRANCH  10  12
ENDBRANCH   6  10
ENDBRANCH   3   6
ENDBRANCH   1   2
BRANCH   1  14
HETATM   14  N           1     -20.043  -6.009  -7.517  0.00  0.00    -0.067 N 
HETATM   15  H           1     -19.034  -6.252  -7.402  0.00  0.00     0.275 HD
HETATM   16  H           1     -20.612  -6.884  -7.546  0.00  0.00     0.275 HD
HETATM   17  H           1     -20.173  -5.479  -8.407  0.00  0.00     0.275 HD
ENDBRANCH   1  14
BRANCH   1  18
HETATM   18  C           1     -21.298  -3.980  -6.882  0.00  0.00     0.044 C 
BRANCH  18  19
HETATM   19  C           1     -21.563  -4.163  -8.371  0.00  0.00     0.023 C 
BRANCH  19  20
HETATM   20  C           1     -23.059  -4.055  -8.637  0.00  0.00     0.138 C 
BRANCH  20  21
HETATM   21  N           1     -23.284  -3.738 -10.055  0.00  0.00    -0.227 N 
HETATM   22  C           1     -24.458  -3.524 -10.477  0.00  0.00     0.665 C 
HETATM   23  N           1     -25.465  -3.583  -9.657  0.00  0.00    -0.235 N 
HETATM   24  N           1     -24.652  -3.251 -11.698  0.00  0.00    -0.235 N 
HETATM   25  H           1     -26.435  -3.406 -10.005  0.00  0.00     0.174 HD
HETATM   26  H           1     -25.305  -3.808  -8.648  0.00  0.00     0.174 HD
HETATM   27  H           1     -25.626  -3.073 -12.049  0.00  0.00     0.174 HD
HETATM   28  H           1     -23.838  -3.203 -12.361  0.00  0.00     0.174 HD
HETATM   29  H           1     -22.471  -3.690 -10.717  0.00  0.00     0.177 HD
ENDBRANCH  20  21
ENDBRANCH  19  20
ENDBRANCH  18  19
ENDBRANCH   1  18
TORSDOF 10
ENDMDL
MODEL 7
REMARK VINA RESULT:      -6.3     13.470     15.911
REMARK  10 active torsions:
REMARK  status: ('A' for Active; 'I' for Inactive)
REMARK    1  A    between atoms: C_1  and  C_20 
REMARK    2  A    between atoms: N_4  and  C_20 
REMARK       I    between atoms: N_4  and  C_5 
REMARK    3  A    between atoms: C_5  and  C_11 
REMARK       I    between atoms: N_6  and  C_16 
REMARK    4  A    between atoms: N_7  and  C_11 
REMARK    5  A    between atoms: C_10  and  C_18 
REMARK    6  A    between atoms: C_11  and  C_12 
REMARK    7  A    between atoms: C_12  and  C_13 
REMARK    8  A    between atoms: C_13  and  C_14 
REMARK    9  A    between atoms: C_14  and  N_17 
REMARK       I    between atoms: N_15  and  C_16 
REMARK   10  A    between atoms: C_18  and  C_20 
ROOT
HETATM    1  C           1     -21.168  -5.797  -6.903  0.00  0.00     0.274 C 
ENDROOT
BRANCH   1   2
HETATM    2  C           1     -21.717  -4.620  -7.670  0.00  0.00     0.249 C 
HETATM    3  N           1     -22.308  -4.813  -8.890  0.00  0.00    -0.344 N 
HETATM    4  H           1     -22.375  -5.745  -9.277  0.00  0.00     0.163 HD
HETATM    5  O           1     -21.637  -3.506  -7.208  0.00  0.00    -0.271 OA
BRANCH   3   6
HETATM    6  C           1     -22.835  -3.681  -9.628  0.00  0.00     0.189 C 
BRANCH   6   7
HETATM    7  C           1     -24.341  -3.774  -9.678  0.00  0.00     0.197 C 
HETATM    8  O           1     -25.037  -2.761  -9.454  0.00  0.00    -0.646 OA
HETATM    9  O           1     -24.891  -4.864  -9.944  0.00  0.00    -0.646 OA
ENDBRANCH   6   7
BRANCH   6  10
HETATM   10  C           1     -22.278  -3.696 -11.045  0.00  0.00     0.014 C 
HETATM   11  C           1     -23.040  -2.691 -11.899  0.00  0.00     0.012 C 
BRANCH  10  12
HETATM   12  C           1     -20.802  -3.320 -11.013  0.00  0.00     0.002 C 
HETATM   13  C           1     -19.958  -4.580 -10.877  0.00  0.00     0.005 C 
ENDBRANCH  10  12
ENDBRANCH   6  10
ENDBRANCH   3   6
ENDBRANCH   1   2
BRANCH   1  14
HETATM   14  N           1     -19.838  -6.189  -7.476  0.00  0.00    -0.067 N 
HETATM   15  H           1     -19.707  -5.723  -8.402  0.00  0.00     0.275 HD
HETATM   16  H           1     -19.077  -5.892  -6.825  0.00  0.00     0.275 HD
HETATM   17  H           1     -19.806  -7.226  -7.601  0.00  0.00     0.275 HD
ENDBRANCH   1  14
BRANCH   1  18
HETATM   18  C           1     -20.997  -5.414  -5.439  0.00  0.00     0.044 C 
BRANCH  18  19
HETATM   19  C           1     -21.916  -6.273  -4.579  0.00  0.00     0.023 C 
BRANCH  19  20
HETATM   20  C           1     -21.118  -7.417  -3.969  0.00  0.00     0.138 C 
BRANCH  20  21
HETATM   21  N           1     -21.498  -8.681  -4.617  0.00  0.00    -0.227 N 
HETATM   22  C           1     -20.645  -9.326  -5.295  0.00  0.00     0.665 C 
HETATM   23  N           1     -19.434  -8.871  -5.418  0.00  0.00    -0.235 N 
HETATM   24  N           1     -20.971 -10.414  -5.853  0.00  0.00    -0.235 N 
HETATM   25  H           1     -18.728  -9.403  -5.978  0.00  0.00     0.174 HD
HETATM   26  H           1     -19.163  -7.972  -4.957  0.00  0.00     0.174 HD
HETATM   27  H           1     -20.264 -10.949  -6.416  0.00  0.00     0.174 HD
HETATM   28  H           1     -21.951 -10.782  -5.754  0.00  0.00     0.174 HD
HETATM   29  H           1     -22.476  -9.048  -4.518  0.00  0.00     0.177 HD
ENDBRANCH  20  21
ENDBRANCH  19  20
ENDBRANCH  18  19
ENDBRANCH   1  18
TORSDOF 10
ENDMDL
MODEL 8
REMARK VINA RESULT:      -6.1     12.553     14.482
REMARK  10 active torsions:
REMARK  status: ('A' for Active; 'I' for Inactive)
REMARK    1  A    between atoms: C_1  and  C_20 
REMARK    2  A    between atoms: N_4  and  C_20 
REMARK       I    between atoms: N_4  and  C_5 
REMARK    3  A    between atoms: C_5  and  C_11 
REMARK       I    between atoms: N_6  and  C_16 
REMARK    4  A    between atoms: N_7  and  C_11 
REMARK    5  A    between atoms: C_10  and  C_18 
REMARK    6  A    between atoms: C_11  and  C_12 
REMARK    7  A    between atoms: C_12  and  C_13 
REMARK    8  A    between atoms: C_13  and  C_14 
REMARK    9  A    between atoms: C_14  and  N_17 
REMARK       I    between atoms: N_15  and  C_16 
REMARK   10  A    between atoms: C_18  and  C_20 
ROOT
HETATM    1  C           1     -23.341  -4.795  -9.799  0.00  0.00     0.274 C 
ENDROOT
BRANCH   1   2
HETATM    2  C           1     -22.527  -4.468  -8.572  0.00  0.00     0.249 C 
HETATM    3  N           1     -22.030  -5.478  -7.792  0.00  0.00    -0.344 N 
HETATM    4  H           1     -22.210  -6.443  -8.038  0.00  0.00     0.163 HD
HETATM    5  O           1     -22.312  -3.317  -8.278  0.00  0.00    -0.271 OA
BRANCH   3   6
HETATM    6  C           1     -21.248  -5.165  -6.612  0.00  0.00     0.189 C 
BRANCH   6   7
HETATM    7  C           1     -19.795  -5.473  -6.877  0.00  0.00     0.197 C 
HETATM    8  O           1     -19.450  -6.631  -7.197  0.00  0.00    -0.646 OA
HETATM    9  O           1     -18.936  -4.570  -6.776  0.00  0.00    -0.646 OA
ENDBRANCH   6   7
BRANCH   6  10
HETATM   10  C           1     -21.740  -6.005  -5.440  0.00  0.00     0.014 C 
HETATM   11  C           1     -21.593  -7.482  -5.780  0.00  0.00     0.012 C 
BRANCH  10  12
HETATM   12  C           1     -20.911  -5.683  -4.203  0.00  0.00     0.002 C 
HETATM   13  C           1     -21.591  -6.262  -2.969  0.00  0.00     0.005 C 
ENDBRANCH  10  12
ENDBRANCH   6  10
ENDBRANCH   3   6
ENDBRANCH   1   2
BRANCH   1  14
HETATM   14  N           1     -24.752  -4.325  -9.602  0.00  0.00    -0.067 N 
HETATM   15  H           1     -24.767  -3.557  -8.893  0.00  0.00     0.275 HD
HETATM   16  H           1     -25.131  -3.969 -10.508  0.00  0.00     0.275 HD
HETATM   17  H           1     -25.339  -5.120  -9.266  0.00  0.00     0.275 HD
ENDBRANCH   1  14
BRANCH   1  18
HETATM   18  C           1     -22.738  -4.095 -11.010  0.00  0.00     0.044 C 
BRANCH  18  19
HETATM   19  C           1     -23.664  -2.973 -11.462  0.00  0.00     0.023 C 
BRANCH  19  20
HETATM   20  C           1     -24.211  -3.293 -12.847  0.00  0.00     0.138 C 
BRANCH  20  21
HETATM   21  N           1     -24.216  -2.072 -13.667  0.00  0.00    -0.227 N 
HETATM   22  C           1     -23.402  -1.954 -14.629  0.00  0.00     0.665 C 
HETATM   23  N           1     -22.563  -2.911 -14.893  0.00  0.00    -0.235 N 
HETATM   24  N           1     -23.406  -0.903 -15.336  0.00  0.00    -0.235 N 
HETATM   25  H           1     -21.891  -2.814 -15.689  0.00  0.00     0.174 HD
HETATM   26  H           1     -22.560  -3.779 -14.310  0.00  0.00     0.174 HD
HETATM   27  H           1     -22.731  -0.804 -16.135  0.00  0.00     0.174 HD
HETATM   28  H           1     -24.084  -0.130 -15.123  0.00  0.00     0.174 HD
HETATM   29  H           1     -24.893  -1.300 -13.454  0.00  0.00     0.177 HD
ENDBRANCH  20  21
ENDBRANCH  19  20
ENDBRANCH  18  19
ENDBRANCH   1  18
TORSDOF 10
ENDMDL
MODEL 9
REMARK VINA RESULT:      -5.8     13.026     14.881
REMARK  10 active torsions:
REMARK  status: ('A' for Active; 'I' for Inactive)
REMARK    1  A    between atoms: C_1  and  C_20 
REMARK    2  A    between atoms: N_4  and  C_20 
REMARK       I    between atoms: N_4  and  C_5 
REMARK    3  A    between atoms: C_5  and  C_11 
REMARK       I    between atoms: N_6  and  C_16 
REMARK    4  A    between atoms: N_7  and  C_11 
REMARK    5  A    between atoms: C_10  and  C_18 
REMARK    6  A    between atoms: C_11  and  C_12 
REMARK    7  A    between atoms: C_12  and  C_13 
REMARK    8  A    between atoms: C_13  and  C_14 
REMARK    9  A    between atoms: C_14  and  N_17 
REMARK       I    between atoms: N_15  and  C_16 
REMARK   10  A    between atoms: C_18  and  C_20 
ROOT
HETATM    1  C           1     -24.151  -4.339  -8.992  0.00  0.00     0.274 C 
ENDROOT
BRANCH   1   2
HETATM    2  C           1     -22.847  -4.139  -8.261  0.00  0.00     0.249 C 
HETATM    3  N           1     -22.503  -4.975  -7.232  0.00  0.00    -0.344 N 
HETATM    4  H           1     -23.124  -5.727  -6.963  0.00  0.00     0.163 HD
HETATM    5  O           1     -22.106  -3.241  -8.582  0.00  0.00    -0.271 OA
BRANCH   3   6
HETATM    6  C           1     -21.251  -4.782  -6.528  0.00  0.00     0.189 C 
BRANCH   6   7
HETATM    7  C           1     -20.102  -5.120  -7.447  0.00  0.00     0.197 C 
HETATM    8  O           1     -19.108  -4.366  -7.508  0.00  0.00    -0.646 OA
HETATM    9  O           1     -20.145  -6.155  -8.147  0.00  0.00    -0.646 OA
ENDBRANCH   6   7
BRANCH   6  10
HETATM   10  C           1     -21.209  -5.692  -5.308  0.00  0.00     0.014 C 
HETATM   11  C           1     -22.583  -6.312  -5.092  0.00  0.00     0.012 C 
BRANCH  10  12
HETATM   12  C           1     -20.183  -6.795  -5.532  0.00  0.00     0.002 C 
HETATM   13  C           1     -20.776  -8.134  -5.115  0.00  0.00     0.005 C 
ENDBRANCH  10  12
ENDBRANCH   6  10
ENDBRANCH   3   6
ENDBRANCH   1   2
BRANCH   1  14
HETATM   14  N           1     -24.864  -3.025  -9.112  0.00  0.00    -0.067 N 
HETATM   15  H           1     -24.256  -2.344  -9.620  0.00  0.00     0.275 HD
HETATM   16  H           1     -25.755  -3.159  -9.641  0.00  0.00     0.275 HD
HETATM   17  H           1     -25.076  -2.657  -8.158  0.00  0.00     0.275 HD
ENDBRANCH   1  14
BRANCH   1  18
HETATM   18  C           1     -23.874  -4.895 -10.383  0.00  0.00     0.044 C 
BRANCH  18  19
HETATM   19  C           1     -24.020  -3.781 -11.413  0.00  0.00     0.023 C 
BRANCH  19  20
HETATM   20  C           1     -22.746  -3.686 -12.242  0.00  0.00     0.138 C 
BRANCH  20  21
HETATM   21  N           1     -21.707  -4.540 -11.645  0.00  0.00    -0.227 N 
HETATM   22  C           1     -20.622  -4.027 -11.243  0.00  0.00     0.665 C 
HETATM   23  N           1     -20.425  -2.748 -11.357  0.00  0.00    -0.235 N 
HETATM   24  N           1     -19.727  -4.762 -10.729  0.00  0.00    -0.235 N 
HETATM   25  H           1     -19.528  -2.324 -11.024  0.00  0.00     0.174 HD
HETATM   26  H           1     -21.163  -2.141 -11.780  0.00  0.00     0.174 HD
HETATM   27  H           1     -18.827  -4.338 -10.395  0.00  0.00     0.174 HD
HETATM   28  H           1     -19.886  -5.796 -10.637  0.00  0.00     0.174 HD
HETATM   29  H           1     -21.866  -5.572 -11.553  0.00  0.00     0.177 HD
ENDBRANCH  20  21
ENDBRANCH  19  20
ENDBRANCH  18  19
ENDBRANCH   1  18
TORSDOF 10
ENDMDL
