MODEL 1
REMARK VINA RESULT:      -7.2      0.000      0.000
REMARK  10 active torsions:
REMARK  status: ('A' for Active; 'I' for Inactive)
REMARK    1  A    between atoms: C_1  and  C_10 
REMARK    2  A    between atoms: C_1  and  O_18 
REMARK       I    between atoms: C_2  and  N_9 
REMARK    3  A    between atoms: C_2  and  C_20 
REMARK    4  A    between atoms: C_3  and  C_20 
REMARK    5  A    between atoms: C_3  and  C_4 
REMARK    6  A    between atoms: N_9  and  C_10 
REMARK    7  A    between atoms: C_10  and  C_15 
REMARK    8  A    between atoms: O_12  and  P_19 
REMARK    9  A    between atoms: N_13  and  C_20 
REMARK   10  A    between atoms: O_18  and  P_19 
ROOT
HETATM    1  C           1     -34.168  -2.541 -12.146  0.00  0.00     0.249 C 
HETATM    2  H           1     -35.424  -2.033 -13.711  0.00  0.00     0.163 HD
HETATM    3  N           1     -34.918  -1.684 -12.907  0.00  0.00    -0.343 N 
HETATM    4  O           1     -33.564  -2.126 -11.186  0.00  0.00    -0.271 OA
ENDROOT
BRANCH   3   5
HETATM    5  C           1     -34.988  -0.279 -12.559  0.00  0.00     0.210 C 
BRANCH   5   6
HETATM    6  C           1     -35.065   0.555 -13.832  0.00  0.00     0.217 C 
BRANCH   6   7
HETATM    7  O           1     -35.103  -0.294 -14.946  0.00  0.00    -0.287 OA
BRANCH   7   8
HETATM    8  P           1     -36.403  -0.162 -15.894  0.00  0.00     0.406 P 
HETATM    9  O           1     -37.554  -0.832 -15.248  0.00  0.00    -0.624 OA
HETATM   10  O           1     -36.720   1.269 -16.101  0.00  0.00    -0.624 OA
BRANCH   8  11
HETATM   11  O           1     -36.104  -0.858 -17.320  0.00  0.00    -0.300 OA
HETATM   12  H           1     -35.426  -1.488 -17.146  0.00  0.00     0.223 HD
ENDBRANCH   8  11
ENDBRANCH   7   8
ENDBRANCH   6   7
ENDBRANCH   5   6
BRANCH   5  13
HETATM   13  C           1     -36.216  -0.030 -11.719  0.00  0.00     0.198 C 
HETATM   14  O           1     -37.324  -0.481 -12.082  0.00  0.00    -0.646 OA
HETATM   15  O           1     -36.126   0.628 -10.659  0.00  0.00    -0.646 OA
ENDBRANCH   5  13
ENDBRANCH   3   5
BRANCH   1  16
HETATM   16  C           1     -34.095  -4.004 -12.507  0.00  0.00     0.275 C 
BRANCH  16  17
HETATM   17  C           1     -33.243  -4.740 -11.482  0.00  0.00     0.046 C 
BRANCH  17  18
HETATM   18  C           1     -34.148  -5.393 -10.445  0.00  0.00    -0.020 C 
HETATM   19  C           1     -35.581  -4.921 -10.651  0.00  0.00     0.009 C 
HETATM   20  C           1     -34.086  -6.907 -10.601  0.00  0.00     0.009 C 
ENDBRANCH  17  18
ENDBRANCH  16  17
BRANCH  16  21
HETATM   21  N           1     -33.480  -4.153 -13.868  0.00  0.00    -0.066 N 
HETATM   22  H           1     -33.461  -5.163 -14.133  0.00  0.00     0.275 HD
HETATM   23  H           1     -34.047  -3.620 -14.565  0.00  0.00     0.275 HD
HETATM   24  H           1     -32.504  -3.779 -13.851  0.00  0.00     0.275 HD
ENDBRANCH  16  21
ENDBRANCH   1  16
TORSDOF 10
ENDMDL
MODEL 2
REMARK VINA RESULT:      -7.0     12.052     13.663
REMARK  10 active torsions:
REMARK  status: ('A' for Active; 'I' for Inactive)
REMARK    1  A    between atoms: C_1  and  C_10 
REMARK    2  A    between atoms: C_1  and  O_18 
REMARK       I    between atoms: C_2  and  N_9 
REMARK    3  A    between atoms: C_2  and  C_20 
REMARK    4  A    between atoms: C_3  and  C_20 
REMARK    5  A    between atoms: C_3  and  C_4 
REMARK    6  A    between atoms: N_9  and  C_10 
REMARK    7  A    between atoms: C_10  and  C_15 
REMARK    8  A    between atoms: O_12  and  P_19 
REMARK    9  A    between atoms: N_13  and  C_20 
REMARK   10  A    between atoms: O_18  and  P_19 
ROOT
HETATM    1  C           1     -21.554  -4.386  -8.168  0.00  0.00     0.249 C 
HETATM    2  H           1     -21.653  -5.428  -9.953  0.00  0.00     0.163 HD
HETATM    3  N           1     -21.907  -4.572  -9.478  0.00  0.00    -0.343 N 
HETATM    4  O           1     -21.858  -3.363  -7.600  0.00  0.00    -0.271 OA
ENDROOT
BRANCH   3   5
HETATM    5  C           1     -22.644  -3.543 -10.183  0.00  0.00     0.210 C 
BRANCH   5   6
HETATM    6  C           1     -22.264  -3.567 -11.658  0.00  0.00     0.217 C 
BRANCH   6   7
HETATM    7  O           1     -22.859  -2.479 -12.313  0.00  0.00    -0.287 OA
BRANCH   7   8
HETATM    8  P           1     -23.525  -2.794 -13.748  0.00  0.00     0.406 P 
HETATM    9  O           1     -24.401  -3.983 -13.635  0.00  0.00    -0.624 OA
HETATM   10  O           1     -24.329  -1.631 -14.187  0.00  0.00    -0.624 OA
BRANCH   8  11
HETATM   11  O           1     -22.363  -3.083 -14.831  0.00  0.00    -0.300 OA
HETATM   12  H           1     -21.560  -3.065 -14.338  0.00  0.00     0.223 HD
ENDBRANCH   8  11
ENDBRANCH   7   8
ENDBRANCH   6   7
ENDBRANCH   5   6
BRANCH   5  13
HETATM   13  C           1     -24.125  -3.799 -10.041  0.00  0.00     0.198 C 
HETATM   14  O           1     -24.898  -2.858  -9.759  0.00  0.00    -0.646 OA
HETATM   15  O           1     -24.578  -4.953 -10.205  0.00  0.00    -0.646 OA
ENDBRANCH   5  13
ENDBRANCH   3   5
BRANCH   1  16
HETATM   16  C           1     -20.787  -5.456  -7.433  0.00  0.00     0.275 C 
BRANCH  16  17
HETATM   17  C           1     -21.614  -5.961  -6.259  0.00  0.00     0.046 C 
BRANCH  17  18
HETATM   18  C           1     -20.684  -6.464  -5.162  0.00  0.00    -0.020 C 
HETATM   19  C           1     -21.260  -6.100  -3.800  0.00  0.00     0.009 C 
HETATM   20  C           1     -20.549  -7.978  -5.266  0.00  0.00     0.009 C 
ENDBRANCH  17  18
ENDBRANCH  16  17
BRANCH  16  21
HETATM   21  N           1     -19.495  -4.885  -6.926  0.00  0.00    -0.066 N 
HETATM   22  H           1     -19.024  -4.353  -7.692  0.00  0.00     0.275 HD
HETATM   23  H           1     -19.690  -4.243  -6.125  0.00  0.00     0.275 HD
HETATM   24  H           1     -18.873  -5.662  -6.608  0.00  0.00     0.275 HD
ENDBRANCH  16  21
ENDBRANCH   1  16
TORSDOF 10
ENDMDL
MODEL 3
REMARK VINA RESULT:      -6.6      2.650      4.136
REMARK  10 active torsions:
REMARK  status: ('A' for Active; 'I' for Inactive)
REMARK    1  A    between atoms: C_1  and  C_10 
REMARK    2  A    between atoms: C_1  and  O_18 
REMARK       I    between atoms: C_2  and  N_9 
REMARK    3  A    between atoms: C_2  and  C_20 
REMARK    4  A    between atoms: C_3  and  C_20 
REMARK    5  A    between atoms: C_3  and  C_4 
REMARK    6  A    between atoms: N_9  and  C_10 
REMARK    7  A    between atoms: C_10  and  C_15 
REMARK    8  A    between atoms: O_12  and  P_19 
REMARK    9  A    between atoms: N_13  and  C_20 
REMARK   10  A    between atoms: O_18  and  P_19 
ROOT
HETATM    1  C           1     -35.044  -0.198 -13.363  0.00  0.00     0.249 C 
HETATM    2  H           1     -35.679  -2.015 -14.125  0.00  0.00     0.163 HD
HETATM    3  N           1     -35.428  -1.062 -14.354  0.00  0.00    -0.343 N 
HETATM    4  O           1     -34.745   0.940 -13.636  0.00  0.00    -0.271 OA
ENDROOT
BRANCH   3   5
HETATM    5  C           1     -35.476  -0.610 -15.731  0.00  0.00     0.210 C 
BRANCH   5   6
HETATM    6  C           1     -34.938  -1.705 -16.642  0.00  0.00     0.217 C 
BRANCH   6   7
HETATM    7  O           1     -35.415  -2.951 -16.211  0.00  0.00    -0.287 OA
BRANCH   7   8
HETATM    8  P           1     -34.297  -4.007 -15.722  0.00  0.00     0.406 P 
HETATM    9  O           1     -33.083  -3.862 -16.556  0.00  0.00    -0.624 OA
HETATM   10  O           1     -33.956  -3.747 -14.306  0.00  0.00    -0.624 OA
BRANCH   8  11
HETATM   11  O           1     -34.875  -5.508 -15.867  0.00  0.00    -0.300 OA
HETATM   12  H           1     -34.402  -5.882 -16.591  0.00  0.00     0.223 HD
ENDBRANCH   8  11
ENDBRANCH   7   8
ENDBRANCH   6   7
ENDBRANCH   5   6
BRANCH   5  13
HETATM   13  C           1     -36.903  -0.297 -16.107  0.00  0.00     0.198 C 
HETATM   14  O           1     -37.698  -1.226 -16.373  0.00  0.00    -0.646 OA
HETATM   15  O           1     -37.292   0.890 -16.154  0.00  0.00    -0.646 OA
ENDBRANCH   5  13
ENDBRANCH   3   5
BRANCH   1  16
HETATM   16  C           1     -34.995  -0.668 -11.931  0.00  0.00     0.275 C 
BRANCH  16  17
HETATM   17  C           1     -35.489  -2.106 -11.848  0.00  0.00     0.046 C 
BRANCH  17  18
HETATM   18  C           1     -34.684  -2.859 -10.796  0.00  0.00    -0.020 C 
HETATM   19  C           1     -34.998  -4.346 -10.885  0.00  0.00     0.009 C 
HETATM   20  C           1     -33.197  -2.641 -11.044  0.00  0.00     0.009 C 
ENDBRANCH  17  18
ENDBRANCH  16  17
BRANCH  16  21
HETATM   21  N           1     -35.870   0.211 -11.087  0.00  0.00    -0.066 N 
HETATM   22  H           1     -36.245  -0.341 -10.282  0.00  0.00     0.275 HD
HETATM   23  H           1     -35.311   1.016 -10.726  0.00  0.00     0.275 HD
HETATM   24  H           1     -36.665   0.568 -11.664  0.00  0.00     0.275 HD
ENDBRANCH  16  21
ENDBRANCH   1  16
TORSDOF 10
ENDMDL
MODEL 4
REMARK VINA RESULT:      -6.3     12.776     15.438
REMARK  10 active torsions:
REMARK  status: ('A' for Active; 'I' for Inactive)
REMARK    1  A    between atoms: C_1  and  C_10 
REMARK    2  A    between atoms: C_1  and  O_18 
REMARK       I    between atoms: C_2  and  N_9 
REMARK    3  A    between atoms: C_2  and  C_20 
REMARK    4  A    between atoms: C_3  and  C_20 
REMARK    5  A    between atoms: C_3  and  C_4 
REMARK    6  A    between atoms: N_9  and  C_10 
REMARK    7  A    between atoms: C_10  and  C_15 
REMARK    8  A    between atoms: O_12  and  P_19 
REMARK    9  A    between atoms: N_13  and  C_20 
REMARK   10  A    between atoms: O_18  and  P_19 
ROOT
HETATM    1  C           1     -23.314  -4.536  -8.624  0.00  0.00     0.249 C 
HETATM    2  H           1     -21.697  -5.285  -9.677  0.00  0.00     0.163 HD
HETATM    3  N           1     -22.007  -4.910  -8.789  0.00  0.00    -0.343 N 
HETATM    4  O           1     -23.685  -4.088  -7.565  0.00  0.00    -0.271 OA
ENDROOT
BRANCH   3   5
HETATM    5  C           1     -21.069  -4.768  -7.694  0.00  0.00     0.210 C 
BRANCH   5   6
HETATM    6  C           1     -20.884  -6.115  -7.007  0.00  0.00     0.217 C 
BRANCH   6   7
HETATM    7  O           1     -20.769  -5.923  -5.623  0.00  0.00    -0.287 OA
BRANCH   7   8
HETATM    8  P           1     -21.967  -6.522  -4.723  0.00  0.00     0.406 P 
HETATM    9  O           1     -21.900  -8.001  -4.734  0.00  0.00    -0.624 OA
HETATM   10  O           1     -21.832  -6.033  -3.333  0.00  0.00    -0.624 OA
BRANCH   8  11
HETATM   11  O           1     -23.386  -6.042  -5.326  0.00  0.00    -0.300 OA
HETATM   12  H           1     -23.784  -5.535  -4.639  0.00  0.00     0.223 HD
ENDBRANCH   8  11
ENDBRANCH   7   8
ENDBRANCH   6   7
ENDBRANCH   5   6
BRANCH   5  13
HETATM   13  C           1     -19.742  -4.289  -8.229  0.00  0.00     0.198 C 
HETATM   14  O           1     -19.667  -3.818  -9.385  0.00  0.00    -0.646 OA
HETATM   15  O           1     -18.717  -4.363  -7.517  0.00  0.00    -0.646 OA
ENDBRANCH   5  13
ENDBRANCH   3   5
BRANCH   1  16
HETATM   16  C           1     -24.291  -4.684  -9.763  0.00  0.00     0.275 C 
BRANCH  16  17
HETATM   17  C           1     -23.544  -4.611 -11.088  0.00  0.00     0.046 C 
BRANCH  17  18
HETATM   18  C           1     -23.488  -3.164 -11.561  0.00  0.00    -0.020 C 
HETATM   19  C           1     -22.035  -2.728 -11.692  0.00  0.00     0.009 C 
HETATM   20  C           1     -24.176  -3.046 -12.915  0.00  0.00     0.009 C 
ENDBRANCH  17  18
ENDBRANCH  16  17
BRANCH  16  21
HETATM   21  N           1     -25.304  -3.578  -9.700  0.00  0.00    -0.066 N 
HETATM   22  H           1     -25.279  -3.138  -8.752  0.00  0.00     0.275 HD
HETATM   23  H           1     -25.079  -2.859 -10.424  0.00  0.00     0.275 HD
HETATM   24  H           1     -26.256  -3.968  -9.878  0.00  0.00     0.275 HD
ENDBRANCH  16  21
ENDBRANCH   1  16
TORSDOF 10
ENDMDL
MODEL 5
REMARK VINA RESULT:      -6.1     13.106     14.993
REMARK  10 active torsions:
REMARK  status: ('A' for Active; 'I' for Inactive)
REMARK    1  A    between atoms: C_1  and  C_10 
REMARK    2  A    between atoms: C_1  and  O_18 
REMARK       I    between atoms: C_2  and  N_9 
REMARK    3  A    between atoms: C_2  and  C_20 
REMARK    4  A    between atoms: C_3  and  C_20 
REMARK    5  A    between atoms: C_3  and  C_4 
REMARK    6  A    between atoms: N_9  and  C_10 
REMARK    7  A    between atoms: C_10  and  C_15 
REMARK    8  A    between atoms: O_12  and  P_19 
REMARK    9  A    between atoms: N_13  and  C_20 
REMARK   10  A    between atoms: O_18  and  P_19 
ROOT
HETATM    1  C           1     -21.350  -5.934  -6.461  0.00  0.00     0.249 C 
HETATM    2  H           1     -22.235  -4.066  -6.571  0.00  0.00     0.163 HD
HETATM    3  N           1     -21.844  -4.831  -7.106  0.00  0.00    -0.343 N 
HETATM    4  O           1     -20.883  -6.848  -7.098  0.00  0.00    -0.271 OA
ENDROOT
BRANCH   3   5
HETATM    5  C           1     -21.806  -4.760  -8.553  0.00  0.00     0.210 C 
BRANCH   5   6
HETATM    6  C           1     -22.815  -3.728  -9.037  0.00  0.00     0.217 C 
BRANCH   6   7
HETATM    7  O           1     -22.462  -3.294 -10.322  0.00  0.00    -0.287 OA
BRANCH   7   8
HETATM    8  P           1     -23.594  -3.454 -11.461  0.00  0.00     0.406 P 
HETATM    9  O           1     -24.931  -3.246 -10.859  0.00  0.00    -0.624 OA
HETATM   10  O           1     -23.371  -2.450 -12.525  0.00  0.00    -0.624 OA
BRANCH   8  11
HETATM   11  O           1     -23.513  -4.936 -12.096  0.00  0.00    -0.300 OA
HETATM   12  H           1     -23.484  -4.801 -13.028  0.00  0.00     0.223 HD
ENDBRANCH   8  11
ENDBRANCH   7   8
ENDBRANCH   6   7
ENDBRANCH   5   6
BRANCH   5  13
HETATM   13  C           1     -20.421  -4.359  -8.999  0.00  0.00     0.198 C 
HETATM   14  O           1     -19.927  -4.861 -10.032  0.00  0.00    -0.646 OA
HETATM   15  O           1     -19.768  -3.524  -8.337  0.00  0.00    -0.646 OA
ENDBRANCH   5  13
ENDBRANCH   3   5
BRANCH   1  16
HETATM   16  C           1     -21.389  -6.009  -4.955  0.00  0.00     0.275 C 
BRANCH  16  17
HETATM   17  C           1     -20.574  -7.205  -4.483  0.00  0.00     0.046 C 
BRANCH  17  18
HETATM   18  C           1     -21.369  -7.981  -3.440  0.00  0.00    -0.020 C 
HETATM   19  C           1     -21.590  -9.407  -3.926  0.00  0.00     0.009 C 
HETATM   20  C           1     -20.595  -8.007  -2.128  0.00  0.00     0.009 C 
ENDBRANCH  17  18
ENDBRANCH  16  17
BRANCH  16  21
HETATM   21  N           1     -22.811  -6.161  -4.500  0.00  0.00    -0.066 N 
HETATM   22  H           1     -23.116  -5.288  -4.012  0.00  0.00     0.275 HD
HETATM   23  H           1     -23.425  -6.330  -5.328  0.00  0.00     0.275 HD
HETATM   24  H           1     -22.880  -6.970  -3.842  0.00  0.00     0.275 HD
ENDBRANCH  16  21
ENDBRANCH   1  16
TORSDOF 10
ENDMDL
MODEL 6
REMARK VINA RESULT:      -6.1     12.279     14.075
REMARK  10 active torsions:
REMARK  status: ('A' for Active; 'I' for Inactive)
REMARK    1  A    between atoms: C_1  and  C_10 
REMARK    2  A    between atoms: C_1  and  O_18 
REMARK       I    between atoms: C_2  and  N_9 
REMARK    3  A    between atoms: C_2  and  C_20 
REMARK    4  A    between atoms: C_3  and  C_20 
REMARK    5  A    between atoms: C_3  and  C_4 
REMARK    6  A    between atoms: N_9  and  C_10 
REMARK    7  A    between atoms: C_10  and  C_15 
REMARK    8  A    between atoms: O_12  and  P_19 
REMARK    9  A    between atoms: N_13  and  C_20 
REMARK   10  A    between atoms: O_18  and  P_19 
ROOT
HETATM    1  C           1     -21.612  -5.039  -7.977  0.00  0.00     0.249 C 
HETATM    2  H           1     -22.985  -3.636  -8.635  0.00  0.00     0.163 HD
HETATM    3  N           1     -22.337  -4.359  -8.920  0.00  0.00    -0.343 N 
HETATM    4  O           1     -20.838  -5.902  -8.316  0.00  0.00    -0.271 OA
ENDROOT
BRANCH   3   5
HETATM    5  C           1     -22.174  -4.675 -10.325  0.00  0.00     0.210 C 
BRANCH   5   6
HETATM    6  C           1     -23.460  -4.344 -11.071  0.00  0.00     0.217 C 
BRANCH   6   7
HETATM    7  O           1     -23.203  -4.297 -12.448  0.00  0.00    -0.287 OA
BRANCH   7   8
HETATM    8  P           1     -23.924  -3.105 -13.264  0.00  0.00     0.406 P 
HETATM    9  O           1     -23.747  -3.326 -14.717  0.00  0.00    -0.624 OA
HETATM   10  O           1     -25.368  -3.088 -12.940  0.00  0.00    -0.624 OA
BRANCH   8  11
HETATM   11  O           1     -23.263  -1.692 -12.848  0.00  0.00    -0.300 OA
HETATM   12  H           1     -22.978  -1.808 -11.958  0.00  0.00     0.223 HD
ENDBRANCH   8  11
ENDBRANCH   7   8
ENDBRANCH   6   7
ENDBRANCH   5   6
BRANCH   5  13
HETATM   13  C           1     -21.037  -3.861 -10.894  0.00  0.00     0.198 C 
HETATM   14  O           1     -19.983  -4.428 -11.256  0.00  0.00    -0.646 OA
HETATM   15  O           1     -21.150  -2.621 -11.003  0.00  0.00    -0.646 OA
ENDBRANCH   5  13
ENDBRANCH   3   5
BRANCH   1  16
HETATM   16  C           1     -21.781  -4.711  -6.514  0.00  0.00     0.275 C 
BRANCH  16  17
HETATM   17  C           1     -20.847  -5.583  -5.686  0.00  0.00     0.046 C 
BRANCH  17  18
HETATM   18  C           1     -21.670  -6.525  -4.816  0.00  0.00    -0.020 C 
HETATM   19  C           1     -21.342  -7.967  -5.178  0.00  0.00     0.009 C 
HETATM   20  C           1     -21.337  -6.282  -3.350  0.00  0.00     0.009 C 
ENDBRANCH  17  18
ENDBRANCH  16  17
BRANCH  16  21
HETATM   21  N           1     -23.201  -4.970  -6.105  0.00  0.00    -0.066 N 
HETATM   22  H           1     -23.537  -5.852  -6.554  0.00  0.00     0.275 HD
HETATM   23  H           1     -23.250  -5.068  -5.066  0.00  0.00     0.275 HD
HETATM   24  H           1     -23.802  -4.172  -6.410  0.00  0.00     0.275 HD
ENDBRANCH  16  21
ENDBRANCH   1  16
TORSDOF 10
ENDMDL
MODEL 7
REMARK VINA RESULT:      -6.0     15.727     17.784
REMARK  10 active torsions:
REMARK  status: ('A' for Active; 'I' for Inactive)
REMARK    1  A    between atoms: C_1  and  C_10 
REMARK    2  A    between atoms: C_1  and  O_18 
REMARK       I    between atoms: C_2  and  N_9 
REMARK    3  A    between atoms: C_2  and  C_20 
REMARK    4  A    between atoms: C_3  and  C_20 
REMARK    5  A    between atoms: C_3  and  C_4 
REMARK    6  A    between atoms: N_9  and  C_10 
REMARK    7  A    between atoms: C_10  and  C_15 
REMARK    8  A    between atoms: O_12  and  P_19 
REMARK    9  A    between atoms: N_13  and  C_20 
REMARK   10  A    between atoms: O_18  and  P_19 
ROOT
HETATM    1  C           1     -21.461  -5.473  -5.910  0.00  0.00     0.249 C 
HETATM    2  H           1     -23.075  -6.207  -4.841  0.00  0.00     0.163 HD
HETATM    3  N           1     -22.068  -6.100  -4.854  0.00  0.00    -0.343 N 
HETATM    4  O           1     -20.260  -5.346  -5.927  0.00  0.00    -0.271 OA
ENDROOT
BRANCH   3   5
HETATM    5  C           1     -21.270  -6.611  -3.758  0.00  0.00     0.210 C 
BRANCH   5   6
HETATM    6  C           1     -22.069  -6.522  -2.465  0.00  0.00     0.217 C 
BRANCH   6   7
HETATM    7  O           1     -21.315  -7.058  -1.411  0.00  0.00    -0.287 OA
BRANCH   7   8
HETATM    8  P           1     -22.106  -8.034  -0.398  0.00  0.00     0.406 P 
HETATM    9  O           1     -21.259  -8.310   0.784  0.00  0.00    -0.624 OA
HETATM   10  O           1     -23.362  -7.383   0.037  0.00  0.00    -0.624 OA
BRANCH   8  11
HETATM   11  O           1     -22.453  -9.421  -1.149  0.00  0.00    -0.300 OA
HETATM   12  H           1     -22.514 -10.062  -0.461  0.00  0.00     0.223 HD
ENDBRANCH   8  11
ENDBRANCH   7   8
ENDBRANCH   6   7
ENDBRANCH   5   6
BRANCH   5  13
HETATM   13  C           1     -20.909  -8.051  -4.029  0.00  0.00     0.198 C 
HETATM   14  O           1     -21.805  -8.922  -4.079  0.00  0.00    -0.646 OA
HETATM   15  O           1     -19.714  -8.374  -4.203  0.00  0.00    -0.646 OA
ENDBRANCH   5  13
ENDBRANCH   3   5
BRANCH   1  16
HETATM   16  C           1     -22.291  -4.941  -7.051  0.00  0.00     0.275 C 
BRANCH  16  17
HETATM   17  C           1     -21.638  -3.686  -7.614  0.00  0.00     0.046 C 
BRANCH  17  18
HETATM   18  C           1     -21.396  -3.866  -9.108  0.00  0.00    -0.020 C 
HETATM   19  C           1     -20.124  -4.676  -9.322  0.00  0.00     0.009 C 
HETATM   20  C           1     -22.576  -4.604  -9.727  0.00  0.00     0.009 C 
ENDBRANCH  17  18
ENDBRANCH  16  17
BRANCH  16  21
HETATM   21  N           1     -23.668  -4.609  -6.555  0.00  0.00    -0.066 N 
HETATM   22  H           1     -24.322  -5.388  -6.794  0.00  0.00     0.275 HD
HETATM   23  H           1     -23.642  -4.481  -5.518  0.00  0.00     0.275 HD
HETATM   24  H           1     -23.997  -3.726  -7.008  0.00  0.00     0.275 HD
ENDBRANCH  16  21
ENDBRANCH   1  16
TORSDOF 10
ENDMDL
MODEL 8
REMARK VINA RESULT:      -5.9     17.126     18.857
REMARK  10 active torsions:
REMARK  status: ('A' for Active; 'I' for Inactive)
REMARK    1  A    between atoms: C_1  and  C_10 
REMARK    2  A    between atoms: C_1  and  O_18 
REMARK       I    between atoms: C_2  and  N_9 
REMARK    3  A    between atoms: C_2  and  C_20 
REMARK    4  A    between atoms: C_3  and  C_20 
REMARK    5  A    between atoms: C_3  and  C_4 
REMARK    6  A    between atoms: N_9  and  C_10 
REMARK    7  A    between atoms: C_10  and  C_15 
REMARK    8  A    between atoms: O_12  and  P_19 
REMARK    9  A    between atoms: N_13  and  C_20 
REMARK   10  A    between atoms: O_18  and  P_19 
ROOT
HETATM    1  C           1     -20.364  -9.990  -1.404  0.00  0.00     0.249 C 
HETATM    2  H           1     -22.262  -9.271  -0.999  0.00  0.00     0.163 HD
HETATM    3  N           1     -21.383  -9.077  -1.460  0.00  0.00    -0.343 N 
HETATM    4  O           1     -19.314  -9.758  -1.955  0.00  0.00    -0.271 OA
ENDROOT
BRANCH   3   5
HETATM    5  C           1     -21.201  -7.832  -2.180  0.00  0.00     0.210 C 
BRANCH   5   6
HETATM    6  C           1     -21.524  -8.046  -3.652  0.00  0.00     0.217 C 
BRANCH   6   7
HETATM    7  O           1     -20.562  -7.400  -4.441  0.00  0.00    -0.287 OA
BRANCH   7   8
HETATM    8  P           1     -21.119  -6.287  -5.469  0.00  0.00     0.406 P 
HETATM    9  O           1     -20.370  -5.024  -5.282  0.00  0.00    -0.624 OA
HETATM   10  O           1     -20.941  -6.764  -6.859  0.00  0.00    -0.624 OA
BRANCH   8  11
HETATM   11  O           1     -22.688  -6.030  -5.187  0.00  0.00    -0.300 OA
HETATM   12  H           1     -23.122  -6.807  -5.498  0.00  0.00     0.223 HD
ENDBRANCH   8  11
ENDBRANCH   7   8
ENDBRANCH   6   7
ENDBRANCH   5   6
BRANCH   5  13
HETATM   13  C           1     -22.125  -6.783  -1.609  0.00  0.00     0.198 C 
HETATM   14  O           1     -22.767  -7.019  -0.562  0.00  0.00    -0.646 OA
HETATM   15  O           1     -22.247  -5.679  -2.182  0.00  0.00    -0.646 OA
ENDBRANCH   5  13
ENDBRANCH   3   5
BRANCH   1  16
HETATM   16  C           1     -20.552 -11.286  -0.656  0.00  0.00     0.275 C 
BRANCH  16  17
HETATM   17  C           1     -21.652 -11.119   0.384  0.00  0.00     0.046 C 
BRANCH  17  18
HETATM   18  C           1     -22.853 -11.972  -0.005  0.00  0.00    -0.020 C 
HETATM   19  C           1     -23.131 -12.989   1.093  0.00  0.00     0.009 C 
HETATM   20  C           1     -24.072 -11.077  -0.187  0.00  0.00     0.009 C 
ENDBRANCH  17  18
ENDBRANCH  16  17
BRANCH  16  21
HETATM   21  N           1     -19.270 -11.659   0.028  0.00  0.00    -0.066 N 
HETATM   22  H           1     -18.615 -10.844   0.008  0.00  0.00     0.275 HD
HETATM   23  H           1     -19.468 -11.921   1.020  0.00  0.00     0.275 HD
HETATM   24  H           1     -18.834 -12.468  -0.468  0.00  0.00     0.275 HD
ENDBRANCH  16  21
ENDBRANCH   1  16
TORSDOF 10
ENDMDL
MODEL 9
REMARK VINA RESULT:      -5.7     14.624     16.909
REMARK  10 active torsions:
REMARK  status: ('A' for Active; 'I' for Inactive)
REMARK    1  A    between atoms: C_1  and  C_10 
REMARK    2  A    between atoms: C_1  and  O_18 
REMARK       I    between atoms: C_2  and  N_9 
REMARK    3  A    between atoms: C_2  and  C_20 
REMARK    4  A    between atoms: C_3  and  C_20 
REMARK    5  A    between atoms: C_3  and  C_4 
REMARK    6  A    between atoms: N_9  and  C_10 
REMARK    7  A    between atoms: C_10  and  C_15 
REMARK    8  A    between atoms: O_12  and  P_19 
REMARK    9  A    between atoms: N_13  and  C_20 
REMARK   10  A    between atoms: O_18  and  P_19 
ROOT
HETATM    1  C           1     -22.045  -4.587  -7.632  0.00  0.00     0.249 C 
HETATM    2  H           1     -22.764  -6.467  -7.148  0.00  0.00     0.163 HD
HETATM    3  N           1     -22.106  -5.740  -6.896  0.00  0.00    -0.343 N 
HETATM    4  O           1     -21.260  -3.719  -7.331  0.00  0.00    -0.271 OA
ENDROOT
BRANCH   3   5
HETATM    5  C           1     -21.229  -5.919  -5.756  0.00  0.00     0.210 C 
BRANCH   5   6
HETATM    6  C           1     -22.026  -6.482  -4.586  0.00  0.00     0.217 C 
BRANCH   6   7
HETATM    7  O           1     -21.371  -6.179  -3.384  0.00  0.00    -0.287 OA
BRANCH   7   8
HETATM    8  P           1     -21.581  -7.231  -2.178  0.00  0.00     0.406 P 
HETATM    9  O           1     -22.555  -6.681  -1.208  0.00  0.00    -0.624 OA
HETATM   10  O           1     -22.096  -8.509  -2.720  0.00  0.00    -0.624 OA
BRANCH   8  11
HETATM   11  O           1     -20.170  -7.491  -1.438  0.00  0.00    -0.300 OA
HETATM   12  H           1     -20.356  -8.139  -0.780  0.00  0.00     0.223 HD
ENDBRANCH   8  11
ENDBRANCH   7   8
ENDBRANCH   6   7
ENDBRANCH   5   6
BRANCH   5  13
HETATM   13  C           1     -20.123  -6.880  -6.120  0.00  0.00     0.198 C 
HETATM   14  O           1     -20.022  -7.973  -5.520  0.00  0.00    -0.646 OA
HETATM   15  O           1     -19.309  -6.584  -7.020  0.00  0.00    -0.646 OA
ENDBRANCH   5  13
ENDBRANCH   3   5
BRANCH   1  16
HETATM   16  C           1     -22.957  -4.399  -8.818  0.00  0.00     0.275 C 
BRANCH  16  17
HETATM   17  C           1     -22.327  -3.416  -9.796  0.00  0.00     0.046 C 
BRANCH  17  18
HETATM   18  C           1     -21.840  -4.168 -11.028  0.00  0.00    -0.020 C 
HETATM   19  C           1     -22.253  -3.410 -12.282  0.00  0.00     0.009 C 
HETATM   20  C           1     -20.322  -4.285 -10.984  0.00  0.00     0.009 C 
ENDBRANCH  17  18
ENDBRANCH  16  17
BRANCH  16  21
HETATM   21  N           1     -24.278  -3.862  -8.352  0.00  0.00    -0.066 N 
HETATM   22  H           1     -25.049  -4.314  -8.895  0.00  0.00     0.275 HD
HETATM   23  H           1     -24.400  -4.071  -7.336  0.00  0.00     0.275 HD
HETATM   24  H           1     -24.306  -2.828  -8.502  0.00  0.00     0.275 HD
ENDBRANCH  16  21
ENDBRANCH   1  16
TORSDOF 10
ENDMDL
