MODEL 1
REMARK VINA RESULT:      -5.5      0.000      0.000
REMARK  4 active torsions:
REMARK  status: ('A' for Active; 'I' for Inactive)
REMARK       I    between atoms: C_2  and  N_14 
REMARK    1  A    between atoms: C_2  and  C_3 
REMARK    2  A    between atoms: C_3  and  N_5 
REMARK    3  A    between atoms: C_11  and  C_13 
REMARK    4  A    between atoms: C_13  and  N_14 
ROOT
HETATM    1  C           1     -24.101  -3.300 -10.407  0.00  0.00     0.248 C 
HETATM    2  O           1     -25.297  -3.281 -10.242  0.00  0.00    -0.271 OA
HETATM    3  H           1     -22.577  -3.136 -11.799  0.00  0.00     0.163 HD
HETATM    4  N           1     -23.580  -3.120 -11.660  0.00  0.00    -0.349 N 
ENDROOT
BRANCH   1   5
HETATM    5  C           1     -23.180  -3.524  -9.232  0.00  0.00     0.270 C 
HETATM    6  C           1     -22.086  -4.509  -9.623  0.00  0.00     0.050 C 
BRANCH   5   7
HETATM    7  N           1     -23.965  -4.081  -8.082  0.00  0.00    -0.067 N 
HETATM    8  H           1     -24.824  -3.505  -7.934  0.00  0.00     0.275 HD
HETATM    9  H           1     -24.240  -5.067  -8.292  0.00  0.00     0.275 HD
HETATM   10  H           1     -23.378  -4.060  -7.218  0.00  0.00     0.275 HD
ENDBRANCH   5   7
ENDBRANCH   1   5
BRANCH   4  11
HETATM   11  C           1     -24.465  -2.905 -12.789  0.00  0.00     0.235 C 
BRANCH  11  12
HETATM   12  C           1     -23.669  -2.384 -13.961  0.00  0.00     0.191 C 
HETATM   13  O           1     -24.102  -1.422 -14.631  0.00  0.00    -0.647 OA
HETATM   14  O           1     -22.579  -2.915 -14.261  0.00  0.00    -0.647 OA
ENDBRANCH  11  12
ENDBRANCH   4  11
TORSDOF 4
ENDMDL
MODEL 2
REMARK VINA RESULT:      -5.4      7.328      8.707
REMARK  4 active torsions:
REMARK  status: ('A' for Active; 'I' for Inactive)
REMARK       I    between atoms: C_2  and  N_14 
REMARK    1  A    between atoms: C_2  and  C_3 
REMARK    2  A    between atoms: C_3  and  N_5 
REMARK    3  A    between atoms: C_11  and  C_13 
REMARK    4  A    between atoms: C_13  and  N_14 
ROOT
HETATM    1  C           1     -29.035  -6.699 -16.782  0.00  0.00     0.248 C 
HETATM    2  O           1     -29.473  -5.988 -15.909  0.00  0.00    -0.271 OA
HETATM    3  H           1     -27.427  -7.858 -17.379  0.00  0.00     0.163 HD
HETATM    4  N           1     -27.795  -7.262 -16.648  0.00  0.00    -0.349 N 
ENDROOT
BRANCH   1   5
HETATM    5  C           1     -29.856  -6.967 -18.020  0.00  0.00     0.270 C 
HETATM    6  C           1     -31.338  -6.876 -17.677  0.00  0.00     0.050 C 
BRANCH   5   7
HETATM    7  N           1     -29.546  -8.340 -18.536  0.00  0.00    -0.067 N 
HETATM    8  H           1     -30.220  -8.587 -19.296  0.00  0.00     0.275 HD
HETATM    9  H           1     -28.573  -8.358 -18.915  0.00  0.00     0.275 HD
HETATM   10  H           1     -29.630  -9.032 -17.758  0.00  0.00     0.275 HD
ENDBRANCH   5   7
ENDBRANCH   1   5
BRANCH   4  11
HETATM   11  C           1     -27.006  -7.004 -15.458  0.00  0.00     0.235 C 
BRANCH  11  12
HETATM   12  C           1     -25.563  -6.796 -15.845  0.00  0.00     0.191 C 
HETATM   13  O           1     -24.823  -7.782 -16.054  0.00  0.00    -0.647 OA
HETATM   14  O           1     -25.107  -5.638 -15.957  0.00  0.00    -0.647 OA
ENDBRANCH  11  12
ENDBRANCH   4  11
TORSDOF 4
ENDMDL
MODEL 3
REMARK VINA RESULT:      -5.3      2.104      2.261
REMARK  4 active torsions:
REMARK  status: ('A' for Active; 'I' for Inactive)
REMARK       I    between atoms: C_2  and  N_14 
REMARK    1  A    between atoms: C_2  and  C_3 
REMARK    2  A    between atoms: C_3  and  N_5 
REMARK    3  A    between atoms: C_11  and  C_13 
REMARK    4  A    between atoms: C_13  and  N_14 
ROOT
HETATM    1  C           1     -22.568  -4.013 -11.775  0.00  0.00     0.248 C 
HETATM    2  O           1     -23.535  -4.699 -11.545  0.00  0.00    -0.271 OA
HETATM    3  H           1     -21.865  -2.364 -12.810  0.00  0.00     0.163 HD
HETATM    4  N           1     -22.675  -2.939 -12.617  0.00  0.00    -0.349 N 
ENDROOT
BRANCH   1   5
HETATM    5  C           1     -21.241  -4.339 -11.132  0.00  0.00     0.270 C 
HETATM    6  C           1     -21.399  -4.351  -9.617  0.00  0.00     0.050 C 
BRANCH   5   7
HETATM    7  N           1     -20.231  -3.302 -11.520  0.00  0.00    -0.067 N 
HETATM    8  H           1     -19.641  -3.062 -10.692  0.00  0.00     0.275 HD
HETATM    9  H           1     -19.623  -3.675 -12.284  0.00  0.00     0.275 HD
HETATM   10  H           1     -20.724  -2.444 -11.857  0.00  0.00     0.275 HD
ENDBRANCH   5   7
ENDBRANCH   1   5
BRANCH   4  11
HETATM   11  C           1     -23.950  -2.626 -13.234  0.00  0.00     0.235 C 
BRANCH  11  12
HETATM   12  C           1     -23.714  -1.961 -14.568  0.00  0.00     0.191 C 
HETATM   13  O           1     -24.469  -1.040 -14.948  0.00  0.00    -0.647 OA
HETATM   14  O           1     -22.766  -2.332 -15.292  0.00  0.00    -0.647 OA
ENDBRANCH  11  12
ENDBRANCH   4  11
TORSDOF 4
ENDMDL
MODEL 4
REMARK VINA RESULT:      -5.1     11.277     12.083
REMARK  4 active torsions:
REMARK  status: ('A' for Active; 'I' for Inactive)
REMARK       I    between atoms: C_2  and  N_14 
REMARK    1  A    between atoms: C_2  and  C_3 
REMARK    2  A    between atoms: C_3  and  N_5 
REMARK    3  A    between atoms: C_11  and  C_13 
REMARK    4  A    between atoms: C_13  and  N_14 
ROOT
HETATM    1  C           1     -34.697  -1.796 -12.591  0.00  0.00     0.248 C 
HETATM    2  O           1     -34.703  -0.979 -11.701  0.00  0.00    -0.271 OA
HETATM    3  H           1     -35.052  -2.113 -14.606  0.00  0.00     0.163 HD
HETATM    4  N           1     -35.058  -1.429 -13.860  0.00  0.00    -0.349 N 
ENDROOT
BRANCH   1   5
HETATM    5  C           1     -34.290  -3.221 -12.304  0.00  0.00     0.270 C 
HETATM    6  C           1     -33.117  -3.229 -11.332  0.00  0.00     0.050 C 
BRANCH   5   7
HETATM    7  N           1     -33.883  -3.890 -13.583  0.00  0.00    -0.067 N 
HETATM    8  H           1     -34.364  -4.814 -13.661  0.00  0.00     0.275 HD
HETATM    9  H           1     -34.151  -3.288 -14.393  0.00  0.00     0.275 HD
HETATM   10  H           1     -32.848  -4.036 -13.585  0.00  0.00     0.275 HD
ENDBRANCH   5   7
ENDBRANCH   1   5
BRANCH   4  11
HETATM   11  C           1     -35.449  -0.060 -14.135  0.00  0.00     0.235 C 
BRANCH  11  12
HETATM   12  C           1     -36.823  -0.044 -14.757  0.00  0.00     0.191 C 
HETATM   13  O           1     -37.037   0.640 -15.782  0.00  0.00    -0.647 OA
HETATM   14  O           1     -37.748  -0.713 -14.248  0.00  0.00    -0.647 OA
ENDBRANCH  11  12
ENDBRANCH   4  11
TORSDOF 4
ENDMDL
MODEL 5
REMARK VINA RESULT:      -4.9      8.324      9.459
REMARK  4 active torsions:
REMARK  status: ('A' for Active; 'I' for Inactive)
REMARK       I    between atoms: C_2  and  N_14 
REMARK    1  A    between atoms: C_2  and  C_3 
REMARK    2  A    between atoms: C_3  and  N_5 
REMARK    3  A    between atoms: C_11  and  C_13 
REMARK    4  A    between atoms: C_13  and  N_14 
ROOT
HETATM    1  C           1     -27.650  -6.470 -17.990  0.00  0.00     0.248 C 
HETATM    2  O           1     -26.769  -5.696 -17.699  0.00  0.00    -0.271 OA
HETATM    3  H           1     -28.433  -7.665 -19.487  0.00  0.00     0.163 HD
HETATM    4  N           1     -27.695  -7.017 -19.243  0.00  0.00    -0.349 N 
ENDROOT
BRANCH   1   5
HETATM    5  C           1     -28.702  -6.833 -16.970  0.00  0.00     0.270 C 
HETATM    6  C           1     -28.039  -7.065 -15.617  0.00  0.00     0.050 C 
BRANCH   5   7
HETATM    7  N           1     -29.405  -8.085 -17.402  0.00  0.00    -0.067 N 
HETATM    8  H           1     -28.982  -8.433 -18.292  0.00  0.00     0.275 HD
HETATM    9  H           1     -29.304  -8.815 -16.661  0.00  0.00     0.275 HD
HETATM   10  H           1     -30.418  -7.881 -17.554  0.00  0.00     0.275 HD
ENDBRANCH   5   7
ENDBRANCH   1   5
BRANCH   4  11
HETATM   11  C           1     -26.684  -6.667 -20.223  0.00  0.00     0.235 C 
BRANCH  11  12
HETATM   12  C           1     -26.260  -7.906 -20.974  0.00  0.00     0.191 C 
HETATM   13  O           1     -27.123  -8.688 -21.428  0.00  0.00    -0.647 OA
HETATM   14  O           1     -25.046  -8.150 -21.141  0.00  0.00    -0.647 OA
ENDBRANCH  11  12
ENDBRANCH   4  11
TORSDOF 4
ENDMDL
MODEL 6
REMARK VINA RESULT:      -4.9     11.242     12.145
REMARK  4 active torsions:
REMARK  status: ('A' for Active; 'I' for Inactive)
REMARK       I    between atoms: C_2  and  N_14 
REMARK    1  A    between atoms: C_2  and  C_3 
REMARK    2  A    between atoms: C_3  and  N_5 
REMARK    3  A    between atoms: C_11  and  C_13 
REMARK    4  A    between atoms: C_13  and  N_14 
ROOT
HETATM    1  C           1     -34.679  -2.620 -12.676  0.00  0.00     0.248 C 
HETATM    2  O           1     -34.671  -2.568 -13.883  0.00  0.00    -0.271 OA
HETATM    3  H           1     -35.079  -1.573 -10.936  0.00  0.00     0.163 HD
HETATM    4  N           1     -35.072  -1.530 -11.947  0.00  0.00    -0.349 N 
ENDROOT
BRANCH   1   5
HETATM    5  C           1     -34.257  -3.886 -11.973  0.00  0.00     0.270 C 
HETATM    6  C           1     -32.754  -3.855 -11.728  0.00  0.00     0.050 C 
BRANCH   5   7
HETATM    7  N           1     -34.599  -5.070 -12.827  0.00  0.00    -0.067 N 
HETATM    8  H           1     -35.330  -5.645 -12.351  0.00  0.00     0.275 HD
HETATM    9  H           1     -34.962  -4.741 -13.750  0.00  0.00     0.275 HD
HETATM   10  H           1     -33.743  -5.650 -12.977  0.00  0.00     0.275 HD
ENDBRANCH   5   7
ENDBRANCH   1   5
BRANCH   4  11
HETATM   11  C           1     -35.477  -0.313 -12.624  0.00  0.00     0.235 C 
BRANCH  11  12
HETATM   12  C           1     -36.983  -0.261 -12.708  0.00  0.00     0.191 C 
HETATM   13  O           1     -37.644   0.250 -11.778  0.00  0.00    -0.647 OA
HETATM   14  O           1     -37.569  -0.729 -13.708  0.00  0.00    -0.647 OA
ENDBRANCH  11  12
ENDBRANCH   4  11
TORSDOF 4
ENDMDL
MODEL 7
REMARK VINA RESULT:      -4.9      1.936      2.141
REMARK  4 active torsions:
REMARK  status: ('A' for Active; 'I' for Inactive)
REMARK       I    between atoms: C_2  and  N_14 
REMARK    1  A    between atoms: C_2  and  C_3 
REMARK    2  A    between atoms: C_3  and  N_5 
REMARK    3  A    between atoms: C_11  and  C_13 
REMARK    4  A    between atoms: C_13  and  N_14 
ROOT
HETATM    1  C           1     -22.388  -4.150  -9.868  0.00  0.00     0.248 C 
HETATM    2  O           1     -21.372  -4.136 -10.523  0.00  0.00    -0.271 OA
HETATM    3  H           1     -24.449  -4.318  -9.938  0.00  0.00     0.163 HD
HETATM    4  N           1     -23.599  -4.306 -10.486  0.00  0.00    -0.349 N 
ENDROOT
BRANCH   1   5
HETATM    5  C           1     -22.320  -3.995  -8.368  0.00  0.00     0.270 C 
HETATM    6  C           1     -21.408  -5.068  -7.786  0.00  0.00     0.050 C 
BRANCH   5   7
HETATM    7  N           1     -23.695  -4.142  -7.789  0.00  0.00    -0.067 N 
HETATM    8  H           1     -24.407  -4.020  -8.544  0.00  0.00     0.275 HD
HETATM    9  H           1     -23.796  -5.092  -7.366  0.00  0.00     0.275 HD
HETATM   10  H           1     -23.841  -3.416  -7.051  0.00  0.00     0.275 HD
ENDBRANCH   5   7
ENDBRANCH   1   5
BRANCH   4  11
HETATM   11  C           1     -23.663  -4.455 -11.927  0.00  0.00     0.235 C 
BRANCH  11  12
HETATM   12  C           1     -24.129  -3.161 -12.547  0.00  0.00     0.191 C 
HETATM   13  O           1     -25.351  -2.901 -12.608  0.00  0.00    -0.647 OA
HETATM   14  O           1     -23.295  -2.349 -13.000  0.00  0.00    -0.647 OA
ENDBRANCH  11  12
ENDBRANCH   4  11
TORSDOF 4
ENDMDL
MODEL 8
REMARK VINA RESULT:      -4.9      3.256      5.611
REMARK  4 active torsions:
REMARK  status: ('A' for Active; 'I' for Inactive)
REMARK       I    between atoms: C_2  and  N_14 
REMARK    1  A    between atoms: C_2  and  C_3 
REMARK    2  A    between atoms: C_3  and  N_5 
REMARK    3  A    between atoms: C_11  and  C_13 
REMARK    4  A    between atoms: C_13  and  N_14 
ROOT
HETATM    1  C           1     -22.961  -4.080  -9.551  0.00  0.00     0.248 C 
HETATM    2  O           1     -21.877  -4.209 -10.070  0.00  0.00    -0.271 OA
HETATM    3  H           1     -23.967  -3.857  -7.756  0.00  0.00     0.163 HD
HETATM    4  N           1     -23.059  -3.964  -8.191  0.00  0.00    -0.349 N 
ENDROOT
BRANCH   1   5
HETATM    5  C           1     -24.206  -4.049 -10.404  0.00  0.00     0.270 C 
HETATM    6  C           1     -23.989  -3.114 -11.587  0.00  0.00     0.050 C 
BRANCH   5   7
HETATM    7  N           1     -25.360  -3.556  -9.583  0.00  0.00    -0.067 N 
HETATM    8  H           1     -25.000  -3.071  -8.731  0.00  0.00     0.275 HD
HETATM    9  H           1     -25.930  -2.888 -10.149  0.00  0.00     0.275 HD
HETATM   10  H           1     -25.955  -4.366  -9.298  0.00  0.00     0.275 HD
ENDBRANCH   5   7
ENDBRANCH   1   5
BRANCH   4  11
HETATM   11  C           1     -21.862  -3.994  -7.372  0.00  0.00     0.235 C 
BRANCH  11  12
HETATM   12  C           1     -21.721  -5.355  -6.736  0.00  0.00     0.191 C 
HETATM   13  O           1     -21.003  -6.225  -7.274  0.00  0.00    -0.647 OA
HETATM   14  O           1     -22.323  -5.612  -5.671  0.00  0.00    -0.647 OA
ENDBRANCH  11  12
ENDBRANCH   4  11
TORSDOF 4
ENDMDL
MODEL 9
REMARK VINA RESULT:      -4.8      2.398      3.178
REMARK  4 active torsions:
REMARK  status: ('A' for Active; 'I' for Inactive)
REMARK       I    between atoms: C_2  and  N_14 
REMARK    1  A    between atoms: C_2  and  C_3 
REMARK    2  A    between atoms: C_3  and  N_5 
REMARK    3  A    between atoms: C_11  and  C_13 
REMARK    4  A    between atoms: C_13  and  N_14 
ROOT
HETATM    1  C           1     -21.328  -4.275 -10.003  0.00  0.00     0.248 C 
HETATM    2  O           1     -20.455  -4.286 -10.838  0.00  0.00    -0.271 OA
HETATM    3  H           1     -23.354  -4.010  -9.671  0.00  0.00     0.163 HD
HETATM    4  N           1     -22.622  -4.019 -10.370  0.00  0.00    -0.349 N 
ENDROOT
BRANCH   1   5
HETATM    5  C           1     -20.993  -4.544  -8.556  0.00  0.00     0.270 C 
HETATM    6  C           1     -22.043  -3.897  -7.662  0.00  0.00     0.050 C 
BRANCH   5   7
HETATM    7  N           1     -19.645  -3.968  -8.241  0.00  0.00    -0.067 N 
HETATM    8  H           1     -19.761  -3.012  -7.835  0.00  0.00     0.275 HD
HETATM    9  H           1     -19.156  -4.582  -7.552  0.00  0.00     0.275 HD
HETATM   10  H           1     -19.079  -3.908  -9.118  0.00  0.00     0.275 HD
ENDBRANCH   5   7
ENDBRANCH   1   5
BRANCH   4  11
HETATM   11  C           1     -22.944  -3.760 -11.760  0.00  0.00     0.235 C 
BRANCH  11  12
HETATM   12  C           1     -24.360  -3.248 -11.863  0.00  0.00     0.191 C 
HETATM   13  O           1     -25.067  -3.158 -10.836  0.00  0.00    -0.647 OA
HETATM   14  O           1     -24.825  -2.915 -12.974  0.00  0.00    -0.647 OA
ENDBRANCH  11  12
ENDBRANCH   4  11
TORSDOF 4
ENDMDL
