MODEL 1
REMARK VINA RESULT:      -6.1      0.000      0.000
REMARK  10 active torsions:
REMARK  status: ('A' for Active; 'I' for Inactive)
REMARK    1  A    between atoms: C_6  and  C_25 
REMARK    2  A    between atoms: C_6  and  C_7 
REMARK    3  A    between atoms: C_7  and  C_8 
REMARK    4  A    between atoms: C_7  and  N_11 
REMARK       I    between atoms: N_11  and  C_12 
REMARK    5  A    between atoms: C_12  and  C_13 
REMARK    6  A    between atoms: C_13  and  C_14 
REMARK    7  A    between atoms: C_13  and  N_18 
REMARK    8  A    between atoms: C_14  and  C_15 
REMARK       I    between atoms: C_15  and  N_16 
REMARK    9  A    between atoms: N_23  and  C_24 
REMARK   10  A    between atoms: C_24  and  C_25 
ROOT
HETATM    1  N           1     -22.191  -4.825  -8.799  0.00  0.00    -0.345 N 
HETATM    2  C           1     -21.612  -4.583  -7.583  0.00  0.00     0.249 C 
HETATM    3  O           1     -21.492  -3.448  -7.186  0.00  0.00    -0.271 OA
HETATM    4  H           1     -22.292  -5.776  -9.131  0.00  0.00     0.163 HD
ENDROOT
BRANCH   1   5
HETATM    5  C           1     -22.662  -3.720  -9.611  0.00  0.00     0.185 C 
BRANCH   5   6
HETATM    6  C           1     -22.018  -3.793 -10.989  0.00  0.00     0.038 C 
BRANCH   6   7
HETATM    7  C           1     -22.472  -2.604 -11.827  0.00  0.00     0.030 C 
BRANCH   7   8
HETATM    8  C           1     -22.787  -3.071 -13.242  0.00  0.00     0.230 C 
BRANCH   8   9
HETATM    9  N           1     -23.875  -4.102 -13.200  0.00  0.00    -0.079 N 
HETATM   10  H           1     -23.819  -4.702 -14.053  0.00  0.00     0.274 HD
HETATM   11  H           1     -23.759  -4.695 -12.348  0.00  0.00     0.274 HD
HETATM   12  H           1     -24.804  -3.625 -13.171  0.00  0.00     0.274 HD
ENDBRANCH   8   9
ENDBRANCH   7   8
ENDBRANCH   6   7
ENDBRANCH   5   6
BRANCH   5  13
HETATM   13  C           1     -24.162  -3.801  -9.750  0.00  0.00     0.196 C 
HETATM   14  O           1     -24.695  -4.848 -10.178  0.00  0.00    -0.646 OA
HETATM   15  O           1     -24.873  -2.820  -9.439  0.00  0.00    -0.646 OA
ENDBRANCH   5  13
ENDBRANCH   1   5
BRANCH   2  16
HETATM   16  C           1     -21.123  -5.733  -6.737  0.00  0.00     0.283 C 
BRANCH  16  17
HETATM   17  C           1     -20.866  -5.247  -5.317  0.00  0.00     0.145 C 
BRANCH  17  18
HETATM   18  C           1     -21.193  -6.349  -4.340  0.00  0.00     0.217 C 
HETATM   19  N           1     -21.895  -6.069  -3.199  0.00  0.00    -0.370 N 
HETATM   20  H           1     -22.196  -5.120  -3.011  0.00  0.00     0.159 HD
HETATM   21  H           1     -22.114  -6.808  -2.544  0.00  0.00     0.159 HD
HETATM   22  O           1     -20.833  -7.481  -4.564  0.00  0.00    -0.274 OA
ENDBRANCH  17  18
ENDBRANCH  16  17
BRANCH  16  23
HETATM   23  N           1     -19.850  -6.273  -7.318  0.00  0.00    -0.066 N 
HETATM   24  H           1     -20.076  -6.991  -8.044  0.00  0.00     0.275 HD
HETATM   25  H           1     -19.280  -6.713  -6.561  0.00  0.00     0.275 HD
HETATM   26  H           1     -19.308  -5.493  -7.753  0.00  0.00     0.275 HD
ENDBRANCH  16  23
ENDBRANCH   2  16
TORSDOF 10
ENDMDL
MODEL 2
REMARK VINA RESULT:      -5.7      2.040      6.477
REMARK  10 active torsions:
REMARK  status: ('A' for Active; 'I' for Inactive)
REMARK    1  A    between atoms: C_6  and  C_25 
REMARK    2  A    between atoms: C_6  and  C_7 
REMARK    3  A    between atoms: C_7  and  C_8 
REMARK    4  A    between atoms: C_7  and  N_11 
REMARK       I    between atoms: N_11  and  C_12 
REMARK    5  A    between atoms: C_12  and  C_13 
REMARK    6  A    between atoms: C_13  and  C_14 
REMARK    7  A    between atoms: C_13  and  N_18 
REMARK    8  A    between atoms: C_14  and  C_15 
REMARK       I    between atoms: C_15  and  N_16 
REMARK    9  A    between atoms: N_23  and  C_24 
REMARK   10  A    between atoms: C_24  and  C_25 
ROOT
HETATM    1  N           1     -22.224  -4.855  -7.262  0.00  0.00    -0.345 N 
HETATM    2  C           1     -22.565  -4.095  -8.349  0.00  0.00     0.249 C 
HETATM    3  O           1     -21.824  -3.221  -8.731  0.00  0.00    -0.271 OA
HETATM    4  H           1     -22.845  -5.588  -6.943  0.00  0.00     0.163 HD
ENDROOT
BRANCH   1   5
HETATM    5  C           1     -20.973  -4.612  -6.571  0.00  0.00     0.185 C 
BRANCH   5   6
HETATM    6  C           1     -20.961  -5.382  -5.258  0.00  0.00     0.038 C 
BRANCH   6   7
HETATM    7  C           1     -22.164  -6.316  -5.204  0.00  0.00     0.030 C 
BRANCH   7   8
HETATM    8  C           1     -21.699  -7.721  -4.847  0.00  0.00     0.230 C 
BRANCH   8   9
HETATM    9  N           1     -20.411  -8.018  -5.555  0.00  0.00    -0.079 N 
HETATM   10  H           1     -19.608  -7.820  -4.916  0.00  0.00     0.274 HD
HETATM   11  H           1     -20.392  -9.025  -5.835  0.00  0.00     0.274 HD
HETATM   12  H           1     -20.334  -7.417  -6.406  0.00  0.00     0.274 HD
ENDBRANCH   8   9
ENDBRANCH   7   8
ENDBRANCH   6   7
ENDBRANCH   5   6
BRANCH   5  13
HETATM   13  C           1     -19.823  -5.070  -7.434  0.00  0.00     0.196 C 
HETATM   14  O           1     -19.793  -6.244  -7.864  0.00  0.00    -0.646 OA
HETATM   15  O           1     -18.901  -4.276  -7.719  0.00  0.00    -0.646 OA
ENDBRANCH   5  13
ENDBRANCH   1   5
BRANCH   2  16
HETATM   16  C           1     -23.866  -4.349  -9.069  0.00  0.00     0.283 C 
BRANCH  16  17
HETATM   17  C           1     -23.583  -4.689 -10.526  0.00  0.00     0.145 C 
BRANCH  17  18
HETATM   18  C           1     -23.790  -3.461 -11.379  0.00  0.00     0.217 C 
HETATM   19  N           1     -22.725  -2.667 -11.709  0.00  0.00    -0.370 N 
HETATM   20  H           1     -21.797  -2.905 -11.380  0.00  0.00     0.159 HD
HETATM   21  H           1     -22.864  -1.845 -12.281  0.00  0.00     0.159 HD
HETATM   22  O           1     -24.898  -3.178 -11.772  0.00  0.00    -0.274 OA
ENDBRANCH  17  18
ENDBRANCH  16  17
BRANCH  16  23
HETATM   23  N           1     -24.722  -3.118  -9.001  0.00  0.00    -0.066 N 
HETATM   24  H           1     -25.674  -3.336  -9.374  0.00  0.00     0.275 HD
HETATM   25  H           1     -24.289  -2.360  -9.574  0.00  0.00     0.275 HD
HETATM   26  H           1     -24.800  -2.804  -8.008  0.00  0.00     0.275 HD
ENDBRANCH  16  23
ENDBRANCH   2  16
TORSDOF 10
ENDMDL
MODEL 3
REMARK VINA RESULT:      -5.3      2.315      7.320
REMARK  10 active torsions:
REMARK  status: ('A' for Active; 'I' for Inactive)
REMARK    1  A    between atoms: C_6  and  C_25 
REMARK    2  A    between atoms: C_6  and  C_7 
REMARK    3  A    between atoms: C_7  and  C_8 
REMARK    4  A    between atoms: C_7  and  N_11 
REMARK       I    between atoms: N_11  and  C_12 
REMARK    5  A    between atoms: C_12  and  C_13 
REMARK    6  A    between atoms: C_13  and  C_14 
REMARK    7  A    between atoms: C_13  and  N_18 
REMARK    8  A    between atoms: C_14  and  C_15 
REMARK       I    between atoms: C_15  and  N_16 
REMARK    9  A    between atoms: N_23  and  C_24 
REMARK   10  A    between atoms: C_24  and  C_25 
ROOT
HETATM    1  N           1     -21.316  -6.447  -6.613  0.00  0.00    -0.345 N 
HETATM    2  C           1     -21.053  -5.200  -7.113  0.00  0.00     0.249 C 
HETATM    3  O           1     -20.384  -4.422  -6.475  0.00  0.00    -0.271 OA
HETATM    4  H           1     -21.876  -7.098  -7.148  0.00  0.00     0.163 HD
ENDROOT
BRANCH   1   5
HETATM    5  C           1     -20.791  -6.835  -5.319  0.00  0.00     0.185 C 
BRANCH   5   6
HETATM    6  C           1     -21.861  -6.632  -4.255  0.00  0.00     0.038 C 
BRANCH   6   7
HETATM    7  C           1     -21.211  -6.601  -2.878  0.00  0.00     0.030 C 
BRANCH   7   8
HETATM    8  C           1     -22.252  -6.223  -1.833  0.00  0.00     0.230 C 
BRANCH   8   9
HETATM    9  N           1     -22.197  -7.198  -0.694  0.00  0.00    -0.079 N 
HETATM   10  H           1     -21.372  -6.982  -0.091  0.00  0.00     0.274 HD
HETATM   11  H           1     -23.072  -7.121  -0.129  0.00  0.00     0.274 HD
HETATM   12  H           1     -22.108  -8.168  -1.071  0.00  0.00     0.274 HD
ENDBRANCH   8   9
ENDBRANCH   7   8
ENDBRANCH   6   7
ENDBRANCH   5   6
BRANCH   5  13
HETATM   13  C           1     -20.384  -8.287  -5.356  0.00  0.00     0.196 C 
HETATM   14  O           1     -19.203  -8.600  -5.620  0.00  0.00    -0.646 OA
HETATM   15  O           1     -21.229  -9.179  -5.122  0.00  0.00    -0.646 OA
ENDBRANCH   5  13
ENDBRANCH   1   5
BRANCH   2  16
HETATM   16  C           1     -21.599  -4.796  -8.460  0.00  0.00     0.283 C 
BRANCH  16  17
HETATM   17  C           1     -20.451  -4.392  -9.374  0.00  0.00     0.145 C 
BRANCH  17  18
HETATM   18  C           1     -20.988  -4.072 -10.748  0.00  0.00     0.217 C 
HETATM   19  N           1     -20.330  -3.181 -11.552  0.00  0.00    -0.370 N 
HETATM   20  H           1     -19.481  -2.736 -11.224  0.00  0.00     0.159 HD
HETATM   21  H           1     -20.690  -2.967 -12.472  0.00  0.00     0.159 HD
HETATM   22  O           1     -22.002  -4.602 -11.139  0.00  0.00    -0.274 OA
ENDBRANCH  17  18
ENDBRANCH  16  17
BRANCH  16  23
HETATM   23  N           1     -22.535  -3.635  -8.291  0.00  0.00    -0.066 N 
HETATM   24  H           1     -23.037  -3.722  -7.378  0.00  0.00     0.275 HD
HETATM   25  H           1     -23.230  -3.632  -9.071  0.00  0.00     0.275 HD
HETATM   26  H           1     -21.990  -2.744  -8.307  0.00  0.00     0.275 HD
ENDBRANCH  16  23
ENDBRANCH   2  16
TORSDOF 10
ENDMDL
MODEL 4
REMARK VINA RESULT:      -5.1      2.213      6.504
REMARK  10 active torsions:
REMARK  status: ('A' for Active; 'I' for Inactive)
REMARK    1  A    between atoms: C_6  and  C_25 
REMARK    2  A    between atoms: C_6  and  C_7 
REMARK    3  A    between atoms: C_7  and  C_8 
REMARK    4  A    between atoms: C_7  and  N_11 
REMARK       I    between atoms: N_11  and  C_12 
REMARK    5  A    between atoms: C_12  and  C_13 
REMARK    6  A    between atoms: C_13  and  C_14 
REMARK    7  A    between atoms: C_13  and  N_18 
REMARK    8  A    between atoms: C_14  and  C_15 
REMARK       I    between atoms: C_15  and  N_16 
REMARK    9  A    between atoms: N_23  and  C_24 
REMARK   10  A    between atoms: C_24  and  C_25 
ROOT
HETATM    1  N           1     -21.250  -5.253  -8.188  0.00  0.00    -0.345 N 
HETATM    2  C           1     -22.001  -4.217  -8.673  0.00  0.00     0.249 C 
HETATM    3  O           1     -22.604  -3.500  -7.910  0.00  0.00    -0.271 OA
HETATM    4  H           1     -20.744  -5.853  -8.827  0.00  0.00     0.163 HD
ENDROOT
BRANCH   1   5
HETATM    5  C           1     -21.178  -5.491  -6.760  0.00  0.00     0.185 C 
BRANCH   5   6
HETATM    6  C           1     -21.072  -6.987  -6.499  0.00  0.00     0.038 C 
BRANCH   6   7
HETATM    7  C           1     -21.605  -7.301  -5.107  0.00  0.00     0.030 C 
BRANCH   7   8
HETATM    8  C           1     -21.322  -8.758  -4.771  0.00  0.00     0.230 C 
BRANCH   8   9
HETATM    9  N           1     -20.052  -9.190  -5.442  0.00  0.00    -0.079 N 
HETATM   10  H           1     -20.278  -9.642  -6.356  0.00  0.00     0.274 HD
HETATM   11  H           1     -19.446  -8.355  -5.607  0.00  0.00     0.274 HD
HETATM   12  H           1     -19.549  -9.872  -4.831  0.00  0.00     0.274 HD
ENDBRANCH   8   9
ENDBRANCH   7   8
ENDBRANCH   6   7
ENDBRANCH   5   6
BRANCH   5  13
HETATM   13  C           1     -19.965  -4.794  -6.194  0.00  0.00     0.196 C 
HETATM   14  O           1     -18.944  -4.645  -6.899  0.00  0.00    -0.646 OA
HETATM   15  O           1     -19.982  -4.366  -5.020  0.00  0.00    -0.646 OA
ENDBRANCH   5  13
ENDBRANCH   1   5
BRANCH   2  16
HETATM   16  C           1     -22.075  -3.968 -10.159  0.00  0.00     0.283 C 
BRANCH  16  17
HETATM   17  C           1     -23.327  -4.626 -10.723  0.00  0.00     0.145 C 
BRANCH  17  18
HETATM   18  C           1     -24.451  -3.619 -10.761  0.00  0.00     0.217 C 
HETATM   19  N           1     -25.326  -3.527  -9.712  0.00  0.00    -0.370 N 
HETATM   20  H           1     -25.217  -4.134  -8.909  0.00  0.00     0.159 HD
HETATM   21  H           1     -26.078  -2.853  -9.738  0.00  0.00     0.159 HD
HETATM   22  O           1     -24.581  -2.894 -11.720  0.00  0.00    -0.274 OA
ENDBRANCH  17  18
ENDBRANCH  16  17
BRANCH  16  23
HETATM   23  N           1     -20.863  -4.551 -10.824  0.00  0.00    -0.066 N 
HETATM   24  H           1     -21.138  -4.972 -11.741  0.00  0.00     0.275 HD
HETATM   25  H           1     -20.451  -5.290 -10.211  0.00  0.00     0.275 HD
HETATM   26  H           1     -20.157  -3.797 -10.982  0.00  0.00     0.275 HD
ENDBRANCH  16  23
ENDBRANCH   2  16
TORSDOF 10
ENDMDL
MODEL 5
REMARK VINA RESULT:      -5.1      2.316      3.299
REMARK  10 active torsions:
REMARK  status: ('A' for Active; 'I' for Inactive)
REMARK    1  A    between atoms: C_6  and  C_25 
REMARK    2  A    between atoms: C_6  and  C_7 
REMARK    3  A    between atoms: C_7  and  C_8 
REMARK    4  A    between atoms: C_7  and  N_11 
REMARK       I    between atoms: N_11  and  C_12 
REMARK    5  A    between atoms: C_12  and  C_13 
REMARK    6  A    between atoms: C_13  and  C_14 
REMARK    7  A    between atoms: C_13  and  N_18 
REMARK    8  A    between atoms: C_14  and  C_15 
REMARK       I    between atoms: C_15  and  N_16 
REMARK    9  A    between atoms: N_23  and  C_24 
REMARK   10  A    between atoms: C_24  and  C_25 
ROOT
HETATM    1  N           1     -21.486  -5.011  -6.740  0.00  0.00    -0.345 N 
HETATM    2  C           1     -21.233  -6.213  -6.137  0.00  0.00     0.249 C 
HETATM    3  O           1     -21.076  -7.205  -6.809  0.00  0.00    -0.271 OA
HETATM    4  H           1     -21.617  -4.180  -6.177  0.00  0.00     0.163 HD
ENDROOT
BRANCH   1   5
HETATM    5  C           1     -21.565  -4.927  -8.186  0.00  0.00     0.185 C 
BRANCH   5   6
HETATM    6  C           1     -22.630  -3.913  -8.578  0.00  0.00     0.038 C 
BRANCH   6   7
HETATM    7  C           1     -23.460  -4.465  -9.730  0.00  0.00     0.030 C 
BRANCH   7   8
HETATM    8  C           1     -23.138  -3.695 -11.003  0.00  0.00     0.230 C 
BRANCH   8   9
HETATM    9  N           1     -22.236  -4.520 -11.873  0.00  0.00    -0.079 N 
HETATM   10  H           1     -21.248  -4.408 -11.554  0.00  0.00     0.274 HD
HETATM   11  H           1     -22.513  -5.525 -11.804  0.00  0.00     0.274 HD
HETATM   12  H           1     -22.321  -4.201 -12.864  0.00  0.00     0.274 HD
ENDBRANCH   8   9
ENDBRANCH   7   8
ENDBRANCH   6   7
ENDBRANCH   5   6
BRANCH   5  13
HETATM   13  C           1     -20.229  -4.495  -8.738  0.00  0.00     0.196 C 
HETATM   14  O           1     -19.446  -3.826  -8.029  0.00  0.00    -0.646 OA
HETATM   15  O           1     -19.906  -4.805  -9.906  0.00  0.00    -0.646 OA
ENDBRANCH   5  13
ENDBRANCH   1   5
BRANCH   2  16
HETATM   16  C           1     -21.150  -6.301  -4.633  0.00  0.00     0.283 C 
BRANCH  16  17
HETATM   17  C           1     -20.586  -7.657  -4.233  0.00  0.00     0.145 C 
BRANCH  17  18
HETATM   18  C           1     -21.054  -8.007  -2.841  0.00  0.00     0.217 C 
HETATM   19  N           1     -21.622  -9.228  -2.595  0.00  0.00    -0.370 N 
HETATM   20  H           1     -21.728  -9.897  -3.347  0.00  0.00     0.159 HD
HETATM   21  H           1     -21.935  -9.461  -1.662  0.00  0.00     0.159 HD
HETATM   22  O           1     -20.927  -7.208  -1.943  0.00  0.00    -0.274 OA
ENDBRANCH  17  18
ENDBRANCH  16  17
BRANCH  16  23
HETATM   23  N           1     -22.522  -6.138  -4.047  0.00  0.00    -0.066 N 
HETATM   24  H           1     -23.203  -5.921  -4.811  0.00  0.00     0.275 HD
HETATM   25  H           1     -22.515  -5.356  -3.356  0.00  0.00     0.275 HD
HETATM   26  H           1     -22.803  -7.024  -3.570  0.00  0.00     0.275 HD
ENDBRANCH  16  23
ENDBRANCH   2  16
TORSDOF 10
ENDMDL
MODEL 6
REMARK VINA RESULT:      -5.1      2.719      7.389
REMARK  10 active torsions:
REMARK  status: ('A' for Active; 'I' for Inactive)
REMARK    1  A    between atoms: C_6  and  C_25 
REMARK    2  A    between atoms: C_6  and  C_7 
REMARK    3  A    between atoms: C_7  and  C_8 
REMARK    4  A    between atoms: C_7  and  N_11 
REMARK       I    between atoms: N_11  and  C_12 
REMARK    5  A    between atoms: C_12  and  C_13 
REMARK    6  A    between atoms: C_13  and  C_14 
REMARK    7  A    between atoms: C_13  and  N_18 
REMARK    8  A    between atoms: C_14  and  C_15 
REMARK       I    between atoms: C_15  and  N_16 
REMARK    9  A    between atoms: N_23  and  C_24 
REMARK   10  A    between atoms: C_24  and  C_25 
ROOT
HETATM    1  N           1     -20.887  -6.643  -4.737  0.00  0.00    -0.345 N 
HETATM    2  C           1     -21.719  -5.843  -5.473  0.00  0.00     0.249 C 
HETATM    3  O           1     -22.917  -5.959  -5.368  0.00  0.00    -0.271 OA
HETATM    4  H           1     -19.884  -6.545  -4.824  0.00  0.00     0.163 HD
ENDROOT
BRANCH   1   5
HETATM    5  C           1     -21.444  -7.629  -3.832  0.00  0.00     0.185 C 
BRANCH   5   6
HETATM    6  C           1     -20.701  -8.948  -4.000  0.00  0.00     0.038 C 
BRANCH   6   7
HETATM    7  C           1     -19.445  -8.722  -4.833  0.00  0.00     0.030 C 
BRANCH   7   8
HETATM    8  C           1     -18.307  -9.565  -4.273  0.00  0.00     0.230 C 
BRANCH   8   9
HETATM    9  N           1     -18.145  -9.281  -2.809  0.00  0.00    -0.079 N 
HETATM   10  H           1     -17.176  -8.939  -2.626  0.00  0.00     0.274 HD
HETATM   11  H           1     -18.833  -8.550  -2.520  0.00  0.00     0.274 HD
HETATM   12  H           1     -18.315 -10.156  -2.265  0.00  0.00     0.274 HD
ENDBRANCH   8   9
ENDBRANCH   7   8
ENDBRANCH   6   7
ENDBRANCH   5   6
BRANCH   5  13
HETATM   13  C           1     -21.299  -7.147  -2.410  0.00  0.00     0.196 C 
HETATM   14  O           1     -22.044  -6.240  -1.979  0.00  0.00    -0.646 OA
HETATM   15  O           1     -20.433  -7.652  -1.663  0.00  0.00    -0.646 OA
ENDBRANCH   5  13
ENDBRANCH   1   5
BRANCH   2  16
HETATM   16  C           1     -21.141  -4.815  -6.414  0.00  0.00     0.283 C 
BRANCH  16  17
HETATM   17  C           1     -21.474  -5.195  -7.850  0.00  0.00     0.145 C 
BRANCH  17  18
HETATM   18  C           1     -22.497  -4.232  -8.402  0.00  0.00     0.217 C 
HETATM   19  N           1     -23.735  -4.140  -7.825  0.00  0.00    -0.370 N 
HETATM   20  H           1     -23.964  -4.719  -7.027  0.00  0.00     0.159 HD
HETATM   21  H           1     -24.419  -3.495  -8.195  0.00  0.00     0.159 HD
HETATM   22  O           1     -22.223  -3.541  -9.355  0.00  0.00    -0.274 OA
ENDBRANCH  17  18
ENDBRANCH  16  17
BRANCH  16  23
HETATM   23  N           1     -19.651  -4.765  -6.244  0.00  0.00    -0.066 N 
HETATM   24  H           1     -19.404  -4.013  -5.561  0.00  0.00     0.275 HD
HETATM   25  H           1     -19.202  -4.561  -7.165  0.00  0.00     0.275 HD
HETATM   26  H           1     -19.311  -5.687  -5.888  0.00  0.00     0.275 HD
ENDBRANCH  16  23
ENDBRANCH   2  16
TORSDOF 10
ENDMDL
MODEL 7
REMARK VINA RESULT:      -4.9      2.672      7.462
REMARK  10 active torsions:
REMARK  status: ('A' for Active; 'I' for Inactive)
REMARK    1  A    between atoms: C_6  and  C_25 
REMARK    2  A    between atoms: C_6  and  C_7 
REMARK    3  A    between atoms: C_7  and  C_8 
REMARK    4  A    between atoms: C_7  and  N_11 
REMARK       I    between atoms: N_11  and  C_12 
REMARK    5  A    between atoms: C_12  and  C_13 
REMARK    6  A    between atoms: C_13  and  C_14 
REMARK    7  A    between atoms: C_13  and  N_18 
REMARK    8  A    between atoms: C_14  and  C_15 
REMARK       I    between atoms: C_15  and  N_16 
REMARK    9  A    between atoms: N_23  and  C_24 
REMARK   10  A    between atoms: C_24  and  C_25 
ROOT
HETATM    1  N           1     -21.211  -6.956  -4.890  0.00  0.00    -0.345 N 
HETATM    2  C           1     -20.792  -6.376  -6.057  0.00  0.00     0.249 C 
HETATM    3  O           1     -19.834  -6.821  -6.643  0.00  0.00    -0.271 OA
HETATM    4  H           1     -22.014  -6.584  -4.400  0.00  0.00     0.163 HD
ENDROOT
BRANCH   1   5
HETATM    5  C           1     -20.505  -8.105  -4.358  0.00  0.00     0.185 C 
BRANCH   5   6
HETATM    6  C           1     -20.445  -8.006  -2.840  0.00  0.00     0.038 C 
BRANCH   6   7
HETATM    7  C           1     -21.258  -6.803  -2.376  0.00  0.00     0.030 C 
BRANCH   7   8
HETATM    8  C           1     -22.131  -7.205  -1.195  0.00  0.00     0.230 C 
BRANCH   8   9
HETATM    9  N           1     -22.168  -8.701  -1.085  0.00  0.00    -0.079 N 
HETATM   10  H           1     -21.652  -9.000  -0.228  0.00  0.00     0.274 HD
HETATM   11  H           1     -23.161  -9.020  -1.023  0.00  0.00     0.274 HD
HETATM   12  H           1     -21.717  -9.123  -1.928  0.00  0.00     0.274 HD
ENDBRANCH   8   9
ENDBRANCH   7   8
ENDBRANCH   6   7
ENDBRANCH   5   6
BRANCH   5  13
HETATM   13  C           1     -21.230  -9.368  -4.752  0.00  0.00     0.196 C 
HETATM   14  O           1     -21.007  -9.898  -5.863  0.00  0.00    -0.646 OA
HETATM   15  O           1     -22.056  -9.885  -3.968  0.00  0.00    -0.646 OA
ENDBRANCH   5  13
ENDBRANCH   1   5
BRANCH   2  16
HETATM   16  C           1     -21.527  -5.181  -6.612  0.00  0.00     0.283 C 
BRANCH  16  17
HETATM   17  C           1     -21.868  -5.427  -8.075  0.00  0.00     0.145 C 
BRANCH  17  18
HETATM   18  C           1     -22.628  -4.243  -8.621  0.00  0.00     0.217 C 
HETATM   19  N           1     -23.918  -4.013  -8.222  0.00  0.00    -0.370 N 
HETATM   20  H           1     -24.361  -4.638  -7.560  0.00  0.00     0.159 HD
HETATM   21  H           1     -24.427  -3.221  -8.589  0.00  0.00     0.159 HD
HETATM   22  O           1     -22.100  -3.497  -9.412  0.00  0.00    -0.274 OA
ENDBRANCH  17  18
ENDBRANCH  16  17
BRANCH  16  23
HETATM   23  N           1     -20.655  -3.964  -6.500  0.00  0.00    -0.066 N 
HETATM   24  H           1     -20.677  -3.437  -7.403  0.00  0.00     0.275 HD
HETATM   25  H           1     -19.675  -4.256  -6.291  0.00  0.00     0.275 HD
HETATM   26  H           1     -21.009  -3.353  -5.730  0.00  0.00     0.275 HD
ENDBRANCH  16  23
ENDBRANCH   2  16
TORSDOF 10
ENDMDL
MODEL 8
REMARK VINA RESULT:      -4.8      3.697      8.140
REMARK  10 active torsions:
REMARK  status: ('A' for Active; 'I' for Inactive)
REMARK    1  A    between atoms: C_6  and  C_25 
REMARK    2  A    between atoms: C_6  and  C_7 
REMARK    3  A    between atoms: C_7  and  C_8 
REMARK    4  A    between atoms: C_7  and  N_11 
REMARK       I    between atoms: N_11  and  C_12 
REMARK    5  A    between atoms: C_12  and  C_13 
REMARK    6  A    between atoms: C_13  and  C_14 
REMARK    7  A    between atoms: C_13  and  N_18 
REMARK    8  A    between atoms: C_14  and  C_15 
REMARK       I    between atoms: C_15  and  N_16 
REMARK    9  A    between atoms: N_23  and  C_24 
REMARK   10  A    between atoms: C_24  and  C_25 
ROOT
HETATM    1  N           1     -20.763  -7.315  -3.713  0.00  0.00    -0.345 N 
HETATM    2  C           1     -21.217  -6.718  -4.858  0.00  0.00     0.249 C 
HETATM    3  O           1     -22.401  -6.687  -5.095  0.00  0.00    -0.271 OA
HETATM    4  H           1     -19.771  -7.340  -3.514  0.00  0.00     0.163 HD
ENDROOT
BRANCH   1   5
HETATM    5  C           1     -21.704  -7.910  -2.784  0.00  0.00     0.185 C 
BRANCH   5   6
HETATM    6  C           1     -21.133  -9.217  -2.251  0.00  0.00     0.038 C 
BRANCH   6   7
HETATM    7  C           1     -22.196 -10.306  -2.325  0.00  0.00     0.030 C 
BRANCH   7   8
HETATM    8  C           1     -22.447 -10.866  -0.932  0.00  0.00     0.230 C 
BRANCH   8   9
HETATM    9  N           1     -23.414  -9.982  -0.202  0.00  0.00    -0.079 N 
HETATM   10  H           1     -23.828 -10.507   0.601  0.00  0.00     0.274 HD
HETATM   11  H           1     -22.911  -9.138   0.155  0.00  0.00     0.274 HD
HETATM   12  H           1     -24.175  -9.686  -0.853  0.00  0.00     0.274 HD
ENDBRANCH   8   9
ENDBRANCH   7   8
ENDBRANCH   6   7
ENDBRANCH   5   6
BRANCH   5  13
HETATM   13  C           1     -21.948  -6.961  -1.637  0.00  0.00     0.196 C 
HETATM   14  O           1     -21.836  -7.364  -0.458  0.00  0.00    -0.646 OA
HETATM   15  O           1     -22.263  -5.773  -1.864  0.00  0.00    -0.646 OA
ENDBRANCH   5  13
ENDBRANCH   1   5
BRANCH   2  16
HETATM   16  C           1     -20.238  -6.097  -5.824  0.00  0.00     0.283 C 
BRANCH  16  17
HETATM   17  C           1     -20.319  -4.580  -5.727  0.00  0.00     0.145 C 
BRANCH  17  18
HETATM   18  C           1     -20.709  -4.009  -7.068  0.00  0.00     0.217 C 
HETATM   19  N           1     -21.999  -3.608  -7.294  0.00  0.00    -0.370 N 
HETATM   20  H           1     -22.691  -3.696  -6.561  0.00  0.00     0.159 HD
HETATM   21  H           1     -22.260  -3.226  -8.193  0.00  0.00     0.159 HD
HETATM   22  O           1     -19.883  -3.905  -7.944  0.00  0.00    -0.274 OA
ENDBRANCH  17  18
ENDBRANCH  16  17
BRANCH  16  23
HETATM   23  N           1     -20.577  -6.527  -7.222  0.00  0.00    -0.066 N 
HETATM   24  H           1     -20.123  -5.877  -7.904  0.00  0.00     0.275 HD
HETATM   25  H           1     -21.613  -6.500  -7.352  0.00  0.00     0.275 HD
HETATM   26  H           1     -20.230  -7.499  -7.380  0.00  0.00     0.275 HD
ENDBRANCH  16  23
ENDBRANCH   2  16
TORSDOF 10
ENDMDL
MODEL 9
REMARK VINA RESULT:      -4.8      3.785      5.882
REMARK  10 active torsions:
REMARK  status: ('A' for Active; 'I' for Inactive)
REMARK    1  A    between atoms: C_6  and  C_25 
REMARK    2  A    between atoms: C_6  and  C_7 
REMARK    3  A    between atoms: C_7  and  C_8 
REMARK    4  A    between atoms: C_7  and  N_11 
REMARK       I    between atoms: N_11  and  C_12 
REMARK    5  A    between atoms: C_12  and  C_13 
REMARK    6  A    between atoms: C_13  and  C_14 
REMARK    7  A    between atoms: C_13  and  N_18 
REMARK    8  A    between atoms: C_14  and  C_15 
REMARK       I    between atoms: C_15  and  N_16 
REMARK    9  A    between atoms: N_23  and  C_24 
REMARK   10  A    between atoms: C_24  and  C_25 
ROOT
HETATM    1  N           1     -20.976  -8.245  -5.598  0.00  0.00    -0.345 N 
HETATM    2  C           1     -20.332  -9.180  -4.834  0.00  0.00     0.249 C 
HETATM    3  O           1     -19.599  -8.829  -3.940  0.00  0.00    -0.271 OA
HETATM    4  H           1     -21.591  -8.539  -6.346  0.00  0.00     0.163 HD
ENDROOT
BRANCH   1   5
HETATM    5  C           1     -20.781  -6.833  -5.333  0.00  0.00     0.185 C 
BRANCH   5   6
HETATM    6  C           1     -20.681  -6.078  -6.652  0.00  0.00     0.038 C 
BRANCH   6   7
HETATM    7  C           1     -20.322  -4.623  -6.380  0.00  0.00     0.030 C 
BRANCH   7   8
HETATM    8  C           1     -21.117  -3.721  -7.314  0.00  0.00     0.230 C 
BRANCH   8   9
HETATM    9  N           1     -22.556  -4.143  -7.314  0.00  0.00    -0.079 N 
HETATM   10  H           1     -22.619  -5.164  -7.523  0.00  0.00     0.274 HD
HETATM   11  H           1     -22.973  -3.952  -6.375  0.00  0.00     0.274 HD
HETATM   12  H           1     -23.076  -3.606  -8.044  0.00  0.00     0.274 HD
ENDBRANCH   8   9
ENDBRANCH   7   8
ENDBRANCH   6   7
ENDBRANCH   5   6
BRANCH   5  13
HETATM   13  C           1     -21.947  -6.304  -4.536  0.00  0.00     0.196 C 
HETATM   14  O           1     -23.067  -6.174  -5.078  0.00  0.00    -0.646 OA
HETATM   15  O           1     -21.795  -5.993  -3.335  0.00  0.00    -0.646 OA
ENDBRANCH   5  13
ENDBRANCH   1   5
BRANCH   2  16
HETATM   16  C           1     -20.536 -10.650  -5.109  0.00  0.00     0.283 C 
BRANCH  16  17
HETATM   17  C           1     -19.192 -11.364  -5.079  0.00  0.00     0.145 C 
BRANCH  17  18
HETATM   18  C           1     -18.356 -10.914  -6.253  0.00  0.00     0.217 C 
HETATM   19  N           1     -17.370  -9.981  -6.074  0.00  0.00    -0.370 N 
HETATM   20  H           1     -17.202  -9.593  -5.154  0.00  0.00     0.159 HD
HETATM   21  H           1     -16.810  -9.680  -6.860  0.00  0.00     0.159 HD
HETATM   22  O           1     -18.556 -11.377  -7.351  0.00  0.00    -0.274 OA
ENDBRANCH  17  18
ENDBRANCH  16  17
BRANCH  16  23
HETATM   23  N           1     -21.163 -10.822  -6.461  0.00  0.00    -0.066 N 
HETATM   24  H           1     -20.879 -11.746  -6.861  0.00  0.00     0.275 HD
HETATM   25  H           1     -20.844 -10.056  -7.094  0.00  0.00     0.275 HD
HETATM   26  H           1     -22.203 -10.787  -6.368  0.00  0.00     0.275 HD
ENDBRANCH  16  23
ENDBRANCH   2  16
TORSDOF 10
ENDMDL
