MODEL 1
REMARK VINA RESULT:      -6.7      0.000      0.000
REMARK  8 active torsions:
REMARK  status: ('A' for Active; 'I' for Inactive)
REMARK    1  A    between atoms: C_1  and  C_2 
REMARK    2  A    between atoms: C_1  and  C_14 
REMARK    3  A    between atoms: C_1  and  N_9 
REMARK       I    between atoms: C_2  and  N_3 
REMARK    4  A    between atoms: N_3  and  C_7 
REMARK    5  A    between atoms: C_6  and  C_7 
REMARK    6  A    between atoms: C_7  and  C_20 
REMARK    7  A    between atoms: C_11  and  C_14 
REMARK    8  A    between atoms: C_11  and  C_12 
ROOT
HETATM    1  C           1     -21.649  -4.761  -7.653  0.00  0.00     0.249 C 
HETATM    2  N           1     -22.147  -4.958  -8.913  0.00  0.00    -0.344 N 
HETATM    3  O           1     -21.602  -3.647  -7.189  0.00  0.00    -0.271 OA
HETATM    4  H           1     -22.188  -5.891  -9.301  0.00  0.00     0.163 HD
ENDROOT
BRANCH   1   5
HETATM    5  C           1     -21.161  -5.937  -6.843  0.00  0.00     0.275 C 
BRANCH   5   6
HETATM    6  C           1     -21.232  -5.597  -5.360  0.00  0.00     0.053 C 
BRANCH   6   7
HETATM    7  C           1     -22.093  -6.628  -4.643  0.00  0.00     0.115 C 
BRANCH   7   8
HETATM    8  C           1     -21.773  -6.615  -3.168  0.00  0.00     0.172 C 
HETATM    9  O           1     -22.438  -5.896  -2.391  0.00  0.00    -0.648 OA
HETATM   10  O           1     -20.843  -7.323  -2.725  0.00  0.00    -0.648 OA
ENDBRANCH   7   8
ENDBRANCH   6   7
ENDBRANCH   5   6
BRANCH   5  11
HETATM   11  N           1     -19.742  -6.247  -7.217  0.00  0.00    -0.066 N 
HETATM   12  H           1     -19.521  -7.234  -6.959  0.00  0.00     0.275 HD
HETATM   13  H           1     -19.618  -6.119  -8.246  0.00  0.00     0.275 HD
HETATM   14  H           1     -19.099  -5.601  -6.704  0.00  0.00     0.275 HD
ENDBRANCH   5  11
ENDBRANCH   1   5
BRANCH   2  15
HETATM   15  C           1     -22.617  -3.828  -9.691  0.00  0.00     0.189 C 
BRANCH  15  16
HETATM   16  C           1     -24.125  -3.838  -9.733  0.00  0.00     0.197 C 
HETATM   17  O           1     -24.734  -4.877 -10.065  0.00  0.00    -0.646 OA
HETATM   18  O           1     -24.765  -2.807  -9.433  0.00  0.00    -0.646 OA
ENDBRANCH  15  16
BRANCH  15  19
HETATM   19  C           1     -22.069  -3.926 -11.109  0.00  0.00     0.010 C 
HETATM   20  C           1     -22.526  -2.717 -11.914  0.00  0.00     0.012 C 
HETATM   21  C           1     -20.546  -3.960 -11.062  0.00  0.00     0.012 C 
ENDBRANCH  15  19
ENDBRANCH   2  15
TORSDOF 8
ENDMDL
MODEL 2
REMARK VINA RESULT:      -6.4     12.523     13.946
REMARK  8 active torsions:
REMARK  status: ('A' for Active; 'I' for Inactive)
REMARK    1  A    between atoms: C_1  and  C_2 
REMARK    2  A    between atoms: C_1  and  C_14 
REMARK    3  A    between atoms: C_1  and  N_9 
REMARK       I    between atoms: C_2  and  N_3 
REMARK    4  A    between atoms: N_3  and  C_7 
REMARK    5  A    between atoms: C_6  and  C_7 
REMARK    6  A    between atoms: C_7  and  C_20 
REMARK    7  A    between atoms: C_11  and  C_14 
REMARK    8  A    between atoms: C_11  and  C_12 
ROOT
HETATM    1  C           1     -34.344  -2.654 -11.758  0.00  0.00     0.249 C 
HETATM    2  N           1     -35.288  -1.913 -12.416  0.00  0.00    -0.344 N 
HETATM    3  O           1     -33.632  -2.132 -10.934  0.00  0.00    -0.271 OA
HETATM    4  H           1     -35.885  -2.351 -13.106  0.00  0.00     0.163 HD
ENDROOT
BRANCH   1   5
HETATM    5  C           1     -34.194  -4.125 -12.061  0.00  0.00     0.275 C 
BRANCH   5   6
HETATM    6  C           1     -34.372  -4.929 -10.779  0.00  0.00     0.053 C 
BRANCH   6   7
HETATM    7  C           1     -33.665  -6.270 -10.919  0.00  0.00     0.115 C 
BRANCH   7   8
HETATM    8  C           1     -34.413  -7.319 -10.133  0.00  0.00     0.172 C 
HETATM    9  O           1     -34.004  -8.500 -10.119  0.00  0.00    -0.648 OA
HETATM   10  O           1     -35.443  -7.006  -9.496  0.00  0.00    -0.648 OA
ENDBRANCH   7   8
ENDBRANCH   6   7
ENDBRANCH   5   6
BRANCH   5  11
HETATM   11  N           1     -32.829  -4.382 -12.626  0.00  0.00    -0.066 N 
HETATM   12  H           1     -32.520  -5.345 -12.368  0.00  0.00     0.275 HD
HETATM   13  H           1     -32.861  -4.293 -13.667  0.00  0.00     0.275 HD
HETATM   14  H           1     -32.154  -3.684 -12.236  0.00  0.00     0.275 HD
ENDBRANCH   5  11
ENDBRANCH   1   5
BRANCH   2  15
HETATM   15  C           1     -35.433  -0.500 -12.125  0.00  0.00     0.189 C 
BRANCH  15  16
HETATM   16  C           1     -36.581  -0.298 -11.166  0.00  0.00     0.197 C 
HETATM   17  O           1     -36.513   0.589 -10.289  0.00  0.00    -0.646 OA
HETATM   18  O           1     -37.599  -1.018 -11.251  0.00  0.00    -0.646 OA
ENDBRANCH  15  16
BRANCH  15  19
HETATM   19  C           1     -35.710   0.258 -13.416  0.00  0.00     0.010 C 
HETATM   20  C           1     -34.552   1.203 -13.709  0.00  0.00     0.012 C 
HETATM   21  C           1     -35.860  -0.732 -14.564  0.00  0.00     0.012 C 
ENDBRANCH  15  19
ENDBRANCH   2  15
TORSDOF 8
ENDMDL
MODEL 3
REMARK VINA RESULT:      -6.3     11.744     13.808
REMARK  8 active torsions:
REMARK  status: ('A' for Active; 'I' for Inactive)
REMARK    1  A    between atoms: C_1  and  C_2 
REMARK    2  A    between atoms: C_1  and  C_14 
REMARK    3  A    between atoms: C_1  and  N_9 
REMARK       I    between atoms: C_2  and  N_3 
REMARK    4  A    between atoms: N_3  and  C_7 
REMARK    5  A    between atoms: C_6  and  C_7 
REMARK    6  A    between atoms: C_7  and  C_20 
REMARK    7  A    between atoms: C_11  and  C_14 
REMARK    8  A    between atoms: C_11  and  C_12 
ROOT
HETATM    1  C           1     -33.871  -4.497 -15.428  0.00  0.00     0.249 C 
HETATM    2  N           1     -33.370  -4.003 -14.254  0.00  0.00    -0.344 N 
HETATM    3  O           1     -35.008  -4.901 -15.478  0.00  0.00    -0.271 OA
HETATM    4  H           1     -32.417  -3.665 -14.213  0.00  0.00     0.163 HD
ENDROOT
BRANCH   1   5
HETATM    5  C           1     -33.002  -4.537 -16.662  0.00  0.00     0.275 C 
BRANCH   5   6
HETATM    6  C           1     -31.550  -4.757 -16.255  0.00  0.00     0.053 C 
BRANCH   6   7
HETATM    7  C           1     -30.936  -5.839 -17.131  0.00  0.00     0.115 C 
BRANCH   7   8
HETATM    8  C           1     -29.676  -6.359 -16.482  0.00  0.00     0.172 C 
HETATM    9  O           1     -29.192  -5.766 -15.493  0.00  0.00    -0.648 OA
HETATM   10  O           1     -29.117  -7.381 -16.933  0.00  0.00    -0.648 OA
ENDBRANCH   7   8
ENDBRANCH   6   7
ENDBRANCH   5   6
BRANCH   5  11
HETATM   11  N           1     -33.122  -3.236 -17.399  0.00  0.00    -0.066 N 
HETATM   12  H           1     -32.753  -2.462 -16.803  0.00  0.00     0.275 HD
HETATM   13  H           1     -32.572  -3.287 -18.286  0.00  0.00     0.275 HD
HETATM   14  H           1     -34.128  -3.055 -17.622  0.00  0.00     0.275 HD
ENDBRANCH   5  11
ENDBRANCH   1   5
BRANCH   2  15
HETATM   15  C           1     -34.204  -3.965 -13.069  0.00  0.00     0.189 C 
BRANCH  15  16
HETATM   16  C           1     -34.686  -2.553 -12.838  0.00  0.00     0.197 C 
HETATM   17  O           1     -34.667  -2.068 -11.687  0.00  0.00    -0.646 OA
HETATM   18  O           1     -35.101  -1.870 -13.799  0.00  0.00    -0.646 OA
ENDBRANCH  15  16
BRANCH  15  19
HETATM   19  C           1     -33.397  -4.430 -11.865  0.00  0.00     0.010 C 
HETATM   20  C           1     -34.015  -5.703 -11.300  0.00  0.00     0.012 C 
HETATM   21  C           1     -31.962  -4.710 -12.294  0.00  0.00     0.012 C 
ENDBRANCH  15  19
ENDBRANCH   2  15
TORSDOF 8
ENDMDL
MODEL 4
REMARK VINA RESULT:      -6.3     12.854     14.822
REMARK  8 active torsions:
REMARK  status: ('A' for Active; 'I' for Inactive)
REMARK    1  A    between atoms: C_1  and  C_2 
REMARK    2  A    between atoms: C_1  and  C_14 
REMARK    3  A    between atoms: C_1  and  N_9 
REMARK       I    between atoms: C_2  and  N_3 
REMARK    4  A    between atoms: N_3  and  C_7 
REMARK    5  A    between atoms: C_6  and  C_7 
REMARK    6  A    between atoms: C_7  and  C_20 
REMARK    7  A    between atoms: C_11  and  C_14 
REMARK    8  A    between atoms: C_11  and  C_12 
ROOT
HETATM    1  C           1     -35.640  -1.464 -12.711  0.00  0.00     0.249 C 
HETATM    2  N           1     -35.007  -1.163 -13.887  0.00  0.00    -0.344 N 
HETATM    3  O           1     -36.788  -1.129 -12.540  0.00  0.00    -0.271 OA
HETATM    4  H           1     -34.046  -1.443 -14.030  0.00  0.00     0.163 HD
ENDROOT
BRANCH   1   5
HETATM    5  C           1     -34.904  -2.214 -11.629  0.00  0.00     0.275 C 
BRANCH   5   6
HETATM    6  C           1     -33.959  -3.227 -12.264  0.00  0.00     0.053 C 
BRANCH   6   7
HETATM    7  C           1     -33.508  -4.230 -11.212  0.00  0.00     0.115 C 
BRANCH   7   8
HETATM    8  C           1     -34.178  -5.560 -11.463  0.00  0.00     0.172 C 
HETATM    9  O           1     -33.839  -6.565 -10.802  0.00  0.00    -0.648 OA
HETATM   10  O           1     -35.071  -5.654 -12.333  0.00  0.00    -0.648 OA
ENDBRANCH   7   8
ENDBRANCH   6   7
ENDBRANCH   5   6
BRANCH   5  11
HETATM   11  N           1     -35.892  -2.932 -10.758  0.00  0.00    -0.066 N 
HETATM   12  H           1     -36.841  -2.880 -11.191  0.00  0.00     0.275 HD
HETATM   13  H           1     -35.607  -3.932 -10.661  0.00  0.00     0.275 HD
HETATM   14  H           1     -35.915  -2.482  -9.814  0.00  0.00     0.275 HD
ENDBRANCH   5  11
ENDBRANCH   1   5
BRANCH   2  15
HETATM   15  C           1     -35.715  -0.441 -14.927  0.00  0.00     0.189 C 
BRANCH  15  16
HETATM   16  C           1     -35.687  -1.245 -16.205  0.00  0.00     0.197 C 
HETATM   17  O           1     -36.435  -0.932 -17.155  0.00  0.00    -0.646 OA
HETATM   18  O           1     -34.914  -2.221 -16.312  0.00  0.00    -0.646 OA
ENDBRANCH  15  16
BRANCH  15  19
HETATM   19  C           1     -35.041   0.905 -15.158  0.00  0.00     0.010 C 
HETATM   20  C           1     -36.050   1.882 -15.748  0.00  0.00     0.012 C 
HETATM   21  C           1     -34.524   1.447 -13.832  0.00  0.00     0.012 C 
ENDBRANCH  15  19
ENDBRANCH   2  15
TORSDOF 8
ENDMDL
MODEL 5
REMARK VINA RESULT:      -6.1     12.983     15.045
REMARK  8 active torsions:
REMARK  status: ('A' for Active; 'I' for Inactive)
REMARK    1  A    between atoms: C_1  and  C_2 
REMARK    2  A    between atoms: C_1  and  C_14 
REMARK    3  A    between atoms: C_1  and  N_9 
REMARK       I    between atoms: C_2  and  N_3 
REMARK    4  A    between atoms: N_3  and  C_7 
REMARK    5  A    between atoms: C_6  and  C_7 
REMARK    6  A    between atoms: C_7  and  C_20 
REMARK    7  A    between atoms: C_11  and  C_14 
REMARK    8  A    between atoms: C_11  and  C_12 
ROOT
HETATM    1  C           1     -35.586  -0.818 -13.291  0.00  0.00     0.249 C 
HETATM    2  N           1     -35.411  -1.984 -12.596  0.00  0.00    -0.344 N 
HETATM    3  O           1     -34.744  -0.449 -14.075  0.00  0.00    -0.271 OA
HETATM    4  H           1     -36.117  -2.294 -11.941  0.00  0.00     0.163 HD
ENDROOT
BRANCH   1   5
HETATM    5  C           1     -36.833   0.006 -13.079  0.00  0.00     0.275 C 
BRANCH   5   6
HETATM    6  C           1     -37.548  -0.467 -11.820  0.00  0.00     0.053 C 
BRANCH   6   7
HETATM    7  C           1     -37.119   0.392 -10.639  0.00  0.00     0.115 C 
BRANCH   7   8
HETATM    8  C           1     -36.570  -0.493  -9.545  0.00  0.00     0.172 C 
HETATM    9  O           1     -36.573  -1.735  -9.686  0.00  0.00    -0.648 OA
HETATM   10  O           1     -36.113   0.018  -8.500  0.00  0.00    -0.648 OA
ENDBRANCH   7   8
ENDBRANCH   6   7
ENDBRANCH   5   6
BRANCH   5  11
HETATM   11  N           1     -37.743  -0.152 -14.260  0.00  0.00    -0.066 N 
HETATM   12  H           1     -38.331   0.704 -14.364  0.00  0.00     0.275 HD
HETATM   13  H           1     -37.171  -0.290 -15.124  0.00  0.00     0.275 HD
HETATM   14  H           1     -38.361  -0.984 -14.114  0.00  0.00     0.275 HD
ENDBRANCH   5  11
ENDBRANCH   1   5
BRANCH   2  15
HETATM   15  C           1     -34.214  -2.776 -12.800  0.00  0.00     0.189 C 
BRANCH  15  16
HETATM   16  C           1     -34.533  -3.949 -13.696  0.00  0.00     0.197 C 
HETATM   17  O           1     -34.231  -3.909 -14.907  0.00  0.00    -0.646 OA
HETATM   18  O           1     -35.096  -4.960 -13.224  0.00  0.00    -0.646 OA
ENDBRANCH  15  16
BRANCH  15  19
HETATM   19  C           1     -33.708  -3.286 -11.457  0.00  0.00     0.010 C 
HETATM   20  C           1     -32.482  -4.162 -11.676  0.00  0.00     0.012 C 
HETATM   21  C           1     -33.336  -2.102 -10.573  0.00  0.00     0.012 C 
ENDBRANCH  15  19
ENDBRANCH   2  15
TORSDOF 8
ENDMDL
MODEL 6
REMARK VINA RESULT:      -6.1      2.295      6.850
REMARK  8 active torsions:
REMARK  status: ('A' for Active; 'I' for Inactive)
REMARK    1  A    between atoms: C_1  and  C_2 
REMARK    2  A    between atoms: C_1  and  C_14 
REMARK    3  A    between atoms: C_1  and  N_9 
REMARK       I    between atoms: C_2  and  N_3 
REMARK    4  A    between atoms: N_3  and  C_7 
REMARK    5  A    between atoms: C_6  and  C_7 
REMARK    6  A    between atoms: C_7  and  C_20 
REMARK    7  A    between atoms: C_11  and  C_14 
REMARK    8  A    between atoms: C_11  and  C_12 
ROOT
HETATM    1  C           1     -22.375  -4.190  -8.088  0.00  0.00     0.249 C 
HETATM    2  N           1     -22.118  -5.327  -7.371  0.00  0.00    -0.344 N 
HETATM    3  O           1     -21.806  -3.160  -7.814  0.00  0.00    -0.271 OA
HETATM    4  H           1     -22.594  -6.189  -7.601  0.00  0.00     0.163 HD
ENDROOT
BRANCH   1   5
HETATM    5  C           1     -23.368  -4.223  -9.224  0.00  0.00     0.275 C 
BRANCH   5   6
HETATM    6  C           1     -22.690  -3.759 -10.507  0.00  0.00     0.053 C 
BRANCH   6   7
HETATM    7  C           1     -23.260  -4.529 -11.690  0.00  0.00     0.115 C 
BRANCH   7   8
HETATM    8  C           1     -24.145  -3.618 -12.505  0.00  0.00     0.172 C 
HETATM    9  O           1     -25.061  -2.975 -11.949  0.00  0.00    -0.648 OA
HETATM   10  O           1     -23.962  -3.508 -13.737  0.00  0.00    -0.648 OA
ENDBRANCH   7   8
ENDBRANCH   6   7
ENDBRANCH   5   6
BRANCH   5  11
HETATM   11  N           1     -24.518  -3.312  -8.909  0.00  0.00    -0.066 N 
HETATM   12  H           1     -24.163  -2.457  -8.426  0.00  0.00     0.275 HD
HETATM   13  H           1     -24.997  -3.038  -9.796  0.00  0.00     0.275 HD
HETATM   14  H           1     -25.194  -3.810  -8.286  0.00  0.00     0.275 HD
ENDBRANCH   5  11
ENDBRANCH   1   5
BRANCH   2  15
HETATM   15  C           1     -21.163  -5.295  -6.280  0.00  0.00     0.189 C 
BRANCH  15  16
HETATM   16  C           1     -19.791  -5.644  -6.802  0.00  0.00     0.197 C 
HETATM   17  O           1     -18.970  -4.737  -7.055  0.00  0.00    -0.646 OA
HETATM   18  O           1     -19.476  -6.840  -6.978  0.00  0.00    -0.646 OA
ENDBRANCH  15  16
BRANCH  15  19
HETATM   19  C           1     -21.575  -6.304  -5.216  0.00  0.00     0.010 C 
HETATM   20  C           1     -21.017  -5.874  -3.866  0.00  0.00     0.012 C 
HETATM   21  C           1     -23.095  -6.369  -5.140  0.00  0.00     0.012 C 
ENDBRANCH  15  19
ENDBRANCH   2  15
TORSDOF 8
ENDMDL
MODEL 7
REMARK VINA RESULT:      -5.7     12.835     14.423
REMARK  8 active torsions:
REMARK  status: ('A' for Active; 'I' for Inactive)
REMARK    1  A    between atoms: C_1  and  C_2 
REMARK    2  A    between atoms: C_1  and  C_14 
REMARK    3  A    between atoms: C_1  and  N_9 
REMARK       I    between atoms: C_2  and  N_3 
REMARK    4  A    between atoms: N_3  and  C_7 
REMARK    5  A    between atoms: C_6  and  C_7 
REMARK    6  A    between atoms: C_7  and  C_20 
REMARK    7  A    between atoms: C_11  and  C_14 
REMARK    8  A    between atoms: C_11  and  C_12 
ROOT
HETATM    1  C           1     -34.607  -2.339 -12.655  0.00  0.00     0.249 C 
HETATM    2  N           1     -35.147  -1.084 -12.566  0.00  0.00    -0.344 N 
HETATM    3  O           1     -34.594  -2.917 -13.715  0.00  0.00    -0.271 OA
HETATM    4  H           1     -35.157  -0.599 -11.678  0.00  0.00     0.163 HD
ENDROOT
BRANCH   1   5
HETATM    5  C           1     -34.027  -2.999 -11.428  0.00  0.00     0.275 C 
BRANCH   5   6
HETATM    6  C           1     -34.782  -4.290 -11.139  0.00  0.00     0.053 C 
BRANCH   6   7
HETATM    7  C           1     -33.842  -5.476 -11.303  0.00  0.00     0.115 C 
BRANCH   7   8
HETATM    8  C           1     -34.307  -6.613 -10.426  0.00  0.00     0.172 C 
HETATM    9  O           1     -33.766  -7.736 -10.519  0.00  0.00    -0.648 OA
HETATM   10  O           1     -35.234  -6.431  -9.607  0.00  0.00    -0.648 OA
ENDBRANCH   7   8
ENDBRANCH   6   7
ENDBRANCH   5   6
BRANCH   5  11
HETATM   11  N           1     -34.154  -2.073 -10.255  0.00  0.00    -0.066 N 
HETATM   12  H           1     -33.420  -1.333 -10.314  0.00  0.00     0.275 HD
HETATM   13  H           1     -35.099  -1.628 -10.265  0.00  0.00     0.275 HD
HETATM   14  H           1     -34.032  -2.616  -9.369  0.00  0.00     0.275 HD
ENDBRANCH   5  11
ENDBRANCH   1   5
BRANCH   2  15
HETATM   15  C           1     -35.705  -0.450 -13.744  0.00  0.00     0.189 C 
BRANCH  15  16
HETATM   16  C           1     -34.760   0.621 -14.233  0.00  0.00     0.197 C 
HETATM   17  O           1     -34.100   0.442 -15.279  0.00  0.00    -0.646 OA
HETATM   18  O           1     -34.640   1.688 -13.593  0.00  0.00    -0.646 OA
ENDBRANCH  15  16
BRANCH  15  19
HETATM   19  C           1     -37.048   0.178 -13.395  0.00  0.00     0.010 C 
HETATM   20  C           1     -38.075  -0.202 -14.453  0.00  0.00     0.012 C 
HETATM   21  C           1     -37.507  -0.332 -12.035  0.00  0.00     0.012 C 
ENDBRANCH  15  19
ENDBRANCH   2  15
TORSDOF 8
ENDMDL
MODEL 8
REMARK VINA RESULT:      -5.6      1.952      2.367
REMARK  8 active torsions:
REMARK  status: ('A' for Active; 'I' for Inactive)
REMARK    1  A    between atoms: C_1  and  C_2 
REMARK    2  A    between atoms: C_1  and  C_14 
REMARK    3  A    between atoms: C_1  and  N_9 
REMARK       I    between atoms: C_2  and  N_3 
REMARK    4  A    between atoms: N_3  and  C_7 
REMARK    5  A    between atoms: C_6  and  C_7 
REMARK    6  A    between atoms: C_7  and  C_20 
REMARK    7  A    between atoms: C_11  and  C_14 
REMARK    8  A    between atoms: C_11  and  C_12 
ROOT
HETATM    1  C           1     -21.761  -4.396  -6.985  0.00  0.00     0.249 C 
HETATM    2  N           1     -22.407  -4.833  -8.111  0.00  0.00    -0.344 N 
HETATM    3  O           1     -21.346  -3.263  -6.928  0.00  0.00    -0.271 OA
HETATM    4  H           1     -22.755  -5.781  -8.158  0.00  0.00     0.163 HD
ENDROOT
BRANCH   1   5
HETATM    5  C           1     -21.570  -5.329  -5.815  0.00  0.00     0.275 C 
BRANCH   5   6
HETATM    6  C           1     -20.601  -6.439  -6.202  0.00  0.00     0.053 C 
BRANCH   6   7
HETATM    7  C           1     -20.394  -7.369  -5.015  0.00  0.00     0.115 C 
BRANCH   7   8
HETATM    8  C           1     -19.562  -8.554  -5.443  0.00  0.00     0.172 C 
HETATM    9  O           1     -19.756  -9.674  -4.924  0.00  0.00    -0.648 OA
HETATM   10  O           1     -18.677  -8.413  -6.315  0.00  0.00    -0.648 OA
ENDBRANCH   7   8
ENDBRANCH   6   7
ENDBRANCH   5   6
BRANCH   5  11
HETATM   11  N           1     -22.891  -5.930  -5.434  0.00  0.00    -0.066 N 
HETATM   12  H           1     -22.836  -6.970  -5.512  0.00  0.00     0.275 HD
HETATM   13  H           1     -23.122  -5.665  -4.451  0.00  0.00     0.275 HD
HETATM   14  H           1     -23.634  -5.572  -6.077  0.00  0.00     0.275 HD
ENDBRANCH   5  11
ENDBRANCH   1   5
BRANCH   2  15
HETATM   15  C           1     -22.591  -3.936  -9.235  0.00  0.00     0.189 C 
BRANCH  15  16
HETATM   16  C           1     -24.050  -3.906  -9.621  0.00  0.00     0.197 C 
HETATM   17  O           1     -24.686  -2.832  -9.574  0.00  0.00    -0.646 OA
HETATM   18  O           1     -24.620  -4.955  -9.990  0.00  0.00    -0.646 OA
ENDBRANCH  15  16
BRANCH  15  19
HETATM   19  C           1     -21.762  -4.426 -10.415  0.00  0.00     0.010 C 
HETATM   20  C           1     -21.911  -3.453 -11.578  0.00  0.00     0.012 C 
HETATM   21  C           1     -20.298  -4.510 -10.007  0.00  0.00     0.012 C 
ENDBRANCH  15  19
ENDBRANCH   2  15
TORSDOF 8
ENDMDL
MODEL 9
REMARK VINA RESULT:      -5.5      2.103      6.809
REMARK  8 active torsions:
REMARK  status: ('A' for Active; 'I' for Inactive)
REMARK    1  A    between atoms: C_1  and  C_2 
REMARK    2  A    between atoms: C_1  and  C_14 
REMARK    3  A    between atoms: C_1  and  N_9 
REMARK       I    between atoms: C_2  and  N_3 
REMARK    4  A    between atoms: N_3  and  C_7 
REMARK    5  A    between atoms: C_6  and  C_7 
REMARK    6  A    between atoms: C_7  and  C_20 
REMARK    7  A    between atoms: C_11  and  C_14 
REMARK    8  A    between atoms: C_11  and  C_12 
ROOT
HETATM    1  C           1     -21.046  -5.335  -6.144  0.00  0.00     0.249 C 
HETATM    2  N           1     -21.527  -6.431  -5.479  0.00  0.00    -0.344 N 
HETATM    3  O           1     -19.891  -5.007  -6.013  0.00  0.00    -0.271 OA
HETATM    4  H           1     -22.494  -6.706  -5.590  0.00  0.00     0.163 HD
ENDROOT
BRANCH   1   5
HETATM    5  C           1     -21.959  -4.539  -7.044  0.00  0.00     0.275 C 
BRANCH   5   6
HETATM    6  C           1     -21.831  -5.044  -8.475  0.00  0.00     0.053 C 
BRANCH   6   7
HETATM    7  C           1     -22.227  -3.937  -9.442  0.00  0.00     0.115 C 
BRANCH   7   8
HETATM    8  C           1     -23.681  -4.093  -9.819  0.00  0.00     0.172 C 
HETATM    9  O           1     -24.033  -5.018 -10.581  0.00  0.00    -0.648 OA
HETATM   10  O           1     -24.531  -3.295  -9.368  0.00  0.00    -0.648 OA
ENDBRANCH   7   8
ENDBRANCH   6   7
ENDBRANCH   5   6
BRANCH   5  11
HETATM   11  N           1     -21.574  -3.090  -6.990  0.00  0.00    -0.066 N 
HETATM   12  H           1     -22.136  -2.607  -6.253  0.00  0.00     0.275 HD
HETATM   13  H           1     -20.557  -3.009  -6.762  0.00  0.00     0.275 HD
HETATM   14  H           1     -21.761  -2.646  -7.918  0.00  0.00     0.275 HD
ENDBRANCH   5  11
ENDBRANCH   1   5
BRANCH   2  15
HETATM   15  C           1     -20.649  -7.197  -4.615  0.00  0.00     0.189 C 
BRANCH  15  16
HETATM   16  C           1     -20.254  -8.478  -5.308  0.00  0.00     0.197 C 
HETATM   17  O           1     -21.130  -9.308  -5.633  0.00  0.00    -0.646 OA
HETATM   18  O           1     -19.051  -8.707  -5.558  0.00  0.00    -0.646 OA
ENDBRANCH  15  16
BRANCH  15  19
HETATM   19  C           1     -21.375  -7.524  -3.317  0.00  0.00     0.010 C 
HETATM   20  C           1     -20.430  -8.265  -2.380  0.00  0.00     0.012 C 
HETATM   21  C           1     -21.837  -6.232  -2.655  0.00  0.00     0.012 C 
ENDBRANCH  15  19
ENDBRANCH   2  15
TORSDOF 8
ENDMDL
