MODEL 1
REMARK VINA RESULT:      -7.3      0.000      0.000
REMARK  10 active torsions:
REMARK  status: ('A' for Active; 'I' for Inactive)
REMARK       I    between atoms: C_3  and  N_4 
REMARK    1  A    between atoms: C_3  and  C_17 
REMARK    2  A    between atoms: N_4  and  C_12 
REMARK    3  A    between atoms: C_6  and  O_10 
REMARK    4  A    between atoms: C_11  and  C_12 
REMARK    5  A    between atoms: C_12  and  C_28 
REMARK    6  A    between atoms: C_13  and  C_28 
REMARK    7  A    between atoms: C_14  and  C_17 
REMARK    8  A    between atoms: C_14  and  C_25 
REMARK    9  A    between atoms: C_17  and  N_21 
REMARK       I    between atoms: N_23  and  C_24 
REMARK   10  A    between atoms: C_24  and  C_25 
ROOT
HETATM    1  C           1     -21.377  -6.871  -5.491  0.00  0.00     0.249 C 
HETATM    2  N           1     -21.575  -5.557  -5.823  0.00  0.00    -0.344 N 
HETATM    3  H           1     -22.090  -4.950  -5.200  0.00  0.00     0.163 HD
HETATM    4  O           1     -20.761  -7.596  -6.236  0.00  0.00    -0.271 OA
ENDROOT
BRANCH   2   5
HETATM    5  C           1     -21.047  -5.038  -7.069  0.00  0.00     0.189 C 
BRANCH   5   6
HETATM    6  C           1     -19.614  -4.610  -6.868  0.00  0.00     0.197 C 
HETATM    7  O           1     -18.868  -4.440  -7.856  0.00  0.00    -0.646 OA
HETATM    8  O           1     -19.173  -4.425  -5.713  0.00  0.00    -0.646 OA
ENDBRANCH   5   6
BRANCH   5   9
HETATM    9  C           1     -21.878  -3.840  -7.512  0.00  0.00     0.074 C 
BRANCH   9  10
HETATM   10  C           1     -22.363  -4.059  -8.911  0.00  0.00    -0.056 A 
HETATM   11  C           1     -23.728  -4.190  -9.163  0.00  0.00     0.010 A 
HETATM   12  C           1     -24.181  -4.394 -10.467  0.00  0.00     0.037 A 
HETATM   13  C           1     -23.267  -4.466 -11.519  0.00  0.00     0.065 A 
HETATM   14  C           1     -21.902  -4.336 -11.267  0.00  0.00     0.037 A 
HETATM   15  C           1     -21.450  -4.132  -9.962  0.00  0.00     0.010 A 
BRANCH  13  16
HETATM   16  O           1     -23.706  -4.664 -12.786  0.00  0.00    -0.361 OA
HETATM   17  H           1     -23.394  -3.923 -13.331  0.00  0.00     0.217 HD
ENDBRANCH  13  16
ENDBRANCH   9  10
ENDBRANCH   5   9
ENDBRANCH   2   5
BRANCH   1  18
HETATM   18  C           1     -21.926  -7.412  -4.193  0.00  0.00     0.275 C 
BRANCH  18  19
HETATM   19  C           1     -21.197  -6.764  -3.023  0.00  0.00     0.052 C 
BRANCH  19  20
HETATM   20  C           1     -22.211  -6.283  -1.995  0.00  0.00     0.105 C 
BRANCH  20  21
HETATM   21  C           1     -22.229  -7.232  -0.822  0.00  0.00     0.215 C 
HETATM   22  O           1     -23.199  -7.287  -0.104  0.00  0.00    -0.274 OA
HETATM   23  N           1     -21.146  -8.030  -0.570  0.00  0.00    -0.370 N 
HETATM   24  H           1     -20.333  -7.985  -1.170  0.00  0.00     0.159 HD
HETATM   25  H           1     -21.159  -8.667   0.217  0.00  0.00     0.159 HD
ENDBRANCH  20  21
ENDBRANCH  19  20
ENDBRANCH  18  19
BRANCH  18  26
HETATM   26  N           1     -21.724  -8.897  -4.147  0.00  0.00    -0.066 N 
HETATM   27  H           1     -22.558  -9.376  -4.555  0.00  0.00     0.275 HD
HETATM   28  H           1     -21.598  -9.200  -3.155  0.00  0.00     0.275 HD
HETATM   29  H           1     -20.873  -9.151  -4.699  0.00  0.00     0.275 HD
ENDBRANCH  18  26
ENDBRANCH   1  18
TORSDOF 10
ENDMDL
MODEL 2
REMARK VINA RESULT:      -7.2      2.766      7.852
REMARK  10 active torsions:
REMARK  status: ('A' for Active; 'I' for Inactive)
REMARK       I    between atoms: C_3  and  N_4 
REMARK    1  A    between atoms: C_3  and  C_17 
REMARK    2  A    between atoms: N_4  and  C_12 
REMARK    3  A    between atoms: C_6  and  O_10 
REMARK    4  A    between atoms: C_11  and  C_12 
REMARK    5  A    between atoms: C_12  and  C_28 
REMARK    6  A    between atoms: C_13  and  C_28 
REMARK    7  A    between atoms: C_14  and  C_17 
REMARK    8  A    between atoms: C_14  and  C_25 
REMARK    9  A    between atoms: C_17  and  N_21 
REMARK       I    between atoms: N_23  and  C_24 
REMARK   10  A    between atoms: C_24  and  C_25 
ROOT
HETATM    1  C           1     -23.034  -4.659  -8.628  0.00  0.00     0.249 C 
HETATM    2  N           1     -21.752  -5.136  -8.684  0.00  0.00    -0.344 N 
HETATM    3  H           1     -21.398  -5.534  -9.545  0.00  0.00     0.163 HD
HETATM    4  O           1     -23.457  -4.184  -7.600  0.00  0.00    -0.271 OA
ENDROOT
BRANCH   2   5
HETATM    5  C           1     -20.902  -5.072  -7.512  0.00  0.00     0.189 C 
BRANCH   5   6
HETATM    6  C           1     -19.682  -4.241  -7.820  0.00  0.00     0.197 C 
HETATM    7  O           1     -19.744  -3.333  -8.677  0.00  0.00    -0.646 OA
HETATM    8  O           1     -18.609  -4.459  -7.217  0.00  0.00    -0.646 OA
ENDBRANCH   5   6
BRANCH   5   9
HETATM    9  C           1     -20.473  -6.480  -7.120  0.00  0.00     0.074 C 
BRANCH   9  10
HETATM   10  C           1     -20.858  -6.742  -5.696  0.00  0.00    -0.056 A 
HETATM   11  C           1     -20.935  -5.684  -4.791  0.00  0.00     0.010 A 
HETATM   12  C           1     -21.294  -5.926  -3.464  0.00  0.00     0.037 A 
HETATM   13  C           1     -21.574  -7.227  -3.045  0.00  0.00     0.065 A 
HETATM   14  C           1     -21.496  -8.285  -3.950  0.00  0.00     0.037 A 
HETATM   15  C           1     -21.138  -8.041  -5.277  0.00  0.00     0.010 A 
BRANCH  13  16
HETATM   16  O           1     -21.923  -7.463  -1.756  0.00  0.00    -0.361 OA
HETATM   17  H           1     -21.801  -6.639  -1.256  0.00  0.00     0.217 HD
ENDBRANCH  13  16
ENDBRANCH   9  10
ENDBRANCH   5   9
ENDBRANCH   2   5
BRANCH   1  18
HETATM   18  C           1     -23.918  -4.725  -9.849  0.00  0.00     0.275 C 
BRANCH  18  19
HETATM   19  C           1     -23.118  -4.315 -11.079  0.00  0.00     0.052 C 
BRANCH  19  20
HETATM   20  C           1     -23.520  -2.910 -11.503  0.00  0.00     0.105 C 
BRANCH  20  21
HETATM   21  C           1     -23.494  -2.810 -13.008  0.00  0.00     0.215 C 
HETATM   22  O           1     -24.451  -2.372 -13.601  0.00  0.00    -0.274 OA
HETATM   23  N           1     -22.386  -3.215 -13.702  0.00  0.00    -0.370 N 
HETATM   24  H           1     -21.584  -3.581 -13.207  0.00  0.00     0.159 HD
HETATM   25  H           1     -22.369  -3.147 -14.712  0.00  0.00     0.159 HD
ENDBRANCH  20  21
ENDBRANCH  19  20
ENDBRANCH  18  19
BRANCH  18  26
HETATM   26  N           1     -25.079  -3.791  -9.676  0.00  0.00    -0.066 N 
HETATM   27  H           1     -25.140  -3.153 -10.501  0.00  0.00     0.275 HD
HETATM   28  H           1     -24.945  -3.227  -8.807  0.00  0.00     0.275 HD
HETATM   29  H           1     -25.963  -4.344  -9.598  0.00  0.00     0.275 HD
ENDBRANCH  18  26
ENDBRANCH   1  18
TORSDOF 10
ENDMDL
MODEL 3
REMARK VINA RESULT:      -7.1      2.220      7.639
REMARK  10 active torsions:
REMARK  status: ('A' for Active; 'I' for Inactive)
REMARK       I    between atoms: C_3  and  N_4 
REMARK    1  A    between atoms: C_3  and  C_17 
REMARK    2  A    between atoms: N_4  and  C_12 
REMARK    3  A    between atoms: C_6  and  O_10 
REMARK    4  A    between atoms: C_11  and  C_12 
REMARK    5  A    between atoms: C_12  and  C_28 
REMARK    6  A    between atoms: C_13  and  C_28 
REMARK    7  A    between atoms: C_14  and  C_17 
REMARK    8  A    between atoms: C_14  and  C_25 
REMARK    9  A    between atoms: C_17  and  N_21 
REMARK       I    between atoms: N_23  and  C_24 
REMARK   10  A    between atoms: C_24  and  C_25 
ROOT
HETATM    1  C           1     -20.167  -5.289  -6.089  0.00  0.00     0.249 C 
HETATM    2  N           1     -20.067  -6.651  -6.182  0.00  0.00    -0.344 N 
HETATM    3  H           1     -20.025  -7.094  -7.090  0.00  0.00     0.163 HD
HETATM    4  O           1     -20.218  -4.759  -5.004  0.00  0.00    -0.271 OA
ENDROOT
BRANCH   2   5
HETATM    5  C           1     -20.021  -7.458  -4.978  0.00  0.00     0.189 C 
BRANCH   5   6
HETATM    6  C           1     -19.048  -8.594  -5.172  0.00  0.00     0.197 C 
HETATM    7  O           1     -18.705  -9.297  -4.197  0.00  0.00    -0.646 OA
HETATM    8  O           1     -18.584  -8.833  -6.309  0.00  0.00    -0.646 OA
ENDBRANCH   5   6
BRANCH   5   9
HETATM    9  C           1     -21.407  -8.018  -4.690  0.00  0.00     0.074 C 
BRANCH   9  10
HETATM   10  C           1     -21.683  -7.937  -3.221  0.00  0.00    -0.056 A 
HETATM   11  C           1     -21.675  -9.097  -2.446  0.00  0.00     0.010 A 
HETATM   12  C           1     -21.932  -9.022  -1.077  0.00  0.00     0.037 A 
HETATM   13  C           1     -22.197  -7.787  -0.483  0.00  0.00     0.065 A 
HETATM   14  C           1     -22.206  -6.628  -1.259  0.00  0.00     0.037 A 
HETATM   15  C           1     -21.948  -6.704  -2.628  0.00  0.00     0.010 A 
BRANCH  13  16
HETATM   16  O           1     -22.447  -7.714   0.847  0.00  0.00    -0.361 OA
HETATM   17  H           1     -21.916  -8.396   1.290  0.00  0.00     0.217 HD
ENDBRANCH  13  16
ENDBRANCH   9  10
ENDBRANCH   5   9
ENDBRANCH   2   5
BRANCH   1  18
HETATM   18  C           1     -20.215  -4.449  -7.343  0.00  0.00     0.275 C 
BRANCH  18  19
HETATM   19  C           1     -21.469  -3.584  -7.326  0.00  0.00     0.052 C 
BRANCH  19  20
HETATM   20  C           1     -22.660  -4.405  -7.800  0.00  0.00     0.105 C 
BRANCH  20  21
HETATM   21  C           1     -23.243  -3.779  -9.043  0.00  0.00     0.215 C 
HETATM   22  O           1     -22.588  -3.728 -10.057  0.00  0.00    -0.274 OA
HETATM   23  N           1     -24.512  -3.268  -9.022  0.00  0.00    -0.370 N 
HETATM   24  H           1     -25.061  -3.310  -8.174  0.00  0.00     0.159 HD
HETATM   25  H           1     -24.903  -2.848  -9.857  0.00  0.00     0.159 HD
ENDBRANCH  20  21
ENDBRANCH  19  20
ENDBRANCH  18  19
BRANCH  18  26
HETATM   26  N           1     -20.244  -5.346  -8.543  0.00  0.00    -0.066 N 
HETATM   27  H           1     -19.518  -6.091  -8.440  0.00  0.00     0.275 HD
HETATM   28  H           1     -20.048  -4.785  -9.402  0.00  0.00     0.275 HD
HETATM   29  H           1     -21.188  -5.789  -8.626  0.00  0.00     0.275 HD
ENDBRANCH  18  26
ENDBRANCH   1  18
TORSDOF 10
ENDMDL
MODEL 4
REMARK VINA RESULT:      -6.7      2.169      7.977
REMARK  10 active torsions:
REMARK  status: ('A' for Active; 'I' for Inactive)
REMARK       I    between atoms: C_3  and  N_4 
REMARK    1  A    between atoms: C_3  and  C_17 
REMARK    2  A    between atoms: N_4  and  C_12 
REMARK    3  A    between atoms: C_6  and  O_10 
REMARK    4  A    between atoms: C_11  and  C_12 
REMARK    5  A    between atoms: C_12  and  C_28 
REMARK    6  A    between atoms: C_13  and  C_28 
REMARK    7  A    between atoms: C_14  and  C_17 
REMARK    8  A    between atoms: C_14  and  C_25 
REMARK    9  A    between atoms: C_17  and  N_21 
REMARK       I    between atoms: N_23  and  C_24 
REMARK   10  A    between atoms: C_24  and  C_25 
ROOT
HETATM    1  C           1     -20.692  -5.274  -6.832  0.00  0.00     0.249 C 
HETATM    2  N           1     -20.979  -5.047  -5.512  0.00  0.00    -0.344 N 
HETATM    3  H           1     -21.140  -4.103  -5.186  0.00  0.00     0.163 HD
HETATM    4  O           1     -20.499  -6.401  -7.223  0.00  0.00    -0.271 OA
ENDROOT
BRANCH   2   5
HETATM    5  C           1     -21.053  -6.158  -4.585  0.00  0.00     0.189 C 
BRANCH   5   6
HETATM    6  C           1     -22.315  -6.943  -4.840  0.00  0.00     0.197 C 
HETATM    7  O           1     -23.419  -6.357  -4.880  0.00  0.00    -0.646 OA
HETATM    8  O           1     -22.258  -8.180  -5.013  0.00  0.00    -0.646 OA
ENDBRANCH   5   6
BRANCH   5   9
HETATM    9  C           1     -21.063  -5.627  -3.157  0.00  0.00     0.074 C 
BRANCH   9  10
HETATM   10  C           1     -21.253  -6.765  -2.203  0.00  0.00    -0.056 A 
HETATM   11  C           1     -20.380  -7.852  -2.233  0.00  0.00     0.010 A 
HETATM   12  C           1     -20.555  -8.913  -1.344  0.00  0.00     0.037 A 
HETATM   13  C           1     -21.605  -8.885  -0.425  0.00  0.00     0.065 A 
HETATM   14  C           1     -22.478  -7.798  -0.396  0.00  0.00     0.037 A 
HETATM   15  C           1     -22.301  -6.738  -1.285  0.00  0.00     0.010 A 
BRANCH  13  16
HETATM   16  O           1     -21.776  -9.915   0.439  0.00  0.00    -0.361 OA
HETATM   17  H           1     -20.942 -10.047   0.919  0.00  0.00     0.217 HD
ENDBRANCH  13  16
ENDBRANCH   9  10
ENDBRANCH   5   9
ENDBRANCH   2   5
BRANCH   1  18
HETATM   18  C           1     -20.616  -4.116  -7.798  0.00  0.00     0.275 C 
BRANCH  18  19
HETATM   19  C           1     -21.589  -4.348  -8.946  0.00  0.00     0.052 C 
BRANCH  19  20
HETATM   20  C           1     -23.015  -4.142  -8.454  0.00  0.00     0.105 C 
BRANCH  20  21
HETATM   21  C           1     -23.978  -4.353  -9.596  0.00  0.00     0.215 C 
HETATM   22  O           1     -23.705  -5.127 -10.482  0.00  0.00    -0.274 OA
HETATM   23  N           1     -25.163  -3.668  -9.628  0.00  0.00    -0.370 N 
HETATM   24  H           1     -25.393  -3.019  -8.887  0.00  0.00     0.159 HD
HETATM   25  H           1     -25.809  -3.810 -10.395  0.00  0.00     0.159 HD
ENDBRANCH  20  21
ENDBRANCH  19  20
ENDBRANCH  18  19
BRANCH  18  26
HETATM   26  N           1     -19.222  -4.010  -8.339  0.00  0.00    -0.066 N 
HETATM   27  H           1     -19.088  -4.712  -9.102  0.00  0.00     0.275 HD
HETATM   28  H           1     -18.535  -4.193  -7.573  0.00  0.00     0.275 HD
HETATM   29  H           1     -19.068  -3.048  -8.722  0.00  0.00     0.275 HD
ENDBRANCH  18  26
ENDBRANCH   1  18
TORSDOF 10
ENDMDL
MODEL 5
REMARK VINA RESULT:      -6.6      2.543      8.142
REMARK  10 active torsions:
REMARK  status: ('A' for Active; 'I' for Inactive)
REMARK       I    between atoms: C_3  and  N_4 
REMARK    1  A    between atoms: C_3  and  C_17 
REMARK    2  A    between atoms: N_4  and  C_12 
REMARK    3  A    between atoms: C_6  and  O_10 
REMARK    4  A    between atoms: C_11  and  C_12 
REMARK    5  A    between atoms: C_12  and  C_28 
REMARK    6  A    between atoms: C_13  and  C_28 
REMARK    7  A    between atoms: C_14  and  C_17 
REMARK    8  A    between atoms: C_14  and  C_25 
REMARK    9  A    between atoms: C_17  and  N_21 
REMARK       I    between atoms: N_23  and  C_24 
REMARK   10  A    between atoms: C_24  and  C_25 
ROOT
HETATM    1  C           1     -21.036  -6.156  -6.193  0.00  0.00     0.249 C 
HETATM    2  N           1     -20.668  -7.471  -6.096  0.00  0.00    -0.344 N 
HETATM    3  H           1     -20.658  -8.055  -6.922  0.00  0.00     0.163 HD
HETATM    4  O           1     -21.048  -5.458  -5.206  0.00  0.00    -0.271 OA
ENDROOT
BRANCH   2   5
HETATM    5  C           1     -20.294  -8.027  -4.811  0.00  0.00     0.189 C 
BRANCH   5   6
HETATM    6  C           1     -19.027  -8.832  -4.961  0.00  0.00     0.197 C 
HETATM    7  O           1     -18.657  -9.210  -6.093  0.00  0.00    -0.646 OA
HETATM    8  O           1     -18.348  -9.121  -3.952  0.00  0.00    -0.646 OA
ENDBRANCH   5   6
BRANCH   5   9
HETATM    9  C           1     -21.413  -8.927  -4.303  0.00  0.00     0.074 C 
BRANCH   9  10
HETATM   10  C           1     -21.659  -8.649  -2.853  0.00  0.00    -0.056 A 
HETATM   11  C           1     -21.703  -7.332  -2.395  0.00  0.00     0.010 A 
HETATM   12  C           1     -21.933  -7.071  -1.044  0.00  0.00     0.037 A 
HETATM   13  C           1     -22.118  -8.127  -0.151  0.00  0.00     0.065 A 
HETATM   14  C           1     -22.073  -9.444  -0.610  0.00  0.00     0.037 A 
HETATM   15  C           1     -21.843  -9.704  -1.961  0.00  0.00     0.010 A 
BRANCH  13  16
HETATM   16  O           1     -22.340  -7.875   1.162  0.00  0.00    -0.361 OA
HETATM   17  H           1     -22.056  -8.653   1.670  0.00  0.00     0.217 HD
ENDBRANCH  13  16
ENDBRANCH   9  10
ENDBRANCH   5   9
ENDBRANCH   2   5
BRANCH   1  18
HETATM   18  C           1     -21.425  -5.577  -7.532  0.00  0.00     0.275 C 
BRANCH  18  19
HETATM   19  C           1     -20.177  -5.086  -8.255  0.00  0.00     0.052 C 
BRANCH  19  20
HETATM   20  C           1     -20.505  -3.820  -9.033  0.00  0.00     0.105 C 
BRANCH  20  21
HETATM   21  C           1     -20.263  -4.055 -10.504  0.00  0.00     0.215 C 
HETATM   22  O           1     -19.693  -5.055 -10.870  0.00  0.00    -0.274 OA
HETATM   23  N           1     -20.691  -3.136 -11.424  0.00  0.00    -0.370 N 
HETATM   24  H           1     -21.169  -2.299 -11.119  0.00  0.00     0.159 HD
HETATM   25  H           1     -20.528  -3.295 -12.411  0.00  0.00     0.159 HD
ENDBRANCH  20  21
ENDBRANCH  19  20
ENDBRANCH  18  19
BRANCH  18  26
HETATM   26  N           1     -22.365  -4.428  -7.324  0.00  0.00    -0.066 N 
HETATM   27  H           1     -21.956  -3.562  -7.741  0.00  0.00     0.275 HD
HETATM   28  H           1     -22.518  -4.284  -6.301  0.00  0.00     0.275 HD
HETATM   29  H           1     -23.280  -4.638  -7.786  0.00  0.00     0.275 HD
ENDBRANCH  18  26
ENDBRANCH   1  18
TORSDOF 10
ENDMDL
MODEL 6
REMARK VINA RESULT:      -6.4      3.819      8.976
REMARK  10 active torsions:
REMARK  status: ('A' for Active; 'I' for Inactive)
REMARK       I    between atoms: C_3  and  N_4 
REMARK    1  A    between atoms: C_3  and  C_17 
REMARK    2  A    between atoms: N_4  and  C_12 
REMARK    3  A    between atoms: C_6  and  O_10 
REMARK    4  A    between atoms: C_11  and  C_12 
REMARK    5  A    between atoms: C_12  and  C_28 
REMARK    6  A    between atoms: C_13  and  C_28 
REMARK    7  A    between atoms: C_14  and  C_17 
REMARK    8  A    between atoms: C_14  and  C_25 
REMARK    9  A    between atoms: C_17  and  N_21 
REMARK       I    between atoms: N_23  and  C_24 
REMARK   10  A    between atoms: C_24  and  C_25 
ROOT
HETATM    1  C           1     -21.216  -9.448  -3.612  0.00  0.00     0.249 C 
HETATM    2  N           1     -21.010  -8.589  -2.566  0.00  0.00    -0.344 N 
HETATM    3  H           1     -20.230  -7.945  -2.588  0.00  0.00     0.163 HD
HETATM    4  O           1     -22.148 -10.218  -3.587  0.00  0.00    -0.271 OA
ENDROOT
BRANCH   2   5
HETATM    5  C           1     -21.909  -8.602  -1.429  0.00  0.00     0.189 C 
BRANCH   5   6
HETATM    6  C           1     -22.321  -7.190  -1.098  0.00  0.00     0.197 C 
HETATM    7  O           1     -21.989  -6.248  -1.850  0.00  0.00    -0.646 OA
HETATM    8  O           1     -22.996  -6.960  -0.070  0.00  0.00    -0.646 OA
ENDBRANCH   5   6
BRANCH   5   9
HETATM    9  C           1     -21.201  -9.220  -0.231  0.00  0.00     0.074 C 
BRANCH   9  10
HETATM   10  C           1     -21.845 -10.528   0.111  0.00  0.00    -0.056 A 
HETATM   11  C           1     -21.101 -11.530   0.734  0.00  0.00     0.010 A 
HETATM   12  C           1     -21.701 -12.748   1.052  0.00  0.00     0.037 A 
HETATM   13  C           1     -23.045 -12.964   0.748  0.00  0.00     0.065 A 
HETATM   14  C           1     -23.789 -11.963   0.124  0.00  0.00     0.037 A 
HETATM   15  C           1     -23.188 -10.744  -0.194  0.00  0.00     0.010 A 
BRANCH  13  16
HETATM   16  O           1     -23.628 -14.148   1.057  0.00  0.00    -0.361 OA
HETATM   17  H           1     -24.532 -14.139   0.701  0.00  0.00     0.217 HD
ENDBRANCH  13  16
ENDBRANCH   9  10
ENDBRANCH   5   9
ENDBRANCH   2   5
BRANCH   1  18
HETATM   18  C           1     -20.281  -9.434  -4.796  0.00  0.00     0.275 C 
BRANCH  18  19
HETATM   19  C           1     -19.803  -8.010  -5.049  0.00  0.00     0.052 C 
BRANCH  19  20
HETATM   20  C           1     -20.772  -7.307  -5.989  0.00  0.00     0.105 C 
BRANCH  20  21
HETATM   21  C           1     -21.384  -6.120  -5.288  0.00  0.00     0.215 C 
HETATM   22  O           1     -20.760  -5.090  -5.188  0.00  0.00    -0.274 OA
HETATM   23  N           1     -22.645  -6.209  -4.765  0.00  0.00    -0.370 N 
HETATM   24  H           1     -23.168  -7.070  -4.848  0.00  0.00     0.159 HD
HETATM   25  H           1     -23.056  -5.411  -4.295  0.00  0.00     0.159 HD
ENDBRANCH  20  21
ENDBRANCH  19  20
ENDBRANCH  18  19
BRANCH  18  26
HETATM   26  N           1     -21.003  -9.940  -6.009  0.00  0.00    -0.066 N 
HETATM   27  H           1     -21.635  -9.193  -6.377  0.00  0.00     0.275 HD
HETATM   28  H           1     -21.570 -10.780  -5.752  0.00  0.00     0.275 HD
HETATM   29  H           1     -20.308 -10.201  -6.746  0.00  0.00     0.275 HD
ENDBRANCH  18  26
ENDBRANCH   1  18
TORSDOF 10
ENDMDL
MODEL 7
REMARK VINA RESULT:      -6.4      2.334      8.005
REMARK  10 active torsions:
REMARK  status: ('A' for Active; 'I' for Inactive)
REMARK       I    between atoms: C_3  and  N_4 
REMARK    1  A    between atoms: C_3  and  C_17 
REMARK    2  A    between atoms: N_4  and  C_12 
REMARK    3  A    between atoms: C_6  and  O_10 
REMARK    4  A    between atoms: C_11  and  C_12 
REMARK    5  A    between atoms: C_12  and  C_28 
REMARK    6  A    between atoms: C_13  and  C_28 
REMARK    7  A    between atoms: C_14  and  C_17 
REMARK    8  A    between atoms: C_14  and  C_25 
REMARK    9  A    between atoms: C_17  and  N_21 
REMARK       I    between atoms: N_23  and  C_24 
REMARK   10  A    between atoms: C_24  and  C_25 
ROOT
HETATM    1  C           1     -20.468  -7.598  -5.522  0.00  0.00     0.249 C 
HETATM    2  N           1     -20.852  -8.330  -4.430  0.00  0.00    -0.344 N 
HETATM    3  H           1     -21.744  -8.148  -3.988  0.00  0.00     0.163 HD
HETATM    4  O           1     -19.403  -7.815  -6.050  0.00  0.00    -0.271 OA
ENDROOT
BRANCH   2   5
HETATM    5  C           1     -19.982  -9.364  -3.908  0.00  0.00     0.189 C 
BRANCH   5   6
HETATM    6  C           1     -20.753 -10.655  -3.784  0.00  0.00     0.197 C 
HETATM    7  O           1     -20.177 -11.693  -3.392  0.00  0.00    -0.646 OA
HETATM    8  O           1     -21.969 -10.686  -4.073  0.00  0.00    -0.646 OA
ENDBRANCH   5   6
BRANCH   5   9
HETATM    9  C           1     -19.463  -8.947  -2.538  0.00  0.00     0.074 C 
BRANCH   9  10
HETATM   10  C           1     -20.618  -8.592  -1.654  0.00  0.00    -0.056 A 
HETATM   11  C           1     -21.208  -7.331  -1.753  0.00  0.00     0.010 A 
HETATM   12  C           1     -22.284  -6.999  -0.930  0.00  0.00     0.037 A 
HETATM   13  C           1     -22.770  -7.927  -0.008  0.00  0.00     0.065 A 
HETATM   14  C           1     -22.180  -9.187   0.091  0.00  0.00     0.037 A 
HETATM   15  C           1     -21.104  -9.518  -0.733  0.00  0.00     0.010 A 
BRANCH  13  16
HETATM   16  O           1     -23.816  -7.605   0.792  0.00  0.00    -0.361 OA
HETATM   17  H           1     -24.591  -7.452   0.226  0.00  0.00     0.217 HD
ENDBRANCH  13  16
ENDBRANCH   9  10
ENDBRANCH   5   9
ENDBRANCH   2   5
BRANCH   1  18
HETATM   18  C           1     -21.375  -6.521  -6.065  0.00  0.00     0.275 C 
BRANCH  18  19
HETATM   19  C           1     -20.537  -5.454  -6.758  0.00  0.00     0.052 C 
BRANCH  19  20
HETATM   20  C           1     -21.367  -4.189  -6.932  0.00  0.00     0.105 C 
BRANCH  20  21
HETATM   21  C           1     -22.344  -4.380  -8.066  0.00  0.00     0.215 C 
HETATM   22  O           1     -21.954  -4.764  -9.142  0.00  0.00    -0.274 OA
HETATM   23  N           1     -23.674  -4.117  -7.874  0.00  0.00    -0.370 N 
HETATM   24  H           1     -24.002  -3.795  -6.973  0.00  0.00     0.159 HD
HETATM   25  H           1     -24.329  -4.245  -8.635  0.00  0.00     0.159 HD
ENDBRANCH  20  21
ENDBRANCH  19  20
ENDBRANCH  18  19
BRANCH  18  26
HETATM   26  N           1     -22.142  -5.899  -4.937  0.00  0.00    -0.066 N 
HETATM   27  H           1     -22.753  -5.137  -5.309  0.00  0.00     0.275 HD
HETATM   28  H           1     -21.474  -5.500  -4.240  0.00  0.00     0.275 HD
HETATM   29  H           1     -22.735  -6.626  -4.475  0.00  0.00     0.275 HD
ENDBRANCH  18  26
ENDBRANCH   1  18
TORSDOF 10
ENDMDL
MODEL 8
REMARK VINA RESULT:      -6.1      5.877      9.036
REMARK  10 active torsions:
REMARK  status: ('A' for Active; 'I' for Inactive)
REMARK       I    between atoms: C_3  and  N_4 
REMARK    1  A    between atoms: C_3  and  C_17 
REMARK    2  A    between atoms: N_4  and  C_12 
REMARK    3  A    between atoms: C_6  and  O_10 
REMARK    4  A    between atoms: C_11  and  C_12 
REMARK    5  A    between atoms: C_12  and  C_28 
REMARK    6  A    between atoms: C_13  and  C_28 
REMARK    7  A    between atoms: C_14  and  C_17 
REMARK    8  A    between atoms: C_14  and  C_25 
REMARK    9  A    between atoms: C_17  and  N_21 
REMARK       I    between atoms: N_23  and  C_24 
REMARK   10  A    between atoms: C_24  and  C_25 
ROOT
HETATM    1  C           1     -19.950  -9.642  -3.126  0.00  0.00     0.249 C 
HETATM    2  N           1     -20.139  -8.561  -2.307  0.00  0.00    -0.344 N 
HETATM    3  H           1     -19.351  -7.987  -2.038  0.00  0.00     0.163 HD
HETATM    4  O           1     -20.892 -10.328  -3.448  0.00  0.00    -0.271 OA
ENDROOT
BRANCH   2   5
HETATM    5  C           1     -21.469  -8.239  -1.827  0.00  0.00     0.189 C 
BRANCH   5   6
HETATM    6  C           1     -21.779  -6.795  -2.135  0.00  0.00     0.197 C 
HETATM    7  O           1     -22.435  -6.109  -1.321  0.00  0.00    -0.646 OA
HETATM    8  O           1     -21.379  -6.284  -3.204  0.00  0.00    -0.646 OA
ENDBRANCH   5   6
BRANCH   5   9
HETATM    9  C           1     -21.531  -8.464  -0.322  0.00  0.00     0.074 C 
BRANCH   9  10
HETATM   10  C           1     -22.058  -9.837  -0.043  0.00  0.00    -0.056 A 
HETATM   11  C           1     -21.211 -10.815   0.479  0.00  0.00     0.010 A 
HETATM   12  C           1     -21.700 -12.095   0.739  0.00  0.00     0.037 A 
HETATM   13  C           1     -23.037 -12.397   0.476  0.00  0.00     0.065 A 
HETATM   14  C           1     -23.884 -11.420  -0.047  0.00  0.00     0.037 A 
HETATM   15  C           1     -23.393 -10.139  -0.307  0.00  0.00     0.010 A 
BRANCH  13  16
HETATM   16  O           1     -23.513 -13.641   0.728  0.00  0.00    -0.361 OA
HETATM   17  H           1     -24.425 -13.686   0.396  0.00  0.00     0.217 HD
ENDBRANCH  13  16
ENDBRANCH   9  10
ENDBRANCH   5   9
ENDBRANCH   2   5
BRANCH   1  18
HETATM   18  C           1     -18.566  -9.976  -3.627  0.00  0.00     0.275 C 
BRANCH  18  19
HETATM   19  C           1     -17.528  -9.357  -2.700  0.00  0.00     0.052 C 
BRANCH  19  20
HETATM   20  C           1     -16.132  -9.654  -3.230  0.00  0.00     0.105 C 
BRANCH  20  21
HETATM   21  C           1     -15.627 -10.943  -2.629  0.00  0.00     0.215 C 
HETATM   22  O           1     -14.935 -11.685  -3.285  0.00  0.00    -0.274 OA
HETATM   23  N           1     -15.954 -11.272  -1.341  0.00  0.00    -0.370 N 
HETATM   24  H           1     -16.533 -10.652  -0.791  0.00  0.00     0.159 HD
HETATM   25  H           1     -15.614 -12.137  -0.939  0.00  0.00     0.159 HD
ENDBRANCH  20  21
ENDBRANCH  19  20
ENDBRANCH  18  19
BRANCH  18  26
HETATM   26  N           1     -18.390  -9.427  -5.011  0.00  0.00    -0.066 N 
HETATM   27  H           1     -17.408  -9.587  -5.328  0.00  0.00     0.275 HD
HETATM   28  H           1     -18.592  -8.401  -5.007  0.00  0.00     0.275 HD
HETATM   29  H           1     -19.050  -9.908  -5.664  0.00  0.00     0.275 HD
ENDBRANCH  18  26
ENDBRANCH   1  18
TORSDOF 10
ENDMDL
MODEL 9
REMARK VINA RESULT:      -6.1      5.865      9.118
REMARK  10 active torsions:
REMARK  status: ('A' for Active; 'I' for Inactive)
REMARK       I    between atoms: C_3  and  N_4 
REMARK    1  A    between atoms: C_3  and  C_17 
REMARK    2  A    between atoms: N_4  and  C_12 
REMARK    3  A    between atoms: C_6  and  O_10 
REMARK    4  A    between atoms: C_11  and  C_12 
REMARK    5  A    between atoms: C_12  and  C_28 
REMARK    6  A    between atoms: C_13  and  C_28 
REMARK    7  A    between atoms: C_14  and  C_17 
REMARK    8  A    between atoms: C_14  and  C_25 
REMARK    9  A    between atoms: C_17  and  N_21 
REMARK       I    between atoms: N_23  and  C_24 
REMARK   10  A    between atoms: C_24  and  C_25 
ROOT
HETATM    1  C           1     -19.876  -9.179  -3.182  0.00  0.00     0.249 C 
HETATM    2  N           1     -20.202  -8.169  -2.316  0.00  0.00    -0.344 N 
HETATM    3  H           1     -19.513  -7.470  -2.073  0.00  0.00     0.163 HD
HETATM    4  O           1     -20.698 -10.015  -3.472  0.00  0.00    -0.271 OA
ENDROOT
BRANCH   2   5
HETATM    5  C           1     -21.534  -8.104  -1.749  0.00  0.00     0.189 C 
BRANCH   5   6
HETATM    6  C           1     -22.096  -6.717  -1.944  0.00  0.00     0.197 C 
HETATM    7  O           1     -22.495  -6.059  -0.959  0.00  0.00    -0.646 OA
HETATM    8  O           1     -22.162  -6.226  -3.092  0.00  0.00    -0.646 OA
ENDBRANCH   5   6
BRANCH   5   9
HETATM    9  C           1     -21.467  -8.420  -0.260  0.00  0.00     0.074 C 
BRANCH   9  10
HETATM   10  C           1     -22.009  -9.794  -0.017  0.00  0.00    -0.056 A 
HETATM   11  C           1     -23.349 -10.072  -0.290  0.00  0.00     0.010 A 
HETATM   12  C           1     -23.856 -11.352  -0.064  0.00  0.00     0.037 A 
HETATM   13  C           1     -23.022 -12.354   0.436  0.00  0.00     0.065 A 
HETATM   14  C           1     -21.683 -12.075   0.710  0.00  0.00     0.037 A 
HETATM   15  C           1     -21.178 -10.795   0.483  0.00  0.00     0.010 A 
BRANCH  13  16
HETATM   16  O           1     -23.514 -13.597   0.656  0.00  0.00    -0.361 OA
HETATM   17  H           1     -23.402 -14.113  -0.160  0.00  0.00     0.217 HD
ENDBRANCH  13  16
ENDBRANCH   9  10
ENDBRANCH   5   9
ENDBRANCH   2   5
BRANCH   1  18
HETATM   18  C           1     -18.489  -9.247  -3.773  0.00  0.00     0.275 C 
BRANCH  18  19
HETATM   19  C           1     -18.442 -10.339  -4.834  0.00  0.00     0.052 C 
BRANCH  19  20
HETATM   20  C           1     -17.605  -9.867  -6.014  0.00  0.00     0.105 C 
BRANCH  20  21
HETATM   21  C           1     -16.173 -10.305  -5.825  0.00  0.00     0.215 C 
HETATM   22  O           1     -15.423  -9.640  -5.151  0.00  0.00    -0.274 OA
HETATM   23  N           1     -15.724 -11.455  -6.416  0.00  0.00    -0.370 N 
HETATM   24  H           1     -16.352 -12.012  -6.980  0.00  0.00     0.159 HD
HETATM   25  H           1     -14.764 -11.748  -6.287  0.00  0.00     0.159 HD
ENDBRANCH  20  21
ENDBRANCH  19  20
ENDBRANCH  18  19
BRANCH  18  26
HETATM   26  N           1     -17.500  -9.560  -2.691  0.00  0.00    -0.066 N 
HETATM   27  H           1     -16.965  -8.697  -2.445  0.00  0.00     0.275 HD
HETATM   28  H           1     -16.838 -10.297  -3.026  0.00  0.00     0.275 HD
HETATM   29  H           1     -18.007  -9.908  -1.844  0.00  0.00     0.275 HD
ENDBRANCH  18  26
ENDBRANCH   1  18
TORSDOF 10
ENDMDL
