MODEL 1
REMARK VINA RESULT:      -7.1      0.000      0.000
REMARK  8 active torsions:
REMARK  status: ('A' for Active; 'I' for Inactive)
REMARK    1  A    between atoms: C_1  and  O_8 
REMARK    2  A    between atoms: C_1  and  C_9 
REMARK    3  A    between atoms: N_4  and  C_21 
REMARK    4  A    between atoms: C_7  and  C_12 
REMARK    5  A    between atoms: C_9  and  C_14 
REMARK    6  A    between atoms: C_9  and  N_19 
REMARK    7  A    between atoms: C_12  and  C_21 
REMARK       I    between atoms: N_19  and  C_20 
REMARK    8  A    between atoms: C_20  and  C_21 
ROOT
HETATM    1  O           1     -36.476  -1.531 -12.306  0.00  0.00    -0.271 OA
HETATM    2  H           1     -34.105  -1.283 -14.345  0.00  0.00     0.163 HD
HETATM    3  N           1     -35.045  -1.180 -13.984  0.00  0.00    -0.343 N 
HETATM    4  C           1     -35.355  -1.654 -12.738  0.00  0.00     0.249 C 
ENDROOT
BRANCH   4   5
HETATM    5  C           1     -34.295  -2.329 -11.901  0.00  0.00     0.275 C 
BRANCH   5   6
HETATM    6  N           1     -33.969  -1.467 -10.717  0.00  0.00    -0.066 N 
HETATM    7  H           1     -34.447  -1.845  -9.868  0.00  0.00     0.275 HD
HETATM    8  H           1     -32.936  -1.465 -10.562  0.00  0.00     0.275 HD
HETATM    9  H           1     -34.298  -0.492 -10.896  0.00  0.00     0.275 HD
ENDBRANCH   5   6
BRANCH   5  10
HETATM   10  C           1     -34.810  -3.679 -11.420  0.00  0.00     0.046 C 
BRANCH  10  11
HETATM   11  C           1     -33.639  -4.524 -10.933  0.00  0.00    -0.020 C 
HETATM   12  C           1     -32.530  -4.504 -11.976  0.00  0.00     0.009 C 
HETATM   13  C           1     -34.105  -5.958 -10.714  0.00  0.00     0.009 C 
ENDBRANCH  10  11
ENDBRANCH   5  10
ENDBRANCH   4   5
BRANCH   3  14
HETATM   14  C           1     -36.064  -0.532 -14.786  0.00  0.00     0.214 C 
BRANCH  14  15
HETATM   15  C           1     -35.924   0.980 -14.658  0.00  0.00     0.147 C 
HETATM   16  C           1     -34.567   1.314 -14.054  0.00  0.00     0.042 C 
BRANCH  15  17
HETATM   17  O           1     -36.029   1.567 -15.927  0.00  0.00    -0.393 OA
HETATM   18  H           1     -35.156   1.624 -16.276  0.00  0.00     0.210 HD
ENDBRANCH  15  17
ENDBRANCH  14  15
BRANCH  14  19
HETATM   19  C           1     -35.895  -0.931 -16.231  0.00  0.00     0.199 C 
HETATM   20  O           1     -34.802  -1.390 -16.629  0.00  0.00    -0.646 OA
HETATM   21  O           1     -36.848  -0.804 -17.031  0.00  0.00    -0.646 OA
ENDBRANCH  14  19
ENDBRANCH   3  14
TORSDOF 8
ENDMDL
MODEL 2
REMARK VINA RESULT:      -6.5     12.676     14.527
REMARK  8 active torsions:
REMARK  status: ('A' for Active; 'I' for Inactive)
REMARK    1  A    between atoms: C_1  and  O_8 
REMARK    2  A    between atoms: C_1  and  C_9 
REMARK    3  A    between atoms: N_4  and  C_21 
REMARK    4  A    between atoms: C_7  and  C_12 
REMARK    5  A    between atoms: C_9  and  C_14 
REMARK    6  A    between atoms: C_9  and  N_19 
REMARK    7  A    between atoms: C_12  and  C_21 
REMARK       I    between atoms: N_19  and  C_20 
REMARK    8  A    between atoms: C_20  and  C_21 
ROOT
HETATM    1  O           1     -21.735  -3.556  -7.170  0.00  0.00    -0.271 OA
HETATM    2  H           1     -22.095  -5.697  -9.434  0.00  0.00     0.163 HD
HETATM    3  N           1     -22.144  -4.791  -8.984  0.00  0.00    -0.343 N 
HETATM    4  C           1     -21.678  -4.636  -7.707  0.00  0.00     0.249 C 
ENDROOT
BRANCH   4   5
HETATM    5  C           1     -21.092  -5.815  -6.968  0.00  0.00     0.275 C 
BRANCH   5   6
HETATM    6  N           1     -19.753  -6.155  -7.554  0.00  0.00    -0.066 N 
HETATM    7  H           1     -18.998  -5.795  -6.928  0.00  0.00     0.275 HD
HETATM    8  H           1     -19.665  -7.192  -7.642  0.00  0.00     0.275 HD
HETATM    9  H           1     -19.664  -5.715  -8.496  0.00  0.00     0.275 HD
ENDBRANCH   5   6
BRANCH   5  10
HETATM   10  C           1     -20.928  -5.463  -5.496  0.00  0.00     0.046 C 
BRANCH  10  11
HETATM   11  C           1     -21.807  -6.380  -4.654  0.00  0.00    -0.020 C 
HETATM   12  C           1     -21.461  -6.201  -3.181  0.00  0.00     0.009 C 
HETATM   13  C           1     -21.566  -7.828  -5.060  0.00  0.00     0.009 C 
ENDBRANCH  10  11
ENDBRANCH   5  10
ENDBRANCH   4   5
BRANCH   3  14
HETATM   14  C           1     -22.706  -3.658  -9.693  0.00  0.00     0.214 C 
BRANCH  14  15
HETATM   15  C           1     -22.136  -3.609 -11.105  0.00  0.00     0.147 C 
HETATM   16  C           1     -20.615  -3.659 -11.040  0.00  0.00     0.042 C 
BRANCH  15  17
HETATM   17  O           1     -22.609  -4.708 -11.837  0.00  0.00    -0.393 OA
HETATM   18  H           1     -22.491  -4.500 -12.748  0.00  0.00     0.210 HD
ENDBRANCH  15  17
ENDBRANCH  14  15
BRANCH  14  19
HETATM   19  C           1     -24.206  -3.802  -9.761  0.00  0.00     0.199 C 
HETATM   20  O           1     -24.717  -4.919  -9.996  0.00  0.00    -0.646 OA
HETATM   21  O           1     -24.939  -2.805  -9.582  0.00  0.00    -0.646 OA
ENDBRANCH  14  19
ENDBRANCH   3  14
TORSDOF 8
ENDMDL
MODEL 3
REMARK VINA RESULT:      -5.7      3.914      5.898
REMARK  8 active torsions:
REMARK  status: ('A' for Active; 'I' for Inactive)
REMARK    1  A    between atoms: C_1  and  O_8 
REMARK    2  A    between atoms: C_1  and  C_9 
REMARK    3  A    between atoms: N_4  and  C_21 
REMARK    4  A    between atoms: C_7  and  C_12 
REMARK    5  A    between atoms: C_9  and  C_14 
REMARK    6  A    between atoms: C_9  and  N_19 
REMARK    7  A    between atoms: C_12  and  C_21 
REMARK       I    between atoms: N_19  and  C_20 
REMARK    8  A    between atoms: C_20  and  C_21 
ROOT
HETATM    1  O           1     -34.994  -4.925 -15.444  0.00  0.00    -0.271 OA
HETATM    2  H           1     -32.387  -3.670 -14.231  0.00  0.00     0.163 HD
HETATM    3  N           1     -33.337  -4.020 -14.252  0.00  0.00    -0.343 N 
HETATM    4  C           1     -33.861  -4.506 -15.419  0.00  0.00     0.249 C 
ENDROOT
BRANCH   4   5
HETATM    5  C           1     -33.024  -4.521 -16.675  0.00  0.00     0.275 C 
BRANCH   5   6
HETATM    6  N           1     -33.175  -3.212 -17.391  0.00  0.00    -0.066 N 
HETATM    7  H           1     -34.167  -2.890 -17.323  0.00  0.00     0.275 HD
HETATM    8  H           1     -32.548  -2.500 -16.951  0.00  0.00     0.275 HD
HETATM    9  H           1     -32.917  -3.333 -18.396  0.00  0.00     0.275 HD
ENDBRANCH   5   6
BRANCH   5  10
HETATM   10  C           1     -31.561  -4.734 -16.308  0.00  0.00     0.046 C 
BRANCH  10  11
HETATM   11  C           1     -30.944  -5.755 -17.256  0.00  0.00    -0.020 C 
HETATM   12  C           1     -31.955  -6.857 -17.542  0.00  0.00     0.009 C 
HETATM   13  C           1     -29.703  -6.360 -16.611  0.00  0.00     0.009 C 
ENDBRANCH  10  11
ENDBRANCH   5  10
ENDBRANCH   4   5
BRANCH   3  14
HETATM   14  C           1     -34.141  -4.006 -13.046  0.00  0.00     0.214 C 
BRANCH  14  15
HETATM   15  C           1     -33.297  -4.475 -11.868  0.00  0.00     0.147 C 
HETATM   16  C           1     -33.979  -5.660 -11.195  0.00  0.00     0.042 C 
BRANCH  15  17
HETATM   17  O           1     -32.030  -4.863 -12.326  0.00  0.00    -0.393 OA
HETATM   18  H           1     -31.937  -4.517 -13.197  0.00  0.00     0.210 HD
ENDBRANCH  15  17
ENDBRANCH  14  15
BRANCH  14  19
HETATM   19  C           1     -34.633  -2.604 -12.786  0.00  0.00     0.199 C 
HETATM   20  O           1     -35.027  -1.893 -13.737  0.00  0.00    -0.646 OA
HETATM   21  O           1     -34.646  -2.152 -11.620  0.00  0.00    -0.646 OA
ENDBRANCH  14  19
ENDBRANCH   3  14
TORSDOF 8
ENDMDL
MODEL 4
REMARK VINA RESULT:      -5.6     12.582     14.408
REMARK  8 active torsions:
REMARK  status: ('A' for Active; 'I' for Inactive)
REMARK    1  A    between atoms: C_1  and  O_8 
REMARK    2  A    between atoms: C_1  and  C_9 
REMARK    3  A    between atoms: N_4  and  C_21 
REMARK    4  A    between atoms: C_7  and  C_12 
REMARK    5  A    between atoms: C_9  and  C_14 
REMARK    6  A    between atoms: C_9  and  N_19 
REMARK    7  A    between atoms: C_12  and  C_21 
REMARK       I    between atoms: N_19  and  C_20 
REMARK    8  A    between atoms: C_20  and  C_21 
ROOT
HETATM    1  O           1     -20.686  -5.355  -8.599  0.00  0.00    -0.271 OA
HETATM    2  H           1     -23.254  -3.633  -9.127  0.00  0.00     0.163 HD
HETATM    3  N           1     -22.455  -4.215  -9.345  0.00  0.00    -0.343 N 
HETATM    4  C           1     -21.639  -4.660  -8.340  0.00  0.00     0.249 C 
ENDROOT
BRANCH   4   5
HETATM    5  C           1     -21.932  -4.284  -6.908  0.00  0.00     0.275 C 
BRANCH   5   6
HETATM    6  N           1     -23.350  -4.645  -6.577  0.00  0.00    -0.066 N 
HETATM    7  H           1     -23.997  -4.152  -7.232  0.00  0.00     0.275 HD
HETATM    8  H           1     -23.478  -5.678  -6.674  0.00  0.00     0.275 HD
HETATM    9  H           1     -23.562  -4.358  -5.595  0.00  0.00     0.275 HD
ENDBRANCH   5   6
BRANCH   5  10
HETATM   10  C           1     -20.987  -5.036  -5.981  0.00  0.00     0.046 C 
BRANCH  10  11
HETATM   11  C           1     -21.754  -6.137  -5.258  0.00  0.00    -0.020 C 
HETATM   12  C           1     -21.451  -6.070  -3.767  0.00  0.00     0.009 C 
HETATM   13  C           1     -21.328  -7.494  -5.802  0.00  0.00     0.009 C 
ENDBRANCH  10  11
ENDBRANCH   5  10
ENDBRANCH   4   5
BRANCH   3  14
HETATM   14  C           1     -22.174  -4.576 -10.720  0.00  0.00     0.214 C 
BRANCH  14  15
HETATM   15  C           1     -23.457  -4.499 -11.538  0.00  0.00     0.147 C 
HETATM   16  C           1     -24.396  -3.476 -10.911  0.00  0.00     0.042 C 
BRANCH  15  17
HETATM   17  O           1     -23.151  -4.110 -12.850  0.00  0.00    -0.393 OA
HETATM   18  H           1     -23.738  -4.580 -13.418  0.00  0.00     0.210 HD
ENDBRANCH  15  17
ENDBRANCH  14  15
BRANCH  14  19
HETATM   19  C           1     -21.155  -3.622 -11.292  0.00  0.00     0.199 C 
HETATM   20  O           1     -19.988  -4.014 -11.516  0.00  0.00    -0.646 OA
HETATM   21  O           1     -21.476  -2.440 -11.543  0.00  0.00    -0.646 OA
ENDBRANCH  14  19
ENDBRANCH   3  14
TORSDOF 8
ENDMDL
MODEL 5
REMARK VINA RESULT:      -5.6     12.872     15.278
REMARK  8 active torsions:
REMARK  status: ('A' for Active; 'I' for Inactive)
REMARK    1  A    between atoms: C_1  and  O_8 
REMARK    2  A    between atoms: C_1  and  C_9 
REMARK    3  A    between atoms: N_4  and  C_21 
REMARK    4  A    between atoms: C_7  and  C_12 
REMARK    5  A    between atoms: C_9  and  C_14 
REMARK    6  A    between atoms: C_9  and  N_19 
REMARK    7  A    between atoms: C_12  and  C_21 
REMARK       I    between atoms: N_19  and  C_20 
REMARK    8  A    between atoms: C_20  and  C_21 
ROOT
HETATM    1  O           1     -22.974  -4.643  -9.952  0.00  0.00    -0.271 OA
HETATM    2  H           1     -19.994  -3.976  -9.236  0.00  0.00     0.163 HD
HETATM    3  N           1     -20.914  -4.386  -9.132  0.00  0.00    -0.343 N 
HETATM    4  C           1     -21.877  -4.154 -10.076  0.00  0.00     0.249 C 
ENDROOT
BRANCH   4   5
HETATM    5  C           1     -21.567  -3.289 -11.273  0.00  0.00     0.275 C 
BRANCH   5   6
HETATM    6  N           1     -20.097  -3.349 -11.565  0.00  0.00    -0.066 N 
HETATM    7  H           1     -19.949  -3.679 -12.546  0.00  0.00     0.275 HD
HETATM    8  H           1     -19.681  -2.396 -11.454  0.00  0.00     0.275 HD
HETATM    9  H           1     -19.637  -4.011 -10.902  0.00  0.00     0.275 HD
ENDBRANCH   5   6
BRANCH   5  10
HETATM   10  C           1     -22.345  -3.794 -12.481  0.00  0.00     0.046 C 
BRANCH  10  11
HETATM   11  C           1     -23.220  -2.672 -13.027  0.00  0.00    -0.020 C 
HETATM   12  C           1     -24.672  -2.931 -12.649  0.00  0.00     0.009 C 
HETATM   13  C           1     -23.091  -2.622 -14.544  0.00  0.00     0.009 C 
ENDBRANCH  10  11
ENDBRANCH   5  10
ENDBRANCH   4   5
BRANCH   3  14
HETATM   14  C           1     -21.212  -5.217  -7.982  0.00  0.00     0.214 C 
BRANCH  14  15
HETATM   15  C           1     -19.910  -5.691  -7.347  0.00  0.00     0.147 C 
HETATM   16  C           1     -18.831  -4.637  -7.557  0.00  0.00     0.042 C 
BRANCH  15  17
HETATM   17  O           1     -20.107  -5.891  -5.973  0.00  0.00    -0.393 OA
HETATM   18  H           1     -19.964  -5.061  -5.552  0.00  0.00     0.210 HD
ENDBRANCH  15  17
ENDBRANCH  14  15
BRANCH  14  19
HETATM   19  C           1     -22.000  -4.418  -6.974  0.00  0.00     0.199 C 
HETATM   20  O           1     -21.652  -3.250  -6.691  0.00  0.00    -0.646 OA
HETATM   21  O           1     -23.002  -4.922  -6.422  0.00  0.00    -0.646 OA
ENDBRANCH  14  19
ENDBRANCH   3  14
TORSDOF 8
ENDMDL
MODEL 6
REMARK VINA RESULT:      -5.5     13.007     15.380
REMARK  8 active torsions:
REMARK  status: ('A' for Active; 'I' for Inactive)
REMARK    1  A    between atoms: C_1  and  O_8 
REMARK    2  A    between atoms: C_1  and  C_9 
REMARK    3  A    between atoms: N_4  and  C_21 
REMARK    4  A    between atoms: C_7  and  C_12 
REMARK    5  A    between atoms: C_9  and  C_14 
REMARK    6  A    between atoms: C_9  and  N_19 
REMARK    7  A    between atoms: C_12  and  C_21 
REMARK       I    between atoms: N_19  and  C_20 
REMARK    8  A    between atoms: C_20  and  C_21 
ROOT
HETATM    1  O           1     -22.288  -2.921  -8.174  0.00  0.00    -0.271 OA
HETATM    2  H           1     -22.256  -6.047  -7.904  0.00  0.00     0.163 HD
HETATM    3  N           1     -21.954  -5.091  -7.763  0.00  0.00    -0.343 N 
HETATM    4  C           1     -22.647  -4.062  -8.342  0.00  0.00     0.249 C 
ENDROOT
BRANCH   4   5
HETATM    5  C           1     -23.861  -4.353  -9.191  0.00  0.00     0.275 C 
BRANCH   5   6
HETATM    6  N           1     -24.813  -3.196  -9.112  0.00  0.00    -0.066 N 
HETATM    7  H           1     -25.452  -3.214  -9.939  0.00  0.00     0.275 HD
HETATM    8  H           1     -25.378  -3.270  -8.236  0.00  0.00     0.275 HD
HETATM    9  H           1     -24.275  -2.302  -9.107  0.00  0.00     0.275 HD
ENDBRANCH   5   6
BRANCH   5  10
HETATM   10  C           1     -23.433  -4.561 -10.637  0.00  0.00     0.046 C 
BRANCH  10  11
HETATM   11  C           1     -23.379  -3.215 -11.349  0.00  0.00    -0.020 C 
HETATM   12  C           1     -24.275  -3.255 -12.580  0.00  0.00     0.009 C 
HETATM   13  C           1     -21.946  -2.922 -11.774  0.00  0.00     0.009 C 
ENDBRANCH  10  11
ENDBRANCH   5  10
ENDBRANCH   4   5
BRANCH   3  14
HETATM   14  C           1     -20.788  -4.811  -6.948  0.00  0.00     0.214 C 
BRANCH  14  15
HETATM   15  C           1     -20.610  -5.920  -5.919  0.00  0.00     0.147 C 
HETATM   16  C           1     -21.976  -6.389  -5.437  0.00  0.00     0.042 C 
BRANCH  15  17
HETATM   17  O           1     -19.927  -6.995  -6.507  0.00  0.00    -0.393 OA
HETATM   18  H           1     -19.655  -6.711  -7.363  0.00  0.00     0.210 HD
ENDBRANCH  15  17
ENDBRANCH  14  15
BRANCH  14  19
HETATM   19  C           1     -19.565  -4.739  -7.828  0.00  0.00     0.199 C 
HETATM   20  O           1     -18.472  -4.365  -7.350  0.00  0.00    -0.646 OA
HETATM   21  O           1     -19.645  -5.054  -9.036  0.00  0.00    -0.646 OA
ENDBRANCH  14  19
ENDBRANCH   3  14
TORSDOF 8
ENDMDL
MODEL 7
REMARK VINA RESULT:      -5.3      2.171      5.851
REMARK  8 active torsions:
REMARK  status: ('A' for Active; 'I' for Inactive)
REMARK    1  A    between atoms: C_1  and  O_8 
REMARK    2  A    between atoms: C_1  and  C_9 
REMARK    3  A    between atoms: N_4  and  C_21 
REMARK    4  A    between atoms: C_7  and  C_12 
REMARK    5  A    between atoms: C_9  and  C_14 
REMARK    6  A    between atoms: C_9  and  N_19 
REMARK    7  A    between atoms: C_12  and  C_21 
REMARK       I    between atoms: N_19  and  C_20 
REMARK    8  A    between atoms: C_20  and  C_21 
ROOT
HETATM    1  O           1     -34.789  -2.276 -14.071  0.00  0.00    -0.271 OA
HETATM    2  H           1     -35.424  -1.798 -11.036  0.00  0.00     0.163 HD
HETATM    3  N           1     -35.116  -2.296 -11.863  0.00  0.00    -0.343 N 
HETATM    4  C           1     -35.156  -1.683 -13.085  0.00  0.00     0.249 C 
ENDROOT
BRANCH   4   5
HETATM    5  C           1     -35.658  -0.264 -13.202  0.00  0.00     0.275 C 
BRANCH   5   6
HETATM    6  N           1     -35.393   0.467 -11.919  0.00  0.00    -0.066 N 
HETATM    7  H           1     -34.523   0.092 -11.478  0.00  0.00     0.275 HD
HETATM    8  H           1     -35.271   1.485 -12.117  0.00  0.00     0.275 HD
HETATM    9  H           1     -36.199   0.331 -11.269  0.00  0.00     0.275 HD
ENDBRANCH   5   6
BRANCH   5  10
HETATM   10  C           1     -34.936   0.438 -14.344  0.00  0.00     0.046 C 
BRANCH  10  11
HETATM   11  C           1     -35.910   0.676 -15.491  0.00  0.00    -0.020 C 
HETATM   12  C           1     -35.906   2.153 -15.863  0.00  0.00     0.009 C 
HETATM   13  C           1     -37.312   0.266 -15.060  0.00  0.00     0.009 C 
ENDBRANCH  10  11
ENDBRANCH   5  10
ENDBRANCH   4   5
BRANCH   3  14
HETATM   14  C           1     -34.634  -3.659 -11.751  0.00  0.00     0.214 C 
BRANCH  14  15
HETATM   15  C           1     -33.228  -3.653 -11.165  0.00  0.00     0.147 C 
HETATM   16  C           1     -32.269  -4.319 -12.142  0.00  0.00     0.042 C 
BRANCH  15  17
HETATM   17  O           1     -32.822  -2.330 -10.938  0.00  0.00    -0.393 OA
HETATM   18  H           1     -32.939  -2.161 -10.019  0.00  0.00     0.210 HD
ENDBRANCH  15  17
ENDBRANCH  14  15
BRANCH  14  19
HETATM   19  C           1     -35.552  -4.444 -10.847  0.00  0.00     0.199 C 
HETATM   20  O           1     -35.224  -5.588 -10.464  0.00  0.00    -0.646 OA
HETATM   21  O           1     -36.642  -3.950 -10.481  0.00  0.00    -0.646 OA
ENDBRANCH  14  19
ENDBRANCH   3  14
TORSDOF 8
ENDMDL
MODEL 8
REMARK VINA RESULT:      -5.3     14.720     17.227
REMARK  8 active torsions:
REMARK  status: ('A' for Active; 'I' for Inactive)
REMARK    1  A    between atoms: C_1  and  O_8 
REMARK    2  A    between atoms: C_1  and  C_9 
REMARK    3  A    between atoms: N_4  and  C_21 
REMARK    4  A    between atoms: C_7  and  C_12 
REMARK    5  A    between atoms: C_9  and  C_14 
REMARK    6  A    between atoms: C_9  and  N_19 
REMARK    7  A    between atoms: C_12  and  C_21 
REMARK       I    between atoms: N_19  and  C_20 
REMARK    8  A    between atoms: C_20  and  C_21 
ROOT
HETATM    1  O           1     -19.936  -4.826  -5.895  0.00  0.00    -0.271 OA
HETATM    2  H           1     -22.442  -6.713  -5.862  0.00  0.00     0.163 HD
HETATM    3  N           1     -21.535  -6.354  -5.591  0.00  0.00    -0.343 N 
HETATM    4  C           1     -21.018  -5.255  -6.219  0.00  0.00     0.249 C 
ENDROOT
BRANCH   4   5
HETATM    5  C           1     -21.799  -4.575  -7.317  0.00  0.00     0.275 C 
BRANCH   5   6
HETATM    6  N           1     -21.681  -3.087  -7.167  0.00  0.00    -0.066 N 
HETATM    7  H           1     -22.590  -2.638  -7.418  0.00  0.00     0.275 HD
HETATM    8  H           1     -21.442  -2.856  -6.176  0.00  0.00     0.275 HD
HETATM    9  H           1     -20.930  -2.732  -7.800  0.00  0.00     0.275 HD
ENDBRANCH   5   6
BRANCH   5  10
HETATM   10  C           1     -21.243  -4.994  -8.671  0.00  0.00     0.046 C 
BRANCH  10  11
HETATM   11  C           1     -21.719  -4.018  -9.740  0.00  0.00    -0.020 C 
HETATM   12  C           1     -22.996  -4.547 -10.378  0.00  0.00     0.009 C 
HETATM   13  C           1     -20.642  -3.869 -10.808  0.00  0.00     0.009 C 
ENDBRANCH  10  11
ENDBRANCH   5  10
ENDBRANCH   4   5
BRANCH   3  14
HETATM   14  C           1     -20.784  -7.006  -4.535  0.00  0.00     0.214 C 
BRANCH  14  15
HETATM   15  C           1     -21.684  -7.210  -3.323  0.00  0.00     0.147 C 
HETATM   16  C           1     -20.831  -7.563  -2.112  0.00  0.00     0.042 C 
BRANCH  15  17
HETATM   17  O           1     -22.395  -6.029  -3.067  0.00  0.00    -0.393 OA
HETATM   18  H           1     -22.936  -5.866  -3.821  0.00  0.00     0.210 HD
ENDBRANCH  15  17
ENDBRANCH  14  15
BRANCH  14  19
HETATM   19  C           1     -20.289  -8.345  -5.024  0.00  0.00     0.199 C 
HETATM   20  O           1     -21.064  -9.114  -5.634  0.00  0.00    -0.646 OA
HETATM   21  O           1     -19.103  -8.686  -4.820  0.00  0.00    -0.646 OA
ENDBRANCH  14  19
ENDBRANCH   3  14
TORSDOF 8
ENDMDL
MODEL 9
REMARK VINA RESULT:      -5.3     17.456     19.225
REMARK  8 active torsions:
REMARK  status: ('A' for Active; 'I' for Inactive)
REMARK    1  A    between atoms: C_1  and  O_8 
REMARK    2  A    between atoms: C_1  and  C_9 
REMARK    3  A    between atoms: N_4  and  C_21 
REMARK    4  A    between atoms: C_7  and  C_12 
REMARK    5  A    between atoms: C_9  and  C_14 
REMARK    6  A    between atoms: C_9  and  N_19 
REMARK    7  A    between atoms: C_12  and  C_21 
REMARK       I    between atoms: N_19  and  C_20 
REMARK    8  A    between atoms: C_20  and  C_21 
ROOT
HETATM    1  O           1     -19.130  -8.948  -3.023  0.00  0.00    -0.271 OA
HETATM    2  H           1     -22.122  -8.020  -3.199  0.00  0.00     0.163 HD
HETATM    3  N           1     -21.264  -8.340  -2.768  0.00  0.00    -0.343 N 
HETATM    4  C           1     -20.155  -8.566  -3.537  0.00  0.00     0.249 C 
ENDROOT
BRANCH   4   5
HETATM    5  C           1     -20.211  -8.338  -5.028  0.00  0.00     0.275 C 
BRANCH   5   6
HETATM    6  N           1     -20.778  -9.554  -5.698  0.00  0.00    -0.066 N 
HETATM    7  H           1     -20.079 -10.330  -5.663  0.00  0.00     0.275 HD
HETATM    8  H           1     -21.649  -9.850  -5.203  0.00  0.00     0.275 HD
HETATM    9  H           1     -21.000  -9.331  -6.694  0.00  0.00     0.275 HD
ENDBRANCH   5   6
BRANCH   5  10
HETATM   10  C           1     -21.095  -7.135  -5.325  0.00  0.00     0.046 C 
BRANCH  10  11
HETATM   11  C           1     -20.300  -6.102  -6.114  0.00  0.00    -0.020 C 
HETATM   12  C           1     -20.226  -4.804  -5.320  0.00  0.00     0.009 C 
HETATM   13  C           1     -20.988  -5.842  -7.448  0.00  0.00     0.009 C 
ENDBRANCH  10  11
ENDBRANCH   5  10
ENDBRANCH   4   5
BRANCH   3  14
HETATM   14  C           1     -21.209  -8.560  -1.336  0.00  0.00     0.214 C 
BRANCH  14  15
HETATM   15  C           1     -21.913  -7.414  -0.619  0.00  0.00     0.147 C 
HETATM   16  C           1     -22.279  -6.334  -1.629  0.00  0.00     0.042 C 
BRANCH  15  17
HETATM   17  O           1     -23.079  -7.894  -0.005  0.00  0.00    -0.393 OA
HETATM   18  H           1     -23.514  -7.150   0.376  0.00  0.00     0.210 HD
ENDBRANCH  15  17
ENDBRANCH  14  15
BRANCH  14  19
HETATM   19  C           1     -21.896  -9.860  -1.000  0.00  0.00     0.199 C 
HETATM   20  O           1     -22.744 -10.340  -1.784  0.00  0.00    -0.646 OA
HETATM   21  O           1     -21.618 -10.459   0.062  0.00  0.00    -0.646 OA
ENDBRANCH  14  19
ENDBRANCH   3  14
TORSDOF 8
ENDMDL
