MODEL 1
REMARK VINA RESULT:      -6.3      0.000      0.000
REMARK  5 active torsions:
REMARK  status: ('A' for Active; 'I' for Inactive)
REMARK    1  A    between atoms: C_1  and  C_6 
REMARK    2  A    between atoms: C_3  and  C_5 
REMARK    3  A    between atoms: C_3  and  C_11 
REMARK    4  A    between atoms: C_3  and  N_14 
REMARK       I    between atoms: C_5  and  N_18 
REMARK    5  A    between atoms: C_11  and  O_12 
ROOT
HETATM    1  C           1     -35.119  -1.813 -13.443  0.00  0.00     0.253 C 
HETATM    2  C           1     -33.853  -3.814 -12.529  0.00  0.00     0.188 C 
HETATM    3  C           1     -32.877  -3.692 -11.372  0.00  0.00     0.038 C 
HETATM    4  C           1     -33.575  -2.791 -10.358  0.00  0.00     0.022 C 
HETATM    5  C           1     -34.910  -2.441 -10.993  0.00  0.00     0.127 C 
HETATM    6  N           1     -34.672  -2.610 -12.423  0.00  0.00    -0.336 N 
HETATM    7  O           1     -34.839  -2.083 -14.587  0.00  0.00    -0.271 OA
ENDROOT
BRANCH   1   8
HETATM    8  C           1     -35.961  -0.599 -13.139  0.00  0.00     0.302 C 
BRANCH   8   9
HETATM    9  C           1     -36.567  -0.065 -14.429  0.00  0.00     0.153 C 
HETATM   10  C           1     -38.075   0.067 -14.265  0.00  0.00     0.042 C 
BRANCH   9  11
HETATM   11  O           1     -36.017   1.192 -14.718  0.00  0.00    -0.393 OA
HETATM   12  H           1     -35.370   1.060 -15.390  0.00  0.00     0.210 HD
ENDBRANCH   9  11
ENDBRANCH   8   9
BRANCH   8  13
HETATM   13  N           1     -35.103   0.459 -12.512  0.00  0.00    -0.064 N 
HETATM   14  H           1     -34.115   0.336 -12.826  0.00  0.00     0.275 HD
HETATM   15  H           1     -35.153   0.377 -11.471  0.00  0.00     0.275 HD
HETATM   16  H           1     -35.446   1.403 -12.804  0.00  0.00     0.275 HD
ENDBRANCH   8  13
ENDBRANCH   1   8
BRANCH   2  17
HETATM   17  C           1     -34.700  -5.055 -12.388  0.00  0.00     0.196 C 
HETATM   18  O           1     -34.665  -5.719 -11.329  0.00  0.00    -0.646 OA
HETATM   19  O           1     -35.437  -5.418 -13.330  0.00  0.00    -0.646 OA
ENDBRANCH   2  17
TORSDOF 5
ENDMDL
MODEL 2
REMARK VINA RESULT:      -6.0     11.655     13.185
REMARK  5 active torsions:
REMARK  status: ('A' for Active; 'I' for Inactive)
REMARK    1  A    between atoms: C_1  and  C_6 
REMARK    2  A    between atoms: C_3  and  C_5 
REMARK    3  A    between atoms: C_3  and  C_11 
REMARK    4  A    between atoms: C_3  and  N_14 
REMARK       I    between atoms: C_5  and  N_18 
REMARK    5  A    between atoms: C_11  and  O_12 
ROOT
HETATM    1  C           1     -22.329  -3.051 -11.461  0.00  0.00     0.253 C 
HETATM    2  C           1     -21.261  -3.650  -9.238  0.00  0.00     0.188 C 
HETATM    3  C           1     -22.065  -3.725  -7.951  0.00  0.00     0.038 C 
HETATM    4  C           1     -23.345  -4.463  -8.325  0.00  0.00     0.022 C 
HETATM    5  C           1     -23.210  -4.764  -9.808  0.00  0.00     0.127 C 
HETATM    6  N           1     -22.272  -3.752 -10.286  0.00  0.00    -0.336 N 
HETATM    7  O           1     -21.474  -2.240 -11.722  0.00  0.00    -0.271 OA
ENDROOT
BRANCH   1   8
HETATM    8  C           1     -23.460  -3.294 -12.430  0.00  0.00     0.302 C 
BRANCH   8   9
HETATM    9  C           1     -23.412  -2.252 -13.538  0.00  0.00     0.153 C 
HETATM   10  C           1     -22.838  -2.880 -14.801  0.00  0.00     0.042 C 
BRANCH   9  11
HETATM   11  O           1     -24.707  -1.783 -13.797  0.00  0.00    -0.393 OA
HETATM   12  H           1     -24.707  -1.451 -14.679  0.00  0.00     0.210 HD
ENDBRANCH   9  11
ENDBRANCH   8   9
BRANCH   8  13
HETATM   13  N           1     -24.769  -3.193 -11.705  0.00  0.00    -0.064 N 
HETATM   14  H           1     -24.638  -2.645 -10.826  0.00  0.00     0.275 HD
HETATM   15  H           1     -25.113  -4.152 -11.471  0.00  0.00     0.275 HD
HETATM   16  H           1     -25.468  -2.711 -12.315  0.00  0.00     0.275 HD
ENDBRANCH   8  13
ENDBRANCH   1   8
BRANCH   2  17
HETATM   17  C           1     -20.279  -4.792  -9.325  0.00  0.00     0.196 C 
HETATM   18  O           1     -20.008  -5.463  -8.305  0.00  0.00    -0.646 OA
HETATM   19  O           1     -19.738  -5.068 -10.417  0.00  0.00    -0.646 OA
ENDBRANCH   2  17
TORSDOF 5
ENDMDL
MODEL 3
REMARK VINA RESULT:      -5.8      2.835      3.781
REMARK  5 active torsions:
REMARK  status: ('A' for Active; 'I' for Inactive)
REMARK    1  A    between atoms: C_1  and  C_6 
REMARK    2  A    between atoms: C_3  and  C_5 
REMARK    3  A    between atoms: C_3  and  C_11 
REMARK    4  A    between atoms: C_3  and  N_14 
REMARK       I    between atoms: C_5  and  N_18 
REMARK    5  A    between atoms: C_11  and  O_12 
ROOT
HETATM    1  C           1     -36.515  -0.675 -13.470  0.00  0.00     0.253 C 
HETATM    2  C           1     -36.656  -1.352 -11.027  0.00  0.00     0.188 C 
HETATM    3  C           1     -35.786  -2.450 -10.443  0.00  0.00     0.038 C 
HETATM    4  C           1     -34.394  -2.200 -11.013  0.00  0.00     0.022 C 
HETATM    5  C           1     -34.544  -0.975 -11.899  0.00  0.00     0.127 C 
HETATM    6  N           1     -35.961  -0.971 -12.254  0.00  0.00    -0.336 N 
HETATM    7  O           1     -37.714  -0.714 -13.612  0.00  0.00    -0.271 OA
ENDROOT
BRANCH   1   8
HETATM    8  C           1     -35.629  -0.300 -14.632  0.00  0.00     0.302 C 
BRANCH   8   9
HETATM    9  C           1     -36.446   0.457 -15.670  0.00  0.00     0.153 C 
HETATM   10  C           1     -35.896   1.869 -15.817  0.00  0.00     0.042 C 
BRANCH   9  11
HETATM   11  O           1     -36.366  -0.206 -16.902  0.00  0.00    -0.393 OA
HETATM   12  H           1     -35.530   0.013 -17.277  0.00  0.00     0.210 HD
ENDBRANCH   9  11
ENDBRANCH   8   9
BRANCH   8  13
HETATM   13  N           1     -35.064  -1.543 -15.250  0.00  0.00    -0.064 N 
HETATM   14  H           1     -35.446  -2.382 -14.758  0.00  0.00     0.275 HD
HETATM   15  H           1     -34.022  -1.533 -15.164  0.00  0.00     0.275 HD
HETATM   16  H           1     -35.329  -1.582 -16.261  0.00  0.00     0.275 HD
ENDBRANCH   8  13
ENDBRANCH   1   8
BRANCH   2  17
HETATM   17  C           1     -36.753  -0.182 -10.079  0.00  0.00     0.196 C 
HETATM   18  O           1     -37.399   0.837 -10.406  0.00  0.00    -0.646 OA
HETATM   19  O           1     -36.189  -0.233  -8.965  0.00  0.00    -0.646 OA
ENDBRANCH   2  17
TORSDOF 5
ENDMDL
MODEL 4
REMARK VINA RESULT:      -5.2     14.466     16.153
REMARK  5 active torsions:
REMARK  status: ('A' for Active; 'I' for Inactive)
REMARK    1  A    between atoms: C_1  and  C_6 
REMARK    2  A    between atoms: C_3  and  C_5 
REMARK    3  A    between atoms: C_3  and  C_11 
REMARK    4  A    between atoms: C_3  and  N_14 
REMARK       I    between atoms: C_5  and  N_18 
REMARK    5  A    between atoms: C_11  and  O_12 
ROOT
HETATM    1  C           1     -20.677  -6.190  -6.593  0.00  0.00     0.253 C 
HETATM    2  C           1     -20.466  -7.853  -4.686  0.00  0.00     0.188 C 
HETATM    3  C           1     -20.661  -7.446  -3.236  0.00  0.00     0.038 C 
HETATM    4  C           1     -21.892  -6.547  -3.238  0.00  0.00     0.022 C 
HETATM    5  C           1     -22.331  -6.481  -4.690  0.00  0.00     0.127 C 
HETATM    6  N           1     -21.114  -6.782  -5.438  0.00  0.00    -0.336 N 
HETATM    7  O           1     -19.641  -6.550  -7.100  0.00  0.00    -0.271 OA
ENDROOT
BRANCH   1   8
HETATM    8  C           1     -21.488  -5.090  -7.231  0.00  0.00     0.302 C 
BRANCH   8   9
HETATM    9  C           1     -21.311  -5.140  -8.742  0.00  0.00     0.153 C 
HETATM   10  C           1     -22.458  -4.395  -9.412  0.00  0.00     0.042 C 
BRANCH   9  11
HETATM   11  O           1     -20.095  -4.535  -9.091  0.00  0.00    -0.393 OA
HETATM   12  H           1     -20.139  -3.641  -8.795  0.00  0.00     0.210 HD
ENDBRANCH   9  11
ENDBRANCH   8   9
BRANCH   8  13
HETATM   13  N           1     -21.020  -3.762  -6.716  0.00  0.00    -0.064 N 
HETATM   14  H           1     -20.848  -3.118  -7.520  0.00  0.00     0.275 HD
HETATM   15  H           1     -20.135  -3.890  -6.175  0.00  0.00     0.275 HD
HETATM   16  H           1     -21.753  -3.352  -6.093  0.00  0.00     0.275 HD
ENDBRANCH   8  13
ENDBRANCH   1   8
BRANCH   2  17
HETATM   17  C           1     -21.125  -9.181  -4.965  0.00  0.00     0.196 C 
HETATM   18  O           1     -21.660  -9.821  -4.034  0.00  0.00    -0.646 OA
HETATM   19  O           1     -21.136  -9.641  -6.127  0.00  0.00    -0.646 OA
ENDBRANCH   2  17
TORSDOF 5
ENDMDL
MODEL 5
REMARK VINA RESULT:      -5.2     16.853     18.762
REMARK  5 active torsions:
REMARK  status: ('A' for Active; 'I' for Inactive)
REMARK    1  A    between atoms: C_1  and  C_6 
REMARK    2  A    between atoms: C_3  and  C_5 
REMARK    3  A    between atoms: C_3  and  C_11 
REMARK    4  A    between atoms: C_3  and  N_14 
REMARK       I    between atoms: C_5  and  N_18 
REMARK    5  A    between atoms: C_11  and  O_12 
ROOT
HETATM    1  C           1     -21.178  -9.046  -1.442  0.00  0.00     0.253 C 
HETATM    2  C           1     -20.756  -7.458  -3.377  0.00  0.00     0.188 C 
HETATM    3  C           1     -20.179  -7.933  -4.699  0.00  0.00     0.038 C 
HETATM    4  C           1     -20.920  -9.227  -5.014  0.00  0.00     0.022 C 
HETATM    5  C           1     -21.877  -9.428  -3.852  0.00  0.00     0.127 C 
HETATM    6  N           1     -21.262  -8.681  -2.759  0.00  0.00    -0.336 N 
HETATM    7  O           1     -20.635  -8.317  -0.647  0.00  0.00    -0.271 OA
ENDROOT
BRANCH   1   8
HETATM    8  C           1     -21.765 -10.359  -0.984  0.00  0.00     0.302 C 
BRANCH   8   9
HETATM    9  C           1     -23.231 -10.163  -0.627  0.00  0.00     0.153 C 
HETATM   10  C           1     -23.776 -11.440  -0.002  0.00  0.00     0.042 C 
BRANCH   9  11
HETATM   11  O           1     -23.353  -9.107   0.287  0.00  0.00    -0.393 OA
HETATM   12  H           1     -23.011  -9.416   1.109  0.00  0.00     0.210 HD
ENDBRANCH   9  11
ENDBRANCH   8   9
BRANCH   8  13
HETATM   13  N           1     -21.017 -10.846   0.221  0.00  0.00    -0.064 N 
HETATM   14  H           1     -20.023 -10.531   0.164  0.00  0.00     0.275 HD
HETATM   15  H           1     -21.051 -11.890   0.253  0.00  0.00     0.275 HD
HETATM   16  H           1     -21.457 -10.457   1.085  0.00  0.00     0.275 HD
ENDBRANCH   8  13
ENDBRANCH   1   8
BRANCH   2  17
HETATM   17  C           1     -21.872  -6.468  -3.603  0.00  0.00     0.196 C 
HETATM   18  O           1     -22.526  -6.031  -2.632  0.00  0.00    -0.646 OA
HETATM   19  O           1     -22.141  -6.085  -4.762  0.00  0.00    -0.646 OA
ENDBRANCH   2  17
TORSDOF 5
ENDMDL
MODEL 6
REMARK VINA RESULT:      -5.1     18.527     20.134
REMARK  5 active torsions:
REMARK  status: ('A' for Active; 'I' for Inactive)
REMARK    1  A    between atoms: C_1  and  C_6 
REMARK    2  A    between atoms: C_3  and  C_5 
REMARK    3  A    between atoms: C_3  and  C_11 
REMARK    4  A    between atoms: C_3  and  N_14 
REMARK       I    between atoms: C_5  and  N_18 
REMARK    5  A    between atoms: C_11  and  O_12 
ROOT
HETATM    1  C           1     -21.400 -10.722  -0.025  0.00  0.00     0.253 C 
HETATM    2  C           1     -21.151  -8.286  -0.692  0.00  0.00     0.188 C 
HETATM    3  C           1     -20.425  -7.867  -1.958  0.00  0.00     0.038 C 
HETATM    4  C           1     -20.911  -8.833  -3.033  0.00  0.00     0.022 C 
HETATM    5  C           1     -21.883  -9.758  -2.322  0.00  0.00     0.127 C 
HETATM    6  N           1     -21.471  -9.692  -0.923  0.00  0.00    -0.336 N 
HETATM    7  O           1     -21.039 -10.511   1.108  0.00  0.00    -0.271 OA
ENDROOT
BRANCH   1   8
HETATM    8  C           1     -21.775 -12.121  -0.449  0.00  0.00     0.302 C 
BRANCH   8   9
HETATM    9  C           1     -23.201 -12.420  -0.010  0.00  0.00     0.153 C 
HETATM   10  C           1     -23.176 -13.258   1.261  0.00  0.00     0.042 C 
BRANCH   9  11
HETATM   11  O           1     -23.877 -11.217   0.238  0.00  0.00    -0.393 OA
HETATM   12  H           1     -24.760 -11.442   0.477  0.00  0.00     0.210 HD
ENDBRANCH   9  11
ENDBRANCH   8   9
BRANCH   8  13
HETATM   13  N           1     -20.839 -13.104   0.189  0.00  0.00    -0.064 N 
HETATM   14  H           1     -21.388 -13.892   0.597  0.00  0.00     0.275 HD
HETATM   15  H           1     -20.296 -12.627   0.944  0.00  0.00     0.275 HD
HETATM   16  H           1     -20.180 -13.475  -0.532  0.00  0.00     0.275 HD
ENDBRANCH   8  13
ENDBRANCH   1   8
BRANCH   2  17
HETATM   17  C           1     -22.407  -7.473  -0.499  0.00  0.00     0.196 C 
HETATM   18  O           1     -22.600  -6.446  -1.186  0.00  0.00    -0.646 OA
HETATM   19  O           1     -23.255  -7.826   0.348  0.00  0.00    -0.646 OA
ENDBRANCH   2  17
TORSDOF 5
ENDMDL
MODEL 7
REMARK VINA RESULT:      -5.0     18.450     20.152
REMARK  5 active torsions:
REMARK  status: ('A' for Active; 'I' for Inactive)
REMARK    1  A    between atoms: C_1  and  C_6 
REMARK    2  A    between atoms: C_3  and  C_5 
REMARK    3  A    between atoms: C_3  and  C_11 
REMARK    4  A    between atoms: C_3  and  N_14 
REMARK       I    between atoms: C_5  and  N_18 
REMARK    5  A    between atoms: C_11  and  O_12 
ROOT
HETATM    1  C           1     -21.815  -9.477   0.405  0.00  0.00     0.253 C 
HETATM    2  C           1     -21.299 -11.935   0.768  0.00  0.00     0.188 C 
HETATM    3  C           1     -22.385 -12.949   1.085  0.00  0.00     0.038 C 
HETATM    4  C           1     -23.530 -12.614   0.135  0.00  0.00     0.022 C 
HETATM    5  C           1     -23.041 -11.422  -0.669  0.00  0.00     0.127 C 
HETATM    6  N           1     -22.030 -10.811   0.189  0.00  0.00    -0.336 N 
HETATM    7  O           1     -20.933  -9.120   1.149  0.00  0.00    -0.271 OA
ENDROOT
BRANCH   1   8
HETATM    8  C           1     -22.679  -8.451  -0.288  0.00  0.00     0.302 C 
BRANCH   8   9
HETATM    9  C           1     -21.798  -7.358  -0.874  0.00  0.00     0.153 C 
HETATM   10  C           1     -21.096  -7.884  -2.119  0.00  0.00     0.042 C 
BRANCH   9  11
HETATM   11  O           1     -22.590  -6.253  -1.217  0.00  0.00    -0.393 OA
HETATM   12  H           1     -22.103  -5.482  -0.979  0.00  0.00     0.210 HD
ENDBRANCH   9  11
ENDBRANCH   8   9
BRANCH   8  13
HETATM   13  N           1     -23.631  -7.850   0.704  0.00  0.00    -0.064 N 
HETATM   14  H           1     -23.274  -8.013   1.672  0.00  0.00     0.275 HD
HETATM   15  H           1     -24.571  -8.294   0.598  0.00  0.00     0.275 HD
HETATM   16  H           1     -23.710  -6.822   0.530  0.00  0.00     0.275 HD
ENDBRANCH   8  13
ENDBRANCH   1   8
BRANCH   2  17
HETATM   17  C           1     -20.310 -12.500  -0.221  0.00  0.00     0.196 C 
HETATM   18  O           1     -20.287 -13.728  -0.452  0.00  0.00    -0.646 OA
HETATM   19  O           1     -19.513 -11.738  -0.811  0.00  0.00    -0.646 OA
ENDBRANCH   2  17
TORSDOF 5
ENDMDL
MODEL 8
REMARK VINA RESULT:      -4.9     17.146     18.631
REMARK  5 active torsions:
REMARK  status: ('A' for Active; 'I' for Inactive)
REMARK    1  A    between atoms: C_1  and  C_6 
REMARK    2  A    between atoms: C_3  and  C_5 
REMARK    3  A    between atoms: C_3  and  C_11 
REMARK    4  A    between atoms: C_3  and  N_14 
REMARK       I    between atoms: C_5  and  N_18 
REMARK    5  A    between atoms: C_11  and  O_12 
ROOT
HETATM    1  C           1     -20.984  -8.518  -1.911  0.00  0.00     0.253 C 
HETATM    2  C           1     -20.164  -8.264  -4.300  0.00  0.00     0.188 C 
HETATM    3  C           1     -19.870  -9.463  -5.184  0.00  0.00     0.038 C 
HETATM    4  C           1     -21.030 -10.424  -4.948  0.00  0.00     0.022 C 
HETATM    5  C           1     -21.922  -9.726  -3.936  0.00  0.00     0.127 C 
HETATM    6  N           1     -21.020  -8.807  -3.249  0.00  0.00    -0.336 N 
HETATM    7  O           1     -20.174  -7.729  -1.486  0.00  0.00    -0.271 OA
ENDROOT
BRANCH   1   8
HETATM    8  C           1     -21.956  -9.183  -0.969  0.00  0.00     0.302 C 
BRANCH   8   9
HETATM    9  C           1     -22.726  -8.120  -0.199  0.00  0.00     0.153 C 
HETATM   10  C           1     -22.100  -7.936   1.177  0.00  0.00     0.042 C 
BRANCH   9  11
HETATM   11  O           1     -22.677  -6.907  -0.900  0.00  0.00    -0.393 OA
HETATM   12  H           1     -21.772  -6.747  -1.108  0.00  0.00     0.210 HD
ENDBRANCH   9  11
ENDBRANCH   8   9
BRANCH   8  13
HETATM   13  N           1     -21.202 -10.051  -0.005  0.00  0.00    -0.064 N 
HETATM   14  H           1     -21.808 -10.849   0.292  0.00  0.00     0.275 HD
HETATM   15  H           1     -20.932  -9.487   0.833  0.00  0.00     0.275 HD
HETATM   16  H           1     -20.341 -10.420  -0.468  0.00  0.00     0.275 HD
ENDBRANCH   8  13
ENDBRANCH   1   8
BRANCH   2  17
HETATM   17  C           1     -20.883  -7.188  -5.076  0.00  0.00     0.196 C 
HETATM   18  O           1     -20.955  -7.258  -6.322  0.00  0.00    -0.646 OA
HETATM   19  O           1     -21.407  -6.227  -4.473  0.00  0.00    -0.646 OA
ENDBRANCH   2  17
TORSDOF 5
ENDMDL
MODEL 9
REMARK VINA RESULT:      -4.9     17.254     19.113
REMARK  5 active torsions:
REMARK  status: ('A' for Active; 'I' for Inactive)
REMARK    1  A    between atoms: C_1  and  C_6 
REMARK    2  A    between atoms: C_3  and  C_5 
REMARK    3  A    between atoms: C_3  and  C_11 
REMARK    4  A    between atoms: C_3  and  N_14 
REMARK       I    between atoms: C_5  and  N_18 
REMARK    5  A    between atoms: C_11  and  O_12 
ROOT
HETATM    1  C           1     -21.925  -9.447  -1.944  0.00  0.00     0.253 C 
HETATM    2  C           1     -21.275  -8.774  -4.303  0.00  0.00     0.188 C 
HETATM    3  C           1     -21.852  -7.543  -4.979  0.00  0.00     0.038 C 
HETATM    4  C           1     -21.818  -6.452  -3.914  0.00  0.00     0.022 C 
HETATM    5  C           1     -21.230  -7.120  -2.683  0.00  0.00     0.127 C 
HETATM    6  N           1     -21.517  -8.538  -2.883  0.00  0.00    -0.336 N 
HETATM    7  O           1     -22.124 -10.595  -2.262  0.00  0.00    -0.271 OA
ENDROOT
BRANCH   1   8
HETATM    8  C           1     -22.124  -9.014  -0.512  0.00  0.00     0.302 C 
BRANCH   8   9
HETATM    9  C           1     -21.019  -9.602   0.355  0.00  0.00     0.153 C 
HETATM   10  C           1     -20.880  -8.778   1.628  0.00  0.00     0.042 C 
BRANCH   9  11
HETATM   11  O           1     -21.339 -10.925   0.688  0.00  0.00    -0.393 OA
HETATM   12  H           1     -22.248 -10.933   0.936  0.00  0.00     0.210 HD
ENDBRANCH   9  11
ENDBRANCH   8   9
BRANCH   8  13
HETATM   13  N           1     -23.456  -9.503  -0.024  0.00  0.00    -0.064 N 
HETATM   14  H           1     -23.849  -8.818   0.659  0.00  0.00     0.275 HD
HETATM   15  H           1     -23.336 -10.431   0.442  0.00  0.00     0.275 HD
HETATM   16  H           1     -24.109  -9.602  -0.834  0.00  0.00     0.275 HD
ENDBRANCH   8  13
ENDBRANCH   1   8
BRANCH   2  17
HETATM   17  C           1     -19.798  -8.897  -4.583  0.00  0.00     0.196 C 
HETATM   18  O           1     -19.050  -9.468  -3.760  0.00  0.00    -0.646 OA
HETATM   19  O           1     -19.321  -8.429  -5.640  0.00  0.00    -0.646 OA
ENDBRANCH   2  17
TORSDOF 5
ENDMDL
