MODEL 1
REMARK VINA RESULT:      -6.7      0.000      0.000
REMARK  11 active torsions:
REMARK  status: ('A' for Active; 'I' for Inactive)
REMARK    1  A    between atoms: C_1  and  C_2 
REMARK    2  A    between atoms: C_1  and  O_27 
REMARK    3  A    between atoms: C_2  and  C_3 
REMARK    4  A    between atoms: C_2  and  N_22 
REMARK       I    between atoms: C_3  and  N_4 
REMARK    5  A    between atoms: N_4  and  C_8 
REMARK    6  A    between atoms: C_7  and  C_8 
REMARK    7  A    between atoms: C_8  and  C_9 
REMARK    8  A    between atoms: C_9  and  C_10 
REMARK    9  A    between atoms: C_10  and  C_12 
REMARK       I    between atoms: N_11  and  C_12 
REMARK   10  A    between atoms: O_25  and  P_26 
REMARK   11  A    between atoms: P_26  and  O_27 
ROOT
HETATM    1  C           1     -21.687  -4.508  -7.939  0.00  0.00     0.251 C 
HETATM    2  N           1     -22.196  -4.810  -9.174  0.00  0.00    -0.345 N 
HETATM    3  H           1     -22.133  -5.756  -9.529  0.00  0.00     0.163 HD
HETATM    4  O           1     -21.761  -3.379  -7.515  0.00  0.00    -0.271 OA
ENDROOT
BRANCH   1   5
HETATM    5  C           1     -21.035  -5.585  -7.107  0.00  0.00     0.298 C 
BRANCH   5   6
HETATM    6  C           1     -20.686  -5.026  -5.734  0.00  0.00     0.224 C 
BRANCH   6   7
HETATM    7  O           1     -20.422  -6.084  -4.852  0.00  0.00    -0.287 OA
BRANCH   7   8
HETATM    8  P           1     -21.713  -6.790  -4.187  0.00  0.00     0.406 P 
HETATM    9  O           1     -21.684  -6.589  -2.720  0.00  0.00    -0.624 OA
HETATM   10  O           1     -21.691  -8.239  -4.488  0.00  0.00    -0.624 OA
BRANCH   8  11
HETATM   11  O           1     -23.059  -6.134  -4.793  0.00  0.00    -0.300 OA
HETATM   12  H           1     -23.364  -5.542  -4.126  0.00  0.00     0.223 HD
ENDBRANCH   8  11
ENDBRANCH   7   8
ENDBRANCH   6   7
ENDBRANCH   5   6
BRANCH   5  13
HETATM   13  N           1     -19.784  -6.054  -7.788  0.00  0.00    -0.064 N 
HETATM   14  H           1     -19.324  -5.245  -8.265  0.00  0.00     0.275 HD
HETATM   15  H           1     -20.025  -6.785  -8.495  0.00  0.00     0.275 HD
HETATM   16  H           1     -19.131  -6.458  -7.080  0.00  0.00     0.275 HD
ENDBRANCH   5  13
ENDBRANCH   1   5
BRANCH   2  17
HETATM   17  C           1     -22.821  -3.776  -9.973  0.00  0.00     0.186 C 
BRANCH  17  18
HETATM   18  C           1     -24.320  -3.847  -9.804  0.00  0.00     0.196 C 
HETATM   19  O           1     -24.980  -2.800  -9.642  0.00  0.00    -0.646 OA
HETATM   20  O           1     -24.899  -4.955  -9.826  0.00  0.00    -0.646 OA
ENDBRANCH  17  18
BRANCH  17  21
HETATM   21  C           1     -22.466  -3.982 -11.439  0.00  0.00     0.045 C 
BRANCH  21  22
HETATM   22  C           1     -22.427  -2.635 -12.148  0.00  0.00     0.105 C 
BRANCH  22  23
HETATM   23  C           1     -23.212  -2.718 -13.434  0.00  0.00     0.215 C 
HETATM   24  N           1     -22.571  -3.000 -14.610  0.00  0.00    -0.370 N 
HETATM   25  H           1     -21.571  -3.153 -14.617  0.00  0.00     0.159 HD
HETATM   26  H           1     -23.098  -3.056 -15.472  0.00  0.00     0.159 HD
HETATM   27  O           1     -24.406  -2.536 -13.425  0.00  0.00    -0.274 OA
ENDBRANCH  22  23
ENDBRANCH  21  22
ENDBRANCH  17  21
ENDBRANCH   2  17
TORSDOF 11
ENDMDL
MODEL 2
REMARK VINA RESULT:      -6.4      3.154      8.032
REMARK  11 active torsions:
REMARK  status: ('A' for Active; 'I' for Inactive)
REMARK    1  A    between atoms: C_1  and  C_2 
REMARK    2  A    between atoms: C_1  and  O_27 
REMARK    3  A    between atoms: C_2  and  C_3 
REMARK    4  A    between atoms: C_2  and  N_22 
REMARK       I    between atoms: C_3  and  N_4 
REMARK    5  A    between atoms: N_4  and  C_8 
REMARK    6  A    between atoms: C_7  and  C_8 
REMARK    7  A    between atoms: C_8  and  C_9 
REMARK    8  A    between atoms: C_9  and  C_10 
REMARK    9  A    between atoms: C_10  and  C_12 
REMARK       I    between atoms: N_11  and  C_12 
REMARK   10  A    between atoms: O_25  and  P_26 
REMARK   11  A    between atoms: P_26  and  O_27 
ROOT
HETATM    1  C           1     -22.517  -4.298  -8.571  0.00  0.00     0.251 C 
HETATM    2  N           1     -22.219  -5.371  -7.776  0.00  0.00    -0.345 N 
HETATM    3  H           1     -22.565  -6.292  -8.016  0.00  0.00     0.163 HD
HETATM    4  O           1     -22.104  -3.200  -8.283  0.00  0.00    -0.271 OA
ENDROOT
BRANCH   1   5
HETATM    5  C           1     -23.361  -4.487  -9.808  0.00  0.00     0.298 C 
BRANCH   5   6
HETATM    6  C           1     -23.021  -3.406 -10.826  0.00  0.00     0.224 C 
BRANCH   6   7
HETATM    7  O           1     -24.132  -3.172 -11.648  0.00  0.00    -0.287 OA
BRANCH   7   8
HETATM    8  P           1     -23.833  -3.078 -13.232  0.00  0.00     0.406 P 
HETATM    9  O           1     -22.378  -2.918 -13.450  0.00  0.00    -0.624 OA
HETATM   10  O           1     -24.550  -1.914 -13.800  0.00  0.00    -0.624 OA
BRANCH   8  11
HETATM   11  O           1     -24.340  -4.429 -13.958  0.00  0.00    -0.300 OA
HETATM   12  H           1     -24.090  -5.127 -13.377  0.00  0.00     0.223 HD
ENDBRANCH   8  11
ENDBRANCH   7   8
ENDBRANCH   6   7
ENDBRANCH   5   6
BRANCH   5  13
HETATM   13  N           1     -24.812  -4.389  -9.442  0.00  0.00    -0.064 N 
HETATM   14  H           1     -25.209  -3.501  -9.826  0.00  0.00     0.275 HD
HETATM   15  H           1     -24.910  -4.394  -8.402  0.00  0.00     0.275 HD
HETATM   16  H           1     -25.329  -5.204  -9.843  0.00  0.00     0.275 HD
ENDBRANCH   5  13
ENDBRANCH   1   5
BRANCH   2  17
HETATM   17  C           1     -21.409  -5.191  -6.587  0.00  0.00     0.186 C 
BRANCH  17  18
HETATM   18  C           1     -19.969  -5.513  -6.907  0.00  0.00     0.196 C 
HETATM   19  O           1     -19.637  -6.686  -7.180  0.00  0.00    -0.646 OA
HETATM   20  O           1     -19.109  -4.605  -6.900  0.00  0.00    -0.646 OA
ENDBRANCH  17  18
BRANCH  17  21
HETATM   21  C           1     -21.905  -6.120  -5.488  0.00  0.00     0.045 C 
BRANCH  21  22
HETATM   22  C           1     -21.085  -5.896  -4.224  0.00  0.00     0.105 C 
BRANCH  22  23
HETATM   23  C           1     -21.751  -6.592  -3.062  0.00  0.00     0.215 C 
HETATM   24  N           1     -22.426  -5.862  -2.122  0.00  0.00    -0.370 N 
HETATM   25  H           1     -22.479  -4.855  -2.206  0.00  0.00     0.159 HD
HETATM   26  H           1     -22.872  -6.329  -1.343  0.00  0.00     0.159 HD
HETATM   27  O           1     -21.687  -7.794  -2.962  0.00  0.00    -0.274 OA
ENDBRANCH  22  23
ENDBRANCH  21  22
ENDBRANCH  17  21
ENDBRANCH   2  17
TORSDOF 11
ENDMDL
MODEL 3
REMARK VINA RESULT:      -6.2      3.251      7.912
REMARK  11 active torsions:
REMARK  status: ('A' for Active; 'I' for Inactive)
REMARK    1  A    between atoms: C_1  and  C_2 
REMARK    2  A    between atoms: C_1  and  O_27 
REMARK    3  A    between atoms: C_2  and  C_3 
REMARK    4  A    between atoms: C_2  and  N_22 
REMARK       I    between atoms: C_3  and  N_4 
REMARK    5  A    between atoms: N_4  and  C_8 
REMARK    6  A    between atoms: C_7  and  C_8 
REMARK    7  A    between atoms: C_8  and  C_9 
REMARK    8  A    between atoms: C_9  and  C_10 
REMARK    9  A    between atoms: C_10  and  C_12 
REMARK       I    between atoms: N_11  and  C_12 
REMARK   10  A    between atoms: O_25  and  P_26 
REMARK   11  A    between atoms: P_26  and  O_27 
ROOT
HETATM    1  C           1     -20.885  -4.817  -6.538  0.00  0.00     0.251 C 
HETATM    2  N           1     -21.565  -5.877  -6.002  0.00  0.00    -0.345 N 
HETATM    3  H           1     -22.387  -6.240  -6.470  0.00  0.00     0.163 HD
HETATM    4  O           1     -19.906  -4.383  -5.979  0.00  0.00    -0.271 OA
ENDROOT
BRANCH   1   5
HETATM    5  C           1     -21.359  -4.189  -7.826  0.00  0.00     0.298 C 
BRANCH   5   6
HETATM    6  C           1     -22.867  -4.362  -7.952  0.00  0.00     0.224 C 
BRANCH   6   7
HETATM    7  O           1     -23.394  -3.321  -8.728  0.00  0.00    -0.287 OA
BRANCH   7   8
HETATM    8  P           1     -23.916  -3.729 -10.200  0.00  0.00     0.406 P 
HETATM    9  O           1     -25.339  -3.346 -10.343  0.00  0.00    -0.624 OA
HETATM   10  O           1     -23.776  -5.191 -10.385  0.00  0.00    -0.624 OA
BRANCH   8  11
HETATM   11  O           1     -23.038  -2.960 -11.317  0.00  0.00    -0.300 OA
HETATM   12  H           1     -22.913  -2.092 -10.974  0.00  0.00     0.223 HD
ENDBRANCH   8  11
ENDBRANCH   7   8
ENDBRANCH   6   7
ENDBRANCH   5   6
BRANCH   5  13
HETATM   13  N           1     -20.681  -4.856  -8.986  0.00  0.00    -0.064 N 
HETATM   14  H           1     -20.050  -4.170  -9.461  0.00  0.00     0.275 HD
HETATM   15  H           1     -21.401  -5.194  -9.663  0.00  0.00     0.275 HD
HETATM   16  H           1     -20.118  -5.667  -8.643  0.00  0.00     0.275 HD
ENDBRANCH   5  13
ENDBRANCH   1   5
BRANCH   2  17
HETATM   17  C           1     -21.111  -6.480  -4.765  0.00  0.00     0.186 C 
BRANCH  17  18
HETATM   18  C           1     -20.620  -7.881  -5.039  0.00  0.00     0.196 C 
HETATM   19  O           1     -19.797  -8.416  -4.267  0.00  0.00    -0.646 OA
HETATM   20  O           1     -21.037  -8.505  -6.039  0.00  0.00    -0.646 OA
ENDBRANCH  17  18
BRANCH  17  21
HETATM   21  C           1     -22.264  -6.531  -3.772  0.00  0.00     0.045 C 
BRANCH  21  22
HETATM   22  C           1     -21.784  -6.050  -2.409  0.00  0.00     0.105 C 
BRANCH  22  23
HETATM   23  C           1     -22.006  -7.134  -1.384  0.00  0.00     0.215 C 
HETATM   24  N           1     -21.270  -8.287  -1.437  0.00  0.00    -0.370 N 
HETATM   25  H           1     -20.577  -8.412  -2.163  0.00  0.00     0.159 HD
HETATM   26  H           1     -21.419  -9.014  -0.748  0.00  0.00     0.159 HD
HETATM   27  O           1     -22.833  -6.985  -0.517  0.00  0.00    -0.274 OA
ENDBRANCH  22  23
ENDBRANCH  21  22
ENDBRANCH  17  21
ENDBRANCH   2  17
TORSDOF 11
ENDMDL
MODEL 4
REMARK VINA RESULT:      -6.2      1.610      2.155
REMARK  11 active torsions:
REMARK  status: ('A' for Active; 'I' for Inactive)
REMARK    1  A    between atoms: C_1  and  C_2 
REMARK    2  A    between atoms: C_1  and  O_27 
REMARK    3  A    between atoms: C_2  and  C_3 
REMARK    4  A    between atoms: C_2  and  N_22 
REMARK       I    between atoms: C_3  and  N_4 
REMARK    5  A    between atoms: N_4  and  C_8 
REMARK    6  A    between atoms: C_7  and  C_8 
REMARK    7  A    between atoms: C_8  and  C_9 
REMARK    8  A    between atoms: C_9  and  C_10 
REMARK    9  A    between atoms: C_10  and  C_12 
REMARK       I    between atoms: N_11  and  C_12 
REMARK   10  A    between atoms: O_25  and  P_26 
REMARK   11  A    between atoms: P_26  and  O_27 
ROOT
HETATM    1  C           1     -21.580  -4.323  -7.119  0.00  0.00     0.251 C 
HETATM    2  N           1     -22.578  -4.624  -8.007  0.00  0.00    -0.345 N 
HETATM    3  H           1     -23.156  -5.442  -7.861  0.00  0.00     0.163 HD
HETATM    4  O           1     -20.889  -3.348  -7.295  0.00  0.00    -0.271 OA
ENDROOT
BRANCH   1   5
HETATM    5  C           1     -21.343  -5.210  -5.922  0.00  0.00     0.298 C 
BRANCH   5   6
HETATM    6  C           1     -20.366  -6.318  -6.294  0.00  0.00     0.224 C 
BRANCH   6   7
HETATM    7  O           1     -21.000  -7.562  -6.167  0.00  0.00    -0.287 OA
BRANCH   7   8
HETATM    8  P           1     -20.507  -8.485  -4.937  0.00  0.00     0.406 P 
HETATM    9  O           1     -21.345  -9.704  -4.870  0.00  0.00    -0.624 OA
HETATM   10  O           1     -20.633  -7.728  -3.672  0.00  0.00    -0.624 OA
BRANCH   8  11
HETATM   11  O           1     -18.964  -8.905  -5.162  0.00  0.00    -0.300 OA
HETATM   12  H           1     -18.840  -9.674  -4.631  0.00  0.00     0.223 HD
ENDBRANCH   8  11
ENDBRANCH   7   8
ENDBRANCH   6   7
ENDBRANCH   5   6
BRANCH   5  13
HETATM   13  N           1     -22.643  -5.817  -5.484  0.00  0.00    -0.064 N 
HETATM   14  H           1     -23.252  -5.074  -5.070  0.00  0.00     0.275 HD
HETATM   15  H           1     -22.459  -6.556  -4.768  0.00  0.00     0.275 HD
HETATM   16  H           1     -23.125  -6.243  -6.307  0.00  0.00     0.275 HD
ENDBRANCH   5  13
ENDBRANCH   1   5
BRANCH   2  17
HETATM   17  C           1     -22.805  -3.773  -9.158  0.00  0.00     0.186 C 
BRANCH  17  18
HETATM   18  C           1     -24.272  -3.793  -9.515  0.00  0.00     0.196 C 
HETATM   19  O           1     -24.797  -4.843  -9.942  0.00  0.00    -0.646 OA
HETATM   20  O           1     -24.961  -2.758  -9.383  0.00  0.00    -0.646 OA
ENDBRANCH  17  18
BRANCH  17  21
HETATM   21  C           1     -21.989  -4.285 -10.338  0.00  0.00     0.045 C 
BRANCH  21  22
HETATM   22  C           1     -21.790  -3.160 -11.345  0.00  0.00     0.105 C 
BRANCH  22  23
HETATM   23  C           1     -22.850  -3.249 -12.415  0.00  0.00     0.215 C 
HETATM   24  N           1     -23.388  -4.462 -12.747  0.00  0.00    -0.370 N 
HETATM   25  H           1     -23.075  -5.301 -12.274  0.00  0.00     0.159 HD
HETATM   26  H           1     -24.099  -4.522 -13.465  0.00  0.00     0.159 HD
HETATM   27  O           1     -23.223  -2.248 -12.980  0.00  0.00    -0.274 OA
ENDBRANCH  22  23
ENDBRANCH  21  22
ENDBRANCH  17  21
ENDBRANCH   2  17
TORSDOF 11
ENDMDL
MODEL 5
REMARK VINA RESULT:      -6.0      3.077      5.044
REMARK  11 active torsions:
REMARK  status: ('A' for Active; 'I' for Inactive)
REMARK    1  A    between atoms: C_1  and  C_2 
REMARK    2  A    between atoms: C_1  and  O_27 
REMARK    3  A    between atoms: C_2  and  C_3 
REMARK    4  A    between atoms: C_2  and  N_22 
REMARK       I    between atoms: C_3  and  N_4 
REMARK    5  A    between atoms: N_4  and  C_8 
REMARK    6  A    between atoms: C_7  and  C_8 
REMARK    7  A    between atoms: C_8  and  C_9 
REMARK    8  A    between atoms: C_9  and  C_10 
REMARK    9  A    between atoms: C_10  and  C_12 
REMARK       I    between atoms: N_11  and  C_12 
REMARK   10  A    between atoms: O_25  and  P_26 
REMARK   11  A    between atoms: P_26  and  O_27 
ROOT
HETATM    1  C           1     -21.556  -6.590  -4.322  0.00  0.00     0.251 C 
HETATM    2  N           1     -21.138  -5.531  -5.081  0.00  0.00    -0.345 N 
HETATM    3  H           1     -20.671  -4.747  -4.642  0.00  0.00     0.163 HD
HETATM    4  O           1     -22.115  -7.525  -4.845  0.00  0.00    -0.271 OA
ENDROOT
BRANCH   1   5
HETATM    5  C           1     -21.322  -6.590  -2.831  0.00  0.00     0.298 C 
BRANCH   5   6
HETATM    6  C           1     -21.339  -8.023  -2.314  0.00  0.00     0.224 C 
BRANCH   6   7
HETATM    7  O           1     -20.806  -8.058  -1.017  0.00  0.00    -0.287 OA
BRANCH   7   8
HETATM    8  P           1     -21.787  -8.621   0.135  0.00  0.00     0.406 P 
HETATM    9  O           1     -22.167 -10.017  -0.180  0.00  0.00    -0.624 OA
HETATM   10  O           1     -23.003  -7.780   0.202  0.00  0.00    -0.624 OA
BRANCH   8  11
HETATM   11  O           1     -21.025  -8.580   1.559  0.00  0.00    -0.300 OA
HETATM   12  H           1     -21.483  -7.929   2.063  0.00  0.00     0.223 HD
ENDBRANCH   8  11
ENDBRANCH   7   8
ENDBRANCH   6   7
ENDBRANCH   5   6
BRANCH   5  13
HETATM   13  N           1     -22.403  -5.802  -2.155  0.00  0.00    -0.064 N 
HETATM   14  H           1     -22.459  -6.080  -1.148  0.00  0.00     0.275 HD
HETATM   15  H           1     -23.318  -5.995  -2.620  0.00  0.00     0.275 HD
HETATM   16  H           1     -22.187  -4.782  -2.223  0.00  0.00     0.275 HD
ENDBRANCH   5  13
ENDBRANCH   1   5
BRANCH   2  17
HETATM   17  C           1     -21.364  -5.529  -6.512  0.00  0.00     0.186 C 
BRANCH  17  18
HETATM   18  C           1     -20.061  -5.793  -7.227  0.00  0.00     0.196 C 
HETATM   19  O           1     -19.448  -6.864  -7.033  0.00  0.00    -0.646 OA
HETATM   20  O           1     -19.595  -4.939  -8.013  0.00  0.00    -0.646 OA
ENDBRANCH  17  18
BRANCH  17  21
HETATM   21  C           1     -21.912  -4.174  -6.939  0.00  0.00     0.045 C 
BRANCH  21  22
HETATM   22  C           1     -23.228  -4.368  -7.680  0.00  0.00     0.105 C 
BRANCH  22  23
HETATM   23  C           1     -23.116  -3.787  -9.068  0.00  0.00     0.215 C 
HETATM   24  N           1     -21.917  -3.814  -9.726  0.00  0.00    -0.370 N 
HETATM   25  H           1     -21.105  -4.224  -9.283  0.00  0.00     0.159 HD
HETATM   26  H           1     -21.842  -3.424 -10.658  0.00  0.00     0.159 HD
HETATM   27  O           1     -24.085  -3.298  -9.598  0.00  0.00    -0.274 OA
ENDBRANCH  22  23
ENDBRANCH  21  22
ENDBRANCH  17  21
ENDBRANCH   2  17
TORSDOF 11
ENDMDL
MODEL 6
REMARK VINA RESULT:      -6.0      3.163      7.976
REMARK  11 active torsions:
REMARK  status: ('A' for Active; 'I' for Inactive)
REMARK    1  A    between atoms: C_1  and  C_2 
REMARK    2  A    between atoms: C_1  and  O_27 
REMARK    3  A    between atoms: C_2  and  C_3 
REMARK    4  A    between atoms: C_2  and  N_22 
REMARK       I    between atoms: C_3  and  N_4 
REMARK    5  A    between atoms: N_4  and  C_8 
REMARK    6  A    between atoms: C_7  and  C_8 
REMARK    7  A    between atoms: C_8  and  C_9 
REMARK    8  A    between atoms: C_9  and  C_10 
REMARK    9  A    between atoms: C_10  and  C_12 
REMARK       I    between atoms: N_11  and  C_12 
REMARK   10  A    between atoms: O_25  and  P_26 
REMARK   11  A    between atoms: P_26  and  O_27 
ROOT
HETATM    1  C           1     -21.338  -5.110  -7.651  0.00  0.00     0.251 C 
HETATM    2  N           1     -21.558  -5.943  -6.588  0.00  0.00    -0.345 N 
HETATM    3  H           1     -22.481  -6.326  -6.427  0.00  0.00     0.163 HD
HETATM    4  O           1     -20.237  -4.652  -7.842  0.00  0.00    -0.271 OA
ENDROOT
BRANCH   1   5
HETATM    5  C           1     -22.472  -4.763  -8.585  0.00  0.00     0.298 C 
BRANCH   5   6
HETATM    6  C           1     -21.972  -3.804  -9.658  0.00  0.00     0.224 C 
BRANCH   6   7
HETATM    7  O           1     -22.341  -4.283 -10.922  0.00  0.00    -0.287 OA
BRANCH   7   8
HETATM    8  P           1     -23.500  -3.455 -11.683  0.00  0.00     0.406 P 
HETATM    9  O           1     -24.089  -4.297 -12.748  0.00  0.00    -0.624 OA
HETATM   10  O           1     -22.920  -2.233 -12.282  0.00  0.00    -0.624 OA
BRANCH   8  11
HETATM   11  O           1     -24.651  -3.043 -10.626  0.00  0.00    -0.300 OA
HETATM   12  H           1     -24.310  -3.294  -9.784  0.00  0.00     0.223 HD
ENDBRANCH   8  11
ENDBRANCH   7   8
ENDBRANCH   6   7
ENDBRANCH   5   6
BRANCH   5  13
HETATM   13  N           1     -23.577  -4.111  -7.808  0.00  0.00    -0.064 N 
HETATM   14  H           1     -24.497  -4.347  -8.248  0.00  0.00     0.275 HD
HETATM   15  H           1     -23.444  -3.075  -7.814  0.00  0.00     0.275 HD
HETATM   16  H           1     -23.563  -4.457  -6.823  0.00  0.00     0.275 HD
ENDBRANCH   5  13
ENDBRANCH   1   5
BRANCH   2  17
HETATM   17  C           1     -20.470  -6.276  -5.690  0.00  0.00     0.186 C 
BRANCH  17  18
HETATM   18  C           1     -20.351  -7.777  -5.580  0.00  0.00     0.196 C 
HETATM   19  O           1     -21.225  -8.511  -6.088  0.00  0.00    -0.646 OA
HETATM   20  O           1     -19.378  -8.284  -4.980  0.00  0.00    -0.646 OA
ENDBRANCH  17  18
BRANCH  17  21
HETATM   21  C           1     -20.747  -5.686  -4.314  0.00  0.00     0.045 C 
BRANCH  21  22
HETATM   22  C           1     -21.945  -6.390  -3.690  0.00  0.00     0.105 C 
BRANCH  22  23
HETATM   23  C           1     -21.633  -6.740  -2.256  0.00  0.00     0.215 C 
HETATM   24  N           1     -22.405  -6.237  -1.245  0.00  0.00    -0.370 N 
HETATM   25  H           1     -23.186  -5.629  -1.459  0.00  0.00     0.159 HD
HETATM   26  H           1     -22.196  -6.471  -0.283  0.00  0.00     0.159 HD
HETATM   27  O           1     -20.701  -7.465  -2.001  0.00  0.00    -0.274 OA
ENDBRANCH  22  23
ENDBRANCH  21  22
ENDBRANCH  17  21
ENDBRANCH   2  17
TORSDOF 11
ENDMDL
MODEL 7
REMARK VINA RESULT:      -5.9      2.096      2.636
REMARK  11 active torsions:
REMARK  status: ('A' for Active; 'I' for Inactive)
REMARK    1  A    between atoms: C_1  and  C_2 
REMARK    2  A    between atoms: C_1  and  O_27 
REMARK    3  A    between atoms: C_2  and  C_3 
REMARK    4  A    between atoms: C_2  and  N_22 
REMARK       I    between atoms: C_3  and  N_4 
REMARK    5  A    between atoms: N_4  and  C_8 
REMARK    6  A    between atoms: C_7  and  C_8 
REMARK    7  A    between atoms: C_8  and  C_9 
REMARK    8  A    between atoms: C_9  and  C_10 
REMARK    9  A    between atoms: C_10  and  C_12 
REMARK       I    between atoms: N_11  and  C_12 
REMARK   10  A    between atoms: O_25  and  P_26 
REMARK   11  A    between atoms: P_26  and  O_27 
ROOT
HETATM    1  C           1     -21.730  -4.446  -8.299  0.00  0.00     0.251 C 
HETATM    2  N           1     -22.428  -3.682  -9.195  0.00  0.00    -0.345 N 
HETATM    3  H           1     -23.009  -2.921  -8.866  0.00  0.00     0.163 HD
HETATM    4  O           1     -21.037  -5.355  -8.691  0.00  0.00    -0.271 OA
ENDROOT
BRANCH   1   5
HETATM    5  C           1     -21.826  -4.154  -6.822  0.00  0.00     0.298 C 
BRANCH   5   6
HETATM    6  C           1     -20.538  -4.588  -6.133  0.00  0.00     0.224 C 
BRANCH   6   7
HETATM    7  O           1     -20.823  -5.598  -5.203  0.00  0.00    -0.287 OA
BRANCH   7   8
HETATM    8  P           1     -20.398  -7.095  -5.631  0.00  0.00     0.406 P 
HETATM    9  O           1     -21.596  -7.838  -6.083  0.00  0.00    -0.624 OA
HETATM   10  O           1     -19.795  -7.787  -4.470  0.00  0.00    -0.624 OA
BRANCH   8  11
HETATM   11  O           1     -19.322  -7.027  -6.835  0.00  0.00    -0.300 OA
HETATM   12  H           1     -19.653  -6.368  -7.421  0.00  0.00     0.223 HD
ENDBRANCH   8  11
ENDBRANCH   7   8
ENDBRANCH   6   7
ENDBRANCH   5   6
BRANCH   5  13
HETATM   13  N           1     -22.983  -4.907  -6.237  0.00  0.00    -0.064 N 
HETATM   14  H           1     -23.344  -5.592  -6.940  0.00  0.00     0.275 HD
HETATM   15  H           1     -23.743  -4.237  -5.983  0.00  0.00     0.275 HD
HETATM   16  H           1     -22.671  -5.419  -5.381  0.00  0.00     0.275 HD
ENDBRANCH   5  13
ENDBRANCH   1   5
BRANCH   2  17
HETATM   17  C           1     -22.337  -3.963 -10.614  0.00  0.00     0.186 C 
BRANCH  17  18
HETATM   18  C           1     -21.022  -3.447 -11.145  0.00  0.00     0.196 C 
HETATM   19  O           1     -20.106  -4.247 -11.429  0.00  0.00    -0.646 OA
HETATM   20  O           1     -20.851  -2.218 -11.301  0.00  0.00    -0.646 OA
ENDBRANCH  17  18
BRANCH  17  21
HETATM   21  C           1     -23.484  -3.276 -11.342  0.00  0.00     0.045 C 
BRANCH  21  22
HETATM   22  C           1     -23.698  -3.941 -12.696  0.00  0.00     0.105 C 
BRANCH  22  23
HETATM   23  C           1     -23.492  -2.927 -13.794  0.00  0.00     0.215 C 
HETATM   24  N           1     -22.424  -3.042 -14.640  0.00  0.00    -0.370 N 
HETATM   25  H           1     -21.771  -3.807 -14.530  0.00  0.00     0.159 HD
HETATM   26  H           1     -22.286  -2.361 -15.377  0.00  0.00     0.159 HD
HETATM   27  O           1     -24.271  -2.013 -13.925  0.00  0.00    -0.274 OA
ENDBRANCH  22  23
ENDBRANCH  21  22
ENDBRANCH  17  21
ENDBRANCH   2  17
TORSDOF 11
ENDMDL
MODEL 8
REMARK VINA RESULT:      -5.7      2.447      3.661
REMARK  11 active torsions:
REMARK  status: ('A' for Active; 'I' for Inactive)
REMARK    1  A    between atoms: C_1  and  C_2 
REMARK    2  A    between atoms: C_1  and  O_27 
REMARK    3  A    between atoms: C_2  and  C_3 
REMARK    4  A    between atoms: C_2  and  N_22 
REMARK       I    between atoms: C_3  and  N_4 
REMARK    5  A    between atoms: N_4  and  C_8 
REMARK    6  A    between atoms: C_7  and  C_8 
REMARK    7  A    between atoms: C_8  and  C_9 
REMARK    8  A    between atoms: C_9  and  C_10 
REMARK    9  A    between atoms: C_10  and  C_12 
REMARK       I    between atoms: N_11  and  C_12 
REMARK   10  A    between atoms: O_25  and  P_26 
REMARK   11  A    between atoms: P_26  and  O_27 
ROOT
HETATM    1  C           1     -21.209  -6.180  -6.108  0.00  0.00     0.251 C 
HETATM    2  N           1     -21.384  -4.938  -6.657  0.00  0.00    -0.345 N 
HETATM    3  H           1     -21.378  -4.117  -6.065  0.00  0.00     0.163 HD
HETATM    4  O           1     -21.218  -7.159  -6.814  0.00  0.00    -0.271 OA
ENDROOT
BRANCH   1   5
HETATM    5  C           1     -21.006  -6.324  -4.619  0.00  0.00     0.298 C 
BRANCH   5   6
HETATM    6  C           1     -20.458  -7.712  -4.313  0.00  0.00     0.224 C 
BRANCH   6   7
HETATM    7  O           1     -21.304  -8.358  -3.400  0.00  0.00    -0.287 OA
BRANCH   7   8
HETATM    8  P           1     -20.593  -8.957  -2.079  0.00  0.00     0.406 P 
HETATM    9  O           1     -20.656  -7.957  -0.989  0.00  0.00    -0.624 OA
HETATM   10  O           1     -19.179  -9.273  -2.381  0.00  0.00    -0.624 OA
BRANCH   8  11
HETATM   11  O           1     -21.359 -10.303  -1.618  0.00  0.00    -0.300 OA
HETATM   12  H           1     -20.820 -10.669  -0.938  0.00  0.00     0.223 HD
ENDBRANCH   8  11
ENDBRANCH   7   8
ENDBRANCH   6   7
ENDBRANCH   5   6
BRANCH   5  13
HETATM   13  N           1     -22.318  -6.139  -3.916  0.00  0.00    -0.064 N 
HETATM   14  H           1     -23.098  -6.219  -4.607  0.00  0.00     0.275 HD
HETATM   15  H           1     -22.343  -5.194  -3.470  0.00  0.00     0.275 HD
HETATM   16  H           1     -22.427  -6.873  -3.180  0.00  0.00     0.275 HD
ENDBRANCH   5  13
ENDBRANCH   1   5
BRANCH   2  17
HETATM   17  C           1     -21.580  -4.799  -8.087  0.00  0.00     0.186 C 
BRANCH  17  18
HETATM   18  C           1     -20.260  -4.477  -8.745  0.00  0.00     0.196 C 
HETATM   19  O           1     -19.300  -4.074  -8.056  0.00  0.00    -0.646 OA
HETATM   20  O           1     -20.129  -4.615  -9.981  0.00  0.00    -0.646 OA
ENDBRANCH  17  18
BRANCH  17  21
HETATM   21  C           1     -22.570  -3.673  -8.356  0.00  0.00     0.045 C 
BRANCH  21  22
HETATM   22  C           1     -23.764  -4.220  -9.127  0.00  0.00     0.105 C 
BRANCH  22  23
HETATM   23  C           1     -23.877  -3.509 -10.453  0.00  0.00     0.215 C 
HETATM   24  N           1     -22.748  -3.196 -11.161  0.00  0.00    -0.370 N 
HETATM   25  H           1     -21.837  -3.443 -10.795  0.00  0.00     0.159 HD
HETATM   26  H           1     -22.823  -2.719 -12.050  0.00  0.00     0.159 HD
HETATM   27  O           1     -24.964  -3.214 -10.890  0.00  0.00    -0.274 OA
ENDBRANCH  22  23
ENDBRANCH  21  22
ENDBRANCH  17  21
ENDBRANCH   2  17
TORSDOF 11
ENDMDL
MODEL 9
REMARK VINA RESULT:      -5.7      3.617      7.681
REMARK  11 active torsions:
REMARK  status: ('A' for Active; 'I' for Inactive)
REMARK    1  A    between atoms: C_1  and  C_2 
REMARK    2  A    between atoms: C_1  and  O_27 
REMARK    3  A    between atoms: C_2  and  C_3 
REMARK    4  A    between atoms: C_2  and  N_22 
REMARK       I    between atoms: C_3  and  N_4 
REMARK    5  A    between atoms: N_4  and  C_8 
REMARK    6  A    between atoms: C_7  and  C_8 
REMARK    7  A    between atoms: C_8  and  C_9 
REMARK    8  A    between atoms: C_9  and  C_10 
REMARK    9  A    between atoms: C_10  and  C_12 
REMARK       I    between atoms: N_11  and  C_12 
REMARK   10  A    between atoms: O_25  and  P_26 
REMARK   11  A    between atoms: P_26  and  O_27 
ROOT
HETATM    1  C           1     -21.687  -6.092  -5.412  0.00  0.00     0.251 C 
HETATM    2  N           1     -20.982  -6.857  -4.522  0.00  0.00    -0.345 N 
HETATM    3  H           1     -19.970  -6.865  -4.552  0.00  0.00     0.163 HD
HETATM    4  O           1     -22.894  -6.083  -5.377  0.00  0.00    -0.271 OA
ENDROOT
BRANCH   1   5
HETATM    5  C           1     -20.956  -5.262  -6.438  0.00  0.00     0.298 C 
BRANCH   5   6
HETATM    6  C           1     -21.961  -4.450  -7.245  0.00  0.00     0.224 C 
BRANCH   6   7
HETATM    7  O           1     -22.084  -5.000  -8.528  0.00  0.00    -0.287 OA
BRANCH   7   8
HETATM    8  P           1     -23.095  -4.239  -9.531  0.00  0.00     0.406 P 
HETATM    9  O           1     -23.735  -5.226 -10.430  0.00  0.00    -0.624 OA
HETATM   10  O           1     -22.340  -3.253 -10.337  0.00  0.00    -0.624 OA
BRANCH   8  11
HETATM   11  O           1     -24.232  -3.476  -8.675  0.00  0.00    -0.300 OA
HETATM   12  H           1     -23.760  -2.886  -8.112  0.00  0.00     0.223 HD
ENDBRANCH   8  11
ENDBRANCH   7   8
ENDBRANCH   6   7
ENDBRANCH   5   6
BRANCH   5  13
HETATM   13  N           1     -20.190  -6.165  -7.359  0.00  0.00    -0.064 N 
HETATM   14  H           1     -19.866  -5.620  -8.190  0.00  0.00     0.275 HD
HETATM   15  H           1     -20.807  -6.947  -7.673  0.00  0.00     0.275 HD
HETATM   16  H           1     -19.362  -6.556  -6.855  0.00  0.00     0.275 HD
ENDBRANCH   5  13
ENDBRANCH   1   5
BRANCH   2  17
HETATM   17  C           1     -21.683  -7.655  -3.537  0.00  0.00     0.186 C 
BRANCH  17  18
HETATM   18  C           1     -21.697  -6.925  -2.216  0.00  0.00     0.196 C 
HETATM   19  O           1     -22.296  -5.834  -2.111  0.00  0.00    -0.646 OA
HETATM   20  O           1     -21.109  -7.413  -1.226  0.00  0.00    -0.646 OA
ENDBRANCH  17  18
BRANCH  17  21
HETATM   21  C           1     -20.976  -8.994  -3.370  0.00  0.00     0.045 C 
BRANCH  21  22
HETATM   22  C           1     -21.807 -10.093  -4.018  0.00  0.00     0.105 C 
BRANCH  22  23
HETATM   23  C           1     -21.175 -10.500  -5.326  0.00  0.00     0.215 C 
HETATM   24  N           1     -21.379 -11.758  -5.823  0.00  0.00    -0.370 N 
HETATM   25  H           1     -21.954 -12.416  -5.313  0.00  0.00     0.159 HD
HETATM   26  H           1     -20.954 -12.031  -6.700  0.00  0.00     0.159 HD
HETATM   27  O           1     -20.488  -9.714  -5.934  0.00  0.00    -0.274 OA
ENDBRANCH  22  23
ENDBRANCH  21  22
ENDBRANCH  17  21
ENDBRANCH   2  17
TORSDOF 11
ENDMDL
