MODEL 1
REMARK VINA RESULT:      -6.2      0.000      0.000
REMARK  5 active torsions:
REMARK  status: ('A' for Active; 'I' for Inactive)
REMARK    1  A    between atoms: C_1  and  C_7 
REMARK    2  A    between atoms: C_4  and  O_5 
REMARK    3  A    between atoms: C_4  and  C_7 
REMARK    4  A    between atoms: C_7  and  N_13 
REMARK       I    between atoms: N_13  and  C_15 
REMARK    5  A    between atoms: C_15  and  C_19 
ROOT
HETATM    1  H           1     -24.066  -2.844 -10.929  0.00  0.00     0.255 HD
HETATM    2  H           1     -24.730  -4.208 -12.508  0.00  0.00     0.274 HD
HETATM    3  H           1     -25.221  -3.794 -10.106  0.00  0.00     0.275 HD
HETATM    4  H           1     -23.229  -4.886 -12.954  0.00  0.00     0.254 HD
HETATM    5  H           1     -24.878  -4.102 -11.747  0.00  0.00     0.275 HD
HETATM    6  C           1     -21.710  -3.378 -11.628  0.00  0.00     0.004 C 
HETATM    7  C           1     -22.300  -4.777 -11.487  0.00  0.00     0.062 C 
HETATM    8  C           1     -23.393  -4.762 -10.426  0.00  0.00     0.274 C 
HETATM    9  C           1     -22.806  -2.405 -12.042  0.00  0.00     0.047 C 
HETATM   10  N           1     -24.471  -3.802 -10.833  0.00  0.00    -0.067 N 
HETATM   11  N           1     -23.981  -4.218 -13.236  0.00  0.00    -0.080 N 
HETATM   12  C           1     -23.399  -2.843 -13.374  0.00  0.00     0.229 C 
HETATM   13  H           1     -24.388  -4.518 -14.151  0.00  0.00     0.274 HD
ENDROOT
BRANCH   8  14
HETATM   14  C           1     -22.806  -4.328  -9.104  0.00  0.00     0.249 C 
HETATM   15  N           1     -21.854  -5.098  -8.493  0.00  0.00    -0.343 N 
HETATM   16  H           1     -21.544  -5.958  -8.927  0.00  0.00     0.163 HD
HETATM   17  O           1     -23.178  -3.302  -8.587  0.00  0.00    -0.271 OA
BRANCH  15  18
HETATM   18  C           1     -21.291  -4.681  -7.223  0.00  0.00     0.214 C 
BRANCH  18  19
HETATM   19  C           1     -19.850  -4.281  -7.420  0.00  0.00     0.199 C 
HETATM   20  O           1     -18.977  -4.675  -6.617  0.00  0.00    -0.646 OA
HETATM   21  O           1     -19.528  -3.556  -8.386  0.00  0.00    -0.646 OA
ENDBRANCH  18  19
BRANCH  18  22
HETATM   22  C           1     -21.368  -5.836  -6.231  0.00  0.00     0.147 C 
HETATM   23  C           1     -22.801  -5.985  -5.738  0.00  0.00     0.042 C 
BRANCH  22  24
HETATM   24  O           1     -20.965  -7.020  -6.862  0.00  0.00    -0.393 OA
HETATM   25  H           1     -21.749  -7.488  -7.093  0.00  0.00     0.210 HD
ENDBRANCH  22  24
ENDBRANCH  18  22
ENDBRANCH  15  18
ENDBRANCH   8  14
TORSDOF 5
ENDMDL
MODEL 2
REMARK VINA RESULT:      -6.1     13.195     15.106
REMARK  5 active torsions:
REMARK  status: ('A' for Active; 'I' for Inactive)
REMARK    1  A    between atoms: C_1  and  C_7 
REMARK    2  A    between atoms: C_4  and  O_5 
REMARK    3  A    between atoms: C_4  and  C_7 
REMARK    4  A    between atoms: C_7  and  N_13 
REMARK       I    between atoms: N_13  and  C_15 
REMARK    5  A    between atoms: C_15  and  C_19 
ROOT
HETATM    1  H           1     -35.948  -3.852 -11.366  0.00  0.00     0.255 HD
HETATM    2  H           1     -34.273  -4.046  -9.970  0.00  0.00     0.274 HD
HETATM    3  H           1     -36.290  -2.617 -10.238  0.00  0.00     0.275 HD
HETATM    4  H           1     -32.969  -3.872 -11.058  0.00  0.00     0.254 HD
HETATM    5  H           1     -34.892  -3.576 -10.056  0.00  0.00     0.275 HD
HETATM    6  C           1     -34.253  -3.947 -13.222  0.00  0.00     0.004 C 
HETATM    7  C           1     -33.643  -2.881 -12.319  0.00  0.00     0.062 C 
HETATM    8  C           1     -34.753  -2.146 -11.579  0.00  0.00     0.274 C 
HETATM    9  C           1     -35.042  -4.938 -12.376  0.00  0.00     0.047 C 
HETATM   10  N           1     -35.530  -3.122 -10.747  0.00  0.00    -0.067 N 
HETATM   11  N           1     -33.511  -4.550 -10.478  0.00  0.00    -0.080 N 
HETATM   12  C           1     -34.111  -5.598 -11.367  0.00  0.00     0.229 C 
HETATM   13  H           1     -32.873  -5.004  -9.786  0.00  0.00     0.274 HD
ENDROOT
BRANCH   8  14
HETATM   14  C           1     -35.676  -1.491 -12.578  0.00  0.00     0.249 C 
HETATM   15  N           1     -35.197  -1.102 -13.800  0.00  0.00    -0.343 N 
HETATM   16  H           1     -34.224  -1.254 -14.034  0.00  0.00     0.163 HD
HETATM   17  O           1     -36.837  -1.308 -12.298  0.00  0.00    -0.271 OA
BRANCH  15  18
HETATM   18  C           1     -36.084  -0.472 -14.758  0.00  0.00     0.214 C 
BRANCH  18  19
HETATM   19  C           1     -35.748  -0.956 -16.147  0.00  0.00     0.199 C 
HETATM   20  O           1     -34.616  -1.427 -16.388  0.00  0.00    -0.646 OA
HETATM   21  O           1     -36.603  -0.887 -17.058  0.00  0.00    -0.646 OA
ENDBRANCH  18  19
BRANCH  18  22
HETATM   22  C           1     -35.910   1.041 -14.692  0.00  0.00     0.147 C 
HETATM   23  C           1     -34.550   1.368 -14.090  0.00  0.00     0.042 C 
BRANCH  22  24
HETATM   24  O           1     -35.992   1.577 -15.984  0.00  0.00    -0.393 OA
HETATM   25  H           1     -36.873   1.436 -16.284  0.00  0.00     0.210 HD
ENDBRANCH  22  24
ENDBRANCH  18  22
ENDBRANCH  15  18
ENDBRANCH   8  14
TORSDOF 5
ENDMDL
MODEL 3
REMARK VINA RESULT:      -6.0      2.341      5.685
REMARK  5 active torsions:
REMARK  status: ('A' for Active; 'I' for Inactive)
REMARK    1  A    between atoms: C_1  and  C_7 
REMARK    2  A    between atoms: C_4  and  O_5 
REMARK    3  A    between atoms: C_4  and  C_7 
REMARK    4  A    between atoms: C_7  and  N_13 
REMARK       I    between atoms: N_13  and  C_15 
REMARK    5  A    between atoms: C_15  and  C_19 
ROOT
HETATM    1  H           1     -22.030  -4.181  -6.970  0.00  0.00     0.255 HD
HETATM    2  H           1     -20.479  -3.510  -5.578  0.00  0.00     0.274 HD
HETATM    3  H           1     -21.796  -2.564  -7.462  0.00  0.00     0.275 HD
HETATM    4  H           1     -19.279  -4.681  -5.896  0.00  0.00     0.254 HD
HETATM    5  H           1     -20.871  -3.208  -6.183  0.00  0.00     0.275 HD
HETATM    6  C           1     -20.621  -6.228  -7.360  0.00  0.00     0.004 C 
HETATM    7  C           1     -19.592  -5.120  -7.550  0.00  0.00     0.062 C 
HETATM    8  C           1     -20.282  -3.871  -8.080  0.00  0.00     0.274 C 
HETATM    9  C           1     -21.679  -5.772  -6.364  0.00  0.00     0.047 C 
HETATM   10  N           1     -21.324  -3.422  -7.100  0.00  0.00    -0.067 N 
HETATM   11  N           1     -20.005  -4.368  -5.214  0.00  0.00    -0.080 N 
HETATM   12  C           1     -21.018  -5.458  -5.029  0.00  0.00     0.229 C 
HETATM   13  H           1     -19.552  -4.153  -4.297  0.00  0.00     0.274 HD
ENDROOT
BRANCH   8  14
HETATM   14  C           1     -20.938  -4.180  -9.405  0.00  0.00     0.249 C 
HETATM   15  N           1     -22.214  -3.754  -9.651  0.00  0.00    -0.343 N 
HETATM   16  H           1     -22.719  -3.232  -8.946  0.00  0.00     0.163 HD
HETATM   17  O           1     -20.335  -4.804 -10.245  0.00  0.00    -0.271 OA
BRANCH  15  18
HETATM   18  C           1     -22.844  -4.052 -10.923  0.00  0.00     0.214 C 
BRANCH  18  19
HETATM   19  C           1     -22.360  -3.073 -11.964  0.00  0.00     0.199 C 
HETATM   20  O           1     -22.239  -3.436 -13.154  0.00  0.00    -0.646 OA
HETATM   21  O           1     -22.079  -1.899 -11.637  0.00  0.00    -0.646 OA
ENDBRANCH  18  19
BRANCH  18  22
HETATM   22  C           1     -24.357  -3.934 -10.779  0.00  0.00     0.147 C 
HETATM   23  C           1     -24.691  -3.325  -9.423  0.00  0.00     0.042 C 
BRANCH  22  24
HETATM   24  O           1     -24.860  -3.113 -11.797  0.00  0.00    -0.393 OA
HETATM   25  H           1     -24.129  -2.635 -12.150  0.00  0.00     0.210 HD
ENDBRANCH  22  24
ENDBRANCH  18  22
ENDBRANCH  15  18
ENDBRANCH   8  14
TORSDOF 5
ENDMDL
MODEL 4
REMARK VINA RESULT:      -5.8      2.194      6.170
REMARK  5 active torsions:
REMARK  status: ('A' for Active; 'I' for Inactive)
REMARK    1  A    between atoms: C_1  and  C_7 
REMARK    2  A    between atoms: C_4  and  O_5 
REMARK    3  A    between atoms: C_4  and  C_7 
REMARK    4  A    between atoms: C_7  and  N_13 
REMARK       I    between atoms: N_13  and  C_15 
REMARK    5  A    between atoms: C_15  and  C_19 
ROOT
HETATM    1  H           1     -20.244  -5.072  -5.284  0.00  0.00     0.255 HD
HETATM    2  H           1     -19.302  -7.048  -5.302  0.00  0.00     0.274 HD
HETATM    3  H           1     -18.960  -4.836  -6.384  0.00  0.00     0.275 HD
HETATM    4  H           1     -20.644  -8.004  -5.749  0.00  0.00     0.254 HD
HETATM    5  H           1     -19.197  -6.364  -5.665  0.00  0.00     0.275 HD
HETATM    6  C           1     -22.445  -6.253  -5.572  0.00  0.00     0.004 C 
HETATM    7  C           1     -21.617  -6.899  -6.676  0.00  0.00     0.062 C 
HETATM    8  C           1     -20.575  -5.908  -7.175  0.00  0.00     0.274 C 
HETATM    9  C           1     -21.532  -5.855  -4.420  0.00  0.00     0.047 C 
HETATM   10  N           1     -19.676  -5.515  -6.041  0.00  0.00    -0.067 N 
HETATM   11  N           1     -20.018  -7.729  -4.960  0.00  0.00    -0.080 N 
HETATM   12  C           1     -20.833  -7.093  -3.873  0.00  0.00     0.229 C 
HETATM   13  H           1     -19.539  -8.578  -4.584  0.00  0.00     0.274 HD
ENDROOT
BRANCH   8  14
HETATM   14  C           1     -21.266  -4.680  -7.718  0.00  0.00     0.249 C 
HETATM   15  N           1     -21.972  -4.753  -8.887  0.00  0.00    -0.343 N 
HETATM   16  H           1     -22.032  -5.631  -9.388  0.00  0.00     0.163 HD
HETATM   17  O           1     -21.193  -3.633  -7.120  0.00  0.00    -0.271 OA
BRANCH  15  18
HETATM   18  C           1     -22.636  -3.574  -9.408  0.00  0.00     0.214 C 
BRANCH  18  19
HETATM   19  C           1     -24.101  -3.869  -9.609  0.00  0.00     0.199 C 
HETATM   20  O           1     -24.469  -5.021  -9.925  0.00  0.00    -0.646 OA
HETATM   21  O           1     -24.949  -2.961  -9.461  0.00  0.00    -0.646 OA
ENDBRANCH  18  19
BRANCH  18  22
HETATM   22  C           1     -22.007  -3.186 -10.741  0.00  0.00     0.147 C 
HETATM   23  C           1     -21.172  -4.347 -11.264  0.00  0.00     0.042 C 
BRANCH  22  24
HETATM   24  O           1     -23.018  -2.884 -11.663  0.00  0.00    -0.393 OA
HETATM   25  H           1     -22.769  -3.279 -12.482  0.00  0.00     0.210 HD
ENDBRANCH  22  24
ENDBRANCH  18  22
ENDBRANCH  15  18
ENDBRANCH   8  14
TORSDOF 5
ENDMDL
MODEL 5
REMARK VINA RESULT:      -5.5      1.704      2.924
REMARK  5 active torsions:
REMARK  status: ('A' for Active; 'I' for Inactive)
REMARK    1  A    between atoms: C_1  and  C_7 
REMARK    2  A    between atoms: C_4  and  O_5 
REMARK    3  A    between atoms: C_4  and  C_7 
REMARK    4  A    between atoms: C_7  and  N_13 
REMARK       I    between atoms: N_13  and  C_15 
REMARK    5  A    between atoms: C_15  and  C_19 
ROOT
HETATM    1  H           1     -21.725  -4.408 -12.130  0.00  0.00     0.255 HD
HETATM    2  H           1     -22.485  -2.392 -12.516  0.00  0.00     0.274 HD
HETATM    3  H           1     -20.299  -3.475 -12.033  0.00  0.00     0.275 HD
HETATM    4  H           1     -23.660  -2.285 -11.284  0.00  0.00     0.254 HD
HETATM    5  H           1     -21.796  -2.717 -12.344  0.00  0.00     0.275 HD
HETATM    6  C           1     -23.618  -4.675 -10.496  0.00  0.00     0.004 C 
HETATM    7  C           1     -23.031  -3.340 -10.052  0.00  0.00     0.062 C 
HETATM    8  C           1     -21.539  -3.316 -10.353  0.00  0.00     0.274 C 
HETATM    9  C           1     -23.399  -4.854 -11.992  0.00  0.00     0.047 C 
HETATM   10  N           1     -21.323  -3.493 -11.827  0.00  0.00    -0.067 N 
HETATM   11  N           1     -23.509  -2.408 -12.310  0.00  0.00    -0.080 N 
HETATM   12  C           1     -24.086  -3.722 -12.745  0.00  0.00     0.229 C 
HETATM   13  H           1     -23.981  -1.632 -12.827  0.00  0.00     0.274 HD
ENDROOT
BRANCH   8  14
HETATM   14  C           1     -20.856  -4.438  -9.608  0.00  0.00     0.249 C 
HETATM   15  N           1     -21.006  -4.548  -8.252  0.00  0.00    -0.343 N 
HETATM   16  H           1     -21.574  -3.879  -7.749  0.00  0.00     0.163 HD
HETATM   17  O           1     -20.177  -5.236 -10.208  0.00  0.00    -0.271 OA
BRANCH  15  18
HETATM   18  C           1     -20.349  -5.625  -7.536  0.00  0.00     0.214 C 
BRANCH  18  19
HETATM   19  C           1     -21.352  -6.323  -6.651  0.00  0.00     0.199 C 
HETATM   20  O           1     -22.291  -5.677  -6.138  0.00  0.00    -0.646 OA
HETATM   21  O           1     -21.243  -7.549  -6.428  0.00  0.00    -0.646 OA
ENDBRANCH  18  19
BRANCH  18  22
HETATM   22  C           1     -19.226  -5.053  -6.680  0.00  0.00     0.147 C 
HETATM   23  C           1     -18.465  -4.002  -7.478  0.00  0.00     0.042 C 
BRANCH  22  24
HETATM   24  O           1     -19.768  -4.465  -5.529  0.00  0.00    -0.393 OA
HETATM   25  H           1     -20.612  -4.122  -5.769  0.00  0.00     0.210 HD
ENDBRANCH  22  24
ENDBRANCH  18  22
ENDBRANCH  15  18
ENDBRANCH   8  14
TORSDOF 5
ENDMDL
MODEL 6
REMARK VINA RESULT:      -5.5     12.012     14.267
REMARK  5 active torsions:
REMARK  status: ('A' for Active; 'I' for Inactive)
REMARK    1  A    between atoms: C_1  and  C_7 
REMARK    2  A    between atoms: C_4  and  O_5 
REMARK    3  A    between atoms: C_4  and  C_7 
REMARK    4  A    between atoms: C_7  and  N_13 
REMARK       I    between atoms: N_13  and  C_15 
REMARK    5  A    between atoms: C_15  and  C_19 
ROOT
HETATM    1  H           1     -35.792  -4.254 -11.534  0.00  0.00     0.255 HD
HETATM    2  H           1     -35.095  -6.007 -10.425  0.00  0.00     0.274 HD
HETATM    3  H           1     -36.160  -3.816  -9.925  0.00  0.00     0.275 HD
HETATM    4  H           1     -33.471  -6.052 -10.948  0.00  0.00     0.254 HD
HETATM    5  H           1     -35.409  -5.312 -10.253  0.00  0.00     0.275 HD
HETATM    6  C           1     -33.593  -4.302 -12.753  0.00  0.00     0.004 C 
HETATM    7  C           1     -33.129  -4.384 -11.303  0.00  0.00     0.062 C 
HETATM    8  C           1     -34.128  -3.663 -10.409  0.00  0.00     0.274 C 
HETATM    9  C           1     -34.960  -4.960 -12.886  0.00  0.00     0.047 C 
HETATM   10  N           1     -35.475  -4.310 -10.541  0.00  0.00    -0.067 N 
HETATM   11  N           1     -34.409  -6.502 -11.038  0.00  0.00    -0.080 N 
HETATM   12  C           1     -34.865  -6.420 -12.465  0.00  0.00     0.229 C 
HETATM   13  H           1     -34.344  -7.504 -10.750  0.00  0.00     0.274 HD
ENDROOT
BRANCH   8  14
HETATM   14  C           1     -34.224  -2.215 -10.825  0.00  0.00     0.249 C 
HETATM   15  N           1     -35.331  -1.767 -11.492  0.00  0.00    -0.343 N 
HETATM   16  H           1     -36.087  -2.406 -11.706  0.00  0.00     0.163 HD
HETATM   17  O           1     -33.322  -1.453 -10.570  0.00  0.00    -0.271 OA
BRANCH  15  18
HETATM   18  C           1     -35.423  -0.376 -11.892  0.00  0.00     0.214 C 
BRANCH  18  19
HETATM   19  C           1     -36.595   0.271 -11.196  0.00  0.00     0.199 C 
HETATM   20  O           1     -37.723   0.262 -11.733  0.00  0.00    -0.646 OA
HETATM   21  O           1     -36.437   0.816 -10.082  0.00  0.00    -0.646 OA
ENDBRANCH  18  19
BRANCH  18  22
HETATM   22  C           1     -35.620  -0.295 -13.401  0.00  0.00     0.147 C 
HETATM   23  C           1     -34.818   0.876 -13.955  0.00  0.00     0.042 C 
BRANCH  22  24
HETATM   24  O           1     -35.179  -1.486 -13.994  0.00  0.00    -0.393 OA
HETATM   25  H           1     -34.845  -1.260 -14.846  0.00  0.00     0.210 HD
ENDBRANCH  22  24
ENDBRANCH  18  22
ENDBRANCH  15  18
ENDBRANCH   8  14
TORSDOF 5
ENDMDL
MODEL 7
REMARK VINA RESULT:      -5.3      6.471      9.663
REMARK  5 active torsions:
REMARK  status: ('A' for Active; 'I' for Inactive)
REMARK    1  A    between atoms: C_1  and  C_7 
REMARK    2  A    between atoms: C_4  and  O_5 
REMARK    3  A    between atoms: C_4  and  C_7 
REMARK    4  A    between atoms: C_7  and  N_13 
REMARK       I    between atoms: N_13  and  C_15 
REMARK    5  A    between atoms: C_15  and  C_19 
ROOT
HETATM    1  H           1     -20.197  -8.935  -0.874  0.00  0.00     0.255 HD
HETATM    2  H           1     -19.793 -10.680   0.385  0.00  0.00     0.274 HD
HETATM    3  H           1     -19.247  -9.900  -1.913  0.00  0.00     0.275 HD
HETATM    4  H           1     -21.392 -11.145   0.757  0.00  0.00     0.254 HD
HETATM    5  H           1     -19.633 -10.456  -0.347  0.00  0.00     0.275 HD
HETATM    6  C           1     -22.607  -9.153  -0.190  0.00  0.00     0.004 C 
HETATM    7  C           1     -22.292 -10.581  -0.621  0.00  0.00     0.062 C 
HETATM    8  C           1     -21.223 -10.560  -1.705  0.00  0.00     0.274 C 
HETATM    9  C           1     -21.345  -8.498   0.355  0.00  0.00     0.047 C 
HETATM   10  N           1     -19.981  -9.913  -1.169  0.00  0.00    -0.067 N 
HETATM   11  N           1     -20.526 -10.695   1.129  0.00  0.00    -0.080 N 
HETATM   12  C           1     -20.837  -9.290   1.552  0.00  0.00     0.229 C 
HETATM   13  H           1     -20.178 -11.238   1.951  0.00  0.00     0.274 HD
ENDROOT
BRANCH   8  14
HETATM   14  C           1     -21.726  -9.775  -2.893  0.00  0.00     0.249 C 
HETATM   15  N           1     -21.218  -8.531  -3.155  0.00  0.00    -0.343 N 
HETATM   16  H           1     -20.506  -8.138  -2.553  0.00  0.00     0.163 HD
HETATM   17  O           1     -22.576 -10.245  -3.611  0.00  0.00    -0.271 OA
BRANCH  15  18
HETATM   18  C           1     -21.701  -7.777  -4.296  0.00  0.00     0.214 C 
BRANCH  18  19
HETATM   19  C           1     -20.672  -7.820  -5.398  0.00  0.00     0.199 C 
HETATM   20  O           1     -19.521  -8.246  -5.163  0.00  0.00    -0.646 OA
HETATM   21  O           1     -20.970  -7.428  -6.548  0.00  0.00    -0.646 OA
ENDBRANCH  18  19
BRANCH  18  22
HETATM   22  C           1     -21.943  -6.331  -3.881  0.00  0.00     0.147 C 
HETATM   23  C           1     -21.930  -6.230  -2.362  0.00  0.00     0.042 C 
BRANCH  22  24
HETATM   24  O           1     -20.934  -5.518  -4.413  0.00  0.00    -0.393 OA
HETATM   25  H           1     -21.041  -4.663  -4.032  0.00  0.00     0.210 HD
ENDBRANCH  22  24
ENDBRANCH  18  22
ENDBRANCH  15  18
ENDBRANCH   8  14
TORSDOF 5
ENDMDL
MODEL 8
REMARK VINA RESULT:      -5.2      3.601      5.629
REMARK  5 active torsions:
REMARK  status: ('A' for Active; 'I' for Inactive)
REMARK    1  A    between atoms: C_1  and  C_7 
REMARK    2  A    between atoms: C_4  and  O_5 
REMARK    3  A    between atoms: C_4  and  C_7 
REMARK    4  A    between atoms: C_7  and  N_13 
REMARK       I    between atoms: N_13  and  C_15 
REMARK    5  A    between atoms: C_15  and  C_19 
ROOT
HETATM    1  H           1     -20.898  -6.387  -7.952  0.00  0.00     0.255 HD
HETATM    2  H           1     -19.237  -5.053  -8.459  0.00  0.00     0.274 HD
HETATM    3  H           1     -19.548  -7.314  -7.472  0.00  0.00     0.275 HD
HETATM    4  H           1     -19.689  -3.674  -7.561  0.00  0.00     0.254 HD
HETATM    5  H           1     -19.322  -5.756  -8.128  0.00  0.00     0.275 HD
HETATM    6  C           1     -21.993  -4.405  -6.857  0.00  0.00     0.004 C 
HETATM    7  C           1     -20.599  -4.350  -6.241  0.00  0.00     0.062 C 
HETATM    8  C           1     -20.026  -5.758  -6.155  0.00  0.00     0.274 C 
HETATM    9  C           1     -21.907  -5.005  -8.254  0.00  0.00     0.047 C 
HETATM   10  N           1     -19.943  -6.349  -7.531  0.00  0.00    -0.067 N 
HETATM   11  N           1     -19.630  -4.087  -8.519  0.00  0.00    -0.080 N 
HETATM   12  C           1     -21.002  -4.141  -9.123  0.00  0.00     0.229 C 
HETATM   13  H           1     -19.010  -3.494  -9.116  0.00  0.00     0.274 HD
ENDROOT
BRANCH   8  14
HETATM   14  C           1     -20.922  -6.615  -5.294  0.00  0.00     0.249 C 
HETATM   15  N           1     -20.997  -6.387  -3.947  0.00  0.00    -0.343 N 
HETATM   16  H           1     -20.452  -5.644  -3.528  0.00  0.00     0.163 HD
HETATM   17  O           1     -21.571  -7.502  -5.794  0.00  0.00    -0.271 OA
BRANCH  15  18
HETATM   18  C           1     -21.857  -7.211  -3.119  0.00  0.00     0.214 C 
BRANCH  18  19
HETATM   19  C           1     -22.223  -6.455  -1.866  0.00  0.00     0.199 C 
HETATM   20  O           1     -21.912  -5.250  -1.749  0.00  0.00    -0.646 OA
HETATM   21  O           1     -22.838  -7.034  -0.943  0.00  0.00    -0.646 OA
ENDBRANCH  18  19
BRANCH  18  22
HETATM   22  C           1     -21.124  -8.493  -2.744  0.00  0.00     0.147 C 
HETATM   23  C           1     -19.944  -8.156  -1.842  0.00  0.00     0.042 C 
BRANCH  22  24
HETATM   24  O           1     -22.000  -9.351  -2.067  0.00  0.00    -0.393 OA
HETATM   25  H           1     -22.275 -10.006  -2.687  0.00  0.00     0.210 HD
ENDBRANCH  22  24
ENDBRANCH  18  22
ENDBRANCH  15  18
ENDBRANCH   8  14
TORSDOF 5
ENDMDL
MODEL 9
REMARK VINA RESULT:      -5.1      2.510      4.210
REMARK  5 active torsions:
REMARK  status: ('A' for Active; 'I' for Inactive)
REMARK    1  A    between atoms: C_1  and  C_7 
REMARK    2  A    between atoms: C_4  and  O_5 
REMARK    3  A    between atoms: C_4  and  C_7 
REMARK    4  A    between atoms: C_7  and  N_13 
REMARK       I    between atoms: N_13  and  C_15 
REMARK    5  A    between atoms: C_15  and  C_19 
ROOT
HETATM    1  H           1     -21.137  -5.924  -8.674  0.00  0.00     0.255 HD
HETATM    2  H           1     -20.223  -4.729 -10.264  0.00  0.00     0.274 HD
HETATM    3  H           1     -19.552  -6.556  -8.717  0.00  0.00     0.275 HD
HETATM    4  H           1     -20.502  -3.163  -9.645  0.00  0.00     0.254 HD
HETATM    5  H           1     -19.994  -5.288  -9.769  0.00  0.00     0.275 HD
HETATM    6  C           1     -22.011  -3.767  -7.723  0.00  0.00     0.004 C 
HETATM    7  C           1     -20.540  -3.425  -7.925  0.00  0.00     0.062 C 
HETATM    8  C           1     -19.701  -4.688  -7.784  0.00  0.00     0.274 C 
HETATM    9  C           1     -22.445  -4.784  -8.769  0.00  0.00     0.047 C 
HETATM   10  N           1     -20.129  -5.690  -8.814  0.00  0.00    -0.067 N 
HETATM   11  N           1     -20.799  -3.862 -10.362  0.00  0.00    -0.080 N 
HETATM   12  C           1     -22.247  -4.198 -10.161  0.00  0.00     0.229 C 
HETATM   13  H           1     -20.664  -3.460 -11.317  0.00  0.00     0.274 HD
ENDROOT
BRANCH   8  14
HETATM   14  C           1     -19.896  -5.270  -6.404  0.00  0.00     0.249 C 
HETATM   15  N           1     -20.281  -6.576  -6.261  0.00  0.00    -0.343 N 
HETATM   16  H           1     -20.434  -7.151  -7.080  0.00  0.00     0.163 HD
HETATM   17  O           1     -19.714  -4.584  -5.428  0.00  0.00    -0.271 OA
BRANCH  15  18
HETATM   18  C           1     -20.469  -7.135  -4.937  0.00  0.00     0.214 C 
BRANCH  18  19
HETATM   19  C           1     -20.140  -8.607  -4.961  0.00  0.00     0.199 C 
HETATM   20  O           1     -19.231  -9.057  -4.231  0.00  0.00    -0.646 OA
HETATM   21  O           1     -20.777  -9.378  -5.713  0.00  0.00    -0.646 OA
ENDBRANCH  18  19
BRANCH  18  22
HETATM   22  C           1     -21.919  -6.945  -4.508  0.00  0.00     0.147 C 
HETATM   23  C           1     -21.961  -6.458  -3.065  0.00  0.00     0.042 C 
BRANCH  22  24
HETATM   24  O           1     -22.531  -5.998  -5.339  0.00  0.00    -0.393 OA
HETATM   25  H           1     -23.414  -5.889  -5.027  0.00  0.00     0.210 HD
ENDBRANCH  22  24
ENDBRANCH  18  22
ENDBRANCH  15  18
ENDBRANCH   8  14
TORSDOF 5
ENDMDL
