MODEL 1
REMARK VINA RESULT:      -7.8      0.000      0.000
REMARK  8 active torsions:
REMARK  status: ('A' for Active; 'I' for Inactive)
REMARK    1  A    between atoms: N_3  and  C_13 
REMARK       I    between atoms: N_3  and  C_4 
REMARK    2  A    between atoms: C_4  and  C_5 
REMARK    3  A    between atoms: C_5  and  C_7 
REMARK    4  A    between atoms: C_5  and  N_25 
REMARK    5  A    between atoms: C_7  and  C_22 
REMARK    6  A    between atoms: C_13  and  C_16 
REMARK    7  A    between atoms: C_13  and  C_21 
REMARK    8  A    between atoms: C_15  and  C_21 
ROOT
HETATM    1  N           1     -34.869  -1.562 -12.978  0.00  0.00    -0.344 N 
HETATM    2  C           1     -34.210  -2.477 -12.201  0.00  0.00     0.249 C 
HETATM    3  H           1     -35.272  -1.847 -13.862  0.00  0.00     0.163 HD
HETATM    4  O           1     -33.730  -2.138 -11.146  0.00  0.00    -0.271 OA
ENDROOT
BRANCH   1   5
HETATM    5  C           1     -34.991  -0.187 -12.535  0.00  0.00     0.191 C 
BRANCH   5   6
HETATM    6  C           1     -36.276  -0.020 -11.761  0.00  0.00     0.197 C 
HETATM    7  O           1     -37.289  -0.676 -12.083  0.00  0.00    -0.646 OA
HETATM    8  O           1     -36.327   0.777 -10.800  0.00  0.00    -0.646 OA
ENDBRANCH   5   6
BRANCH   5   9
HETATM    9  C           1     -35.004   0.737 -13.744  0.00  0.00     0.094 C 
BRANCH   9  10
HETATM   10  C           1     -35.969   0.216 -14.762  0.00  0.00     0.028 A 
HETATM   11  N           1     -37.327   0.407 -14.718  0.00  0.00    -0.354 N 
HETATM   12  C           1     -37.797  -0.204 -15.782  0.00  0.00     0.180 A 
ATOM     13  HN          1     -37.857   0.916 -14.011  1.00  0.00     0.166 HD
HETATM   14  N           1     -36.796  -0.781 -16.511  0.00  0.00    -0.360 N 
HETATM   15  C           1     -35.617  -0.520 -15.868  0.00  0.00     0.114 A 
HETATM   16  H           1     -36.912  -1.325 -17.401  0.00  0.00     0.166 HD
ENDBRANCH   9  10
ENDBRANCH   5   9
ENDBRANCH   1   5
BRANCH   2  17
HETATM   17  C           1     -34.083  -3.908 -12.662  0.00  0.00     0.278 C 
BRANCH  17  18
HETATM   18  C           1     -32.980  -4.600 -11.874  0.00  0.00     0.081 C 
BRANCH  18  19
HETATM   19  C           1     -33.566  -5.723 -11.075  0.00  0.00    -0.056 A 
HETATM   20  C           1     -32.886  -6.937 -10.976  0.00  0.00     0.007 A 
HETATM   21  C           1     -33.431  -7.983 -10.230  0.00  0.00     0.001 A 
HETATM   22  C           1     -34.656  -7.814  -9.584  0.00  0.00     0.000 A 
HETATM   23  C           1     -35.335  -6.601  -9.683  0.00  0.00     0.001 A 
HETATM   24  C           1     -34.790  -5.554 -10.428  0.00  0.00     0.007 A 
ENDBRANCH  18  19
ENDBRANCH  17  18
BRANCH  17  25
HETATM   25  N           1     -33.745  -3.934 -14.124  0.00  0.00    -0.066 N 
HETATM   26  H           1     -33.077  -3.160 -14.339  0.00  0.00     0.275 HD
HETATM   27  H           1     -33.305  -4.850 -14.364  0.00  0.00     0.275 HD
HETATM   28  H           1     -34.617  -3.810 -14.684  0.00  0.00     0.275 HD
ENDBRANCH  17  25
ENDBRANCH   2  17
TORSDOF 8
ENDMDL
MODEL 2
REMARK VINA RESULT:      -7.8      3.892      5.866
REMARK  8 active torsions:
REMARK  status: ('A' for Active; 'I' for Inactive)
REMARK    1  A    between atoms: N_3  and  C_13 
REMARK       I    between atoms: N_3  and  C_4 
REMARK    2  A    between atoms: C_4  and  C_5 
REMARK    3  A    between atoms: C_5  and  C_7 
REMARK    4  A    between atoms: C_5  and  N_25 
REMARK    5  A    between atoms: C_7  and  C_22 
REMARK    6  A    between atoms: C_13  and  C_16 
REMARK    7  A    between atoms: C_13  and  C_21 
REMARK    8  A    between atoms: C_15  and  C_21 
ROOT
HETATM    1  N           1     -35.729  -0.161 -11.322  0.00  0.00    -0.344 N 
HETATM    2  C           1     -36.425  -0.736 -10.292  0.00  0.00     0.249 C 
HETATM    3  H           1     -35.319   0.757 -11.205  0.00  0.00     0.163 HD
HETATM    4  O           1     -36.915  -1.831 -10.432  0.00  0.00    -0.271 OA
ENDROOT
BRANCH   1   5
HETATM    5  C           1     -35.580  -0.867 -12.580  0.00  0.00     0.191 C 
BRANCH   5   6
HETATM    6  C           1     -34.534  -1.944 -12.432  0.00  0.00     0.197 C 
HETATM    7  O           1     -34.456  -2.859 -13.278  0.00  0.00    -0.646 OA
HETATM    8  O           1     -33.746  -1.920 -11.462  0.00  0.00    -0.646 OA
ENDBRANCH   5   6
BRANCH   5   9
HETATM    9  C           1     -35.150   0.112 -13.664  0.00  0.00     0.094 C 
BRANCH   9  10
HETATM   10  C           1     -35.808  -0.253 -14.957  0.00  0.00     0.028 A 
HETATM   11  N           1     -35.206  -0.966 -15.963  0.00  0.00    -0.354 N 
HETATM   12  C           1     -36.115  -1.067 -16.907  0.00  0.00     0.180 A 
ATOM     13  HN          1     -34.257  -1.339 -15.975  1.00  0.00     0.166 HD
HETATM   14  N           1     -37.279  -0.448 -16.549  0.00  0.00    -0.360 N 
HETATM   15  C           1     -37.097   0.079 -15.301  0.00  0.00     0.114 A 
HETATM   16  H           1     -38.153  -0.388 -17.128  0.00  0.00     0.166 HD
ENDBRANCH   9  10
ENDBRANCH   5   9
ENDBRANCH   1   5
BRANCH   2  17
HETATM   17  C           1     -36.580  -0.001  -8.983  0.00  0.00     0.278 C 
BRANCH  17  18
HETATM   18  C           1     -37.969  -0.260  -8.417  0.00  0.00     0.081 C 
BRANCH  18  19
HETATM   19  C           1     -37.937  -0.109  -6.927  0.00  0.00    -0.056 A 
HETATM   20  C           1     -37.773   1.153  -6.358  0.00  0.00     0.007 A 
HETATM   21  C           1     -37.744   1.294  -4.970  0.00  0.00     0.001 A 
HETATM   22  C           1     -37.881   0.172  -4.152  0.00  0.00     0.000 A 
HETATM   23  C           1     -38.046  -1.089  -4.722  0.00  0.00     0.001 A 
HETATM   24  C           1     -38.075  -1.231  -6.109  0.00  0.00     0.007 A 
ENDBRANCH  18  19
ENDBRANCH  17  18
BRANCH  17  25
HETATM   25  N           1     -36.399   1.470  -9.212  0.00  0.00    -0.066 N 
HETATM   26  H           1     -36.743   1.718 -10.167  0.00  0.00     0.275 HD
HETATM   27  H           1     -36.943   2.004  -8.497  0.00  0.00     0.275 HD
HETATM   28  H           1     -35.387   1.713  -9.130  0.00  0.00     0.275 HD
ENDBRANCH  17  25
ENDBRANCH   2  17
TORSDOF 8
ENDMDL
MODEL 3
REMARK VINA RESULT:      -7.7     12.095     14.056
REMARK  8 active torsions:
REMARK  status: ('A' for Active; 'I' for Inactive)
REMARK    1  A    between atoms: N_3  and  C_13 
REMARK       I    between atoms: N_3  and  C_4 
REMARK    2  A    between atoms: C_4  and  C_5 
REMARK    3  A    between atoms: C_5  and  C_7 
REMARK    4  A    between atoms: C_5  and  N_25 
REMARK    5  A    between atoms: C_7  and  C_22 
REMARK    6  A    between atoms: C_13  and  C_16 
REMARK    7  A    between atoms: C_13  and  C_21 
REMARK    8  A    between atoms: C_15  and  C_21 
ROOT
HETATM    1  N           1     -22.237  -4.869  -8.422  0.00  0.00    -0.344 N 
HETATM    2  C           1     -21.479  -4.417  -7.375  0.00  0.00     0.249 C 
HETATM    3  H           1     -22.498  -5.845  -8.474  0.00  0.00     0.163 HD
HETATM    4  O           1     -21.168  -3.251  -7.314  0.00  0.00    -0.271 OA
ENDROOT
BRANCH   1   5
HETATM    5  C           1     -22.666  -3.948  -9.457  0.00  0.00     0.191 C 
BRANCH   5   6
HETATM    6  C           1     -24.171  -3.981  -9.568  0.00  0.00     0.197 C 
HETATM    7  O           1     -24.834  -2.938  -9.384  0.00  0.00    -0.646 OA
HETATM    8  O           1     -24.754  -5.052  -9.842  0.00  0.00    -0.646 OA
ENDBRANCH   5   6
BRANCH   5   9
HETATM    9  C           1     -22.051  -4.358 -10.788  0.00  0.00     0.094 C 
BRANCH   9  10
HETATM   10  C           1     -22.780  -3.681 -11.906  0.00  0.00     0.028 A 
HETATM   11  N           1     -23.637  -4.311 -12.772  0.00  0.00    -0.354 N 
HETATM   12  C           1     -24.056  -3.372 -13.589  0.00  0.00     0.180 A 
ATOM     13  HN          1     -23.893  -5.299 -12.780  1.00  0.00     0.166 HD
HETATM   14  N           1     -23.505  -2.160 -13.283  0.00  0.00    -0.360 N 
HETATM   15  C           1     -22.683  -2.343 -12.206  0.00  0.00     0.114 A 
HETATM   16  H           1     -23.680  -1.254 -13.785  0.00  0.00     0.166 HD
ENDBRANCH   9  10
ENDBRANCH   5   9
ENDBRANCH   1   5
BRANCH   2  17
HETATM   17  C           1     -21.033  -5.374  -6.298  0.00  0.00     0.278 C 
BRANCH  17  18
HETATM   18  C           1     -22.248  -5.892  -5.542  0.00  0.00     0.081 C 
BRANCH  18  19
HETATM   19  C           1     -21.800  -6.773  -4.418  0.00  0.00    -0.056 A 
HETATM   20  C           1     -21.924  -6.337  -3.099  0.00  0.00     0.007 A 
HETATM   21  C           1     -21.507  -7.159  -2.050  0.00  0.00     0.001 A 
HETATM   22  C           1     -20.967  -8.416  -2.323  0.00  0.00     0.000 A 
HETATM   23  C           1     -20.845  -8.852  -3.641  0.00  0.00     0.001 A 
HETATM   24  C           1     -21.262  -8.031  -4.689  0.00  0.00     0.007 A 
ENDBRANCH  18  19
ENDBRANCH  17  18
BRANCH  17  25
HETATM   25  N           1     -20.117  -4.663  -5.346  0.00  0.00    -0.066 N 
HETATM   26  H           1     -20.673  -4.288  -4.544  0.00  0.00     0.275 HD
HETATM   27  H           1     -19.399  -5.332  -4.988  0.00  0.00     0.275 HD
HETATM   28  H           1     -19.642  -3.877  -5.842  0.00  0.00     0.275 HD
ENDBRANCH  17  25
ENDBRANCH   2  17
TORSDOF 8
ENDMDL
MODEL 4
REMARK VINA RESULT:      -7.6     13.683     15.871
REMARK  8 active torsions:
REMARK  status: ('A' for Active; 'I' for Inactive)
REMARK    1  A    between atoms: N_3  and  C_13 
REMARK       I    between atoms: N_3  and  C_4 
REMARK    2  A    between atoms: C_4  and  C_5 
REMARK    3  A    between atoms: C_5  and  C_7 
REMARK    4  A    between atoms: C_5  and  N_25 
REMARK    5  A    between atoms: C_7  and  C_22 
REMARK    6  A    between atoms: C_13  and  C_16 
REMARK    7  A    between atoms: C_13  and  C_21 
REMARK    8  A    between atoms: C_15  and  C_21 
ROOT
HETATM    1  N           1     -21.667  -5.742  -5.688  0.00  0.00    -0.344 N 
HETATM    2  C           1     -21.537  -7.092  -5.495  0.00  0.00     0.249 C 
HETATM    3  H           1     -21.979  -5.151  -4.929  0.00  0.00     0.163 HD
HETATM    4  O           1     -21.165  -7.798  -6.401  0.00  0.00    -0.271 OA
ENDROOT
BRANCH   1   5
HETATM    5  C           1     -21.357  -5.162  -6.980  0.00  0.00     0.191 C 
BRANCH   5   6
HETATM    6  C           1     -19.910  -4.732  -7.004  0.00  0.00     0.197 C 
HETATM    7  O           1     -19.336  -4.535  -8.096  0.00  0.00    -0.646 OA
HETATM    8  O           1     -19.287  -4.575  -5.932  0.00  0.00    -0.646 OA
ENDBRANCH   5   6
BRANCH   5   9
HETATM    9  C           1     -22.249  -3.951  -7.219  0.00  0.00     0.094 C 
BRANCH   9  10
HETATM   10  C           1     -23.003  -4.132  -8.499  0.00  0.00     0.028 A 
HETATM   11  N           1     -24.287  -3.700  -8.714  0.00  0.00    -0.354 N 
HETATM   12  C           1     -24.569  -4.053  -9.948  0.00  0.00     0.180 A 
ATOM     13  HN          1     -24.894  -3.210  -8.057  1.00  0.00     0.166 HD
HETATM   14  N           1     -23.517  -4.694 -10.538  0.00  0.00    -0.360 N 
HETATM   15  C           1     -22.505  -4.753  -9.620  0.00  0.00     0.114 A 
HETATM   16  H           1     -23.491  -5.073 -11.517  0.00  0.00     0.166 HD
ENDBRANCH   9  10
ENDBRANCH   5   9
ENDBRANCH   1   5
BRANCH   2  17
HETATM   17  C           1     -21.860  -7.697  -4.151  0.00  0.00     0.278 C 
BRANCH  17  18
HETATM   18  C           1     -20.842  -7.224  -3.123  0.00  0.00     0.081 C 
BRANCH  18  19
HETATM   19  C           1     -21.295  -7.617  -1.751  0.00  0.00    -0.056 A 
HETATM   20  C           1     -20.652  -8.653  -1.075  0.00  0.00     0.007 A 
HETATM   21  C           1     -21.075  -9.020   0.204  0.00  0.00     0.001 A 
HETATM   22  C           1     -22.140  -8.349   0.805  0.00  0.00     0.000 A 
HETATM   23  C           1     -22.782  -7.313   0.129  0.00  0.00     0.001 A 
HETATM   24  C           1     -22.360  -6.946  -1.150  0.00  0.00     0.007 A 
ENDBRANCH  18  19
ENDBRANCH  17  18
BRANCH  17  25
HETATM   25  N           1     -21.811  -9.193  -4.252  0.00  0.00    -0.066 N 
HETATM   26  H           1     -20.932  -9.480  -4.739  0.00  0.00     0.275 HD
HETATM   27  H           1     -21.828  -9.608  -3.293  0.00  0.00     0.275 HD
HETATM   28  H           1     -22.637  -9.532  -4.792  0.00  0.00     0.275 HD
ENDBRANCH  17  25
ENDBRANCH   2  17
TORSDOF 8
ENDMDL
MODEL 5
REMARK VINA RESULT:      -7.5      2.439      4.088
REMARK  8 active torsions:
REMARK  status: ('A' for Active; 'I' for Inactive)
REMARK    1  A    between atoms: N_3  and  C_13 
REMARK       I    between atoms: N_3  and  C_4 
REMARK    2  A    between atoms: C_4  and  C_5 
REMARK    3  A    between atoms: C_5  and  C_7 
REMARK    4  A    between atoms: C_5  and  N_25 
REMARK    5  A    between atoms: C_7  and  C_22 
REMARK    6  A    between atoms: C_13  and  C_16 
REMARK    7  A    between atoms: C_13  and  C_21 
REMARK    8  A    between atoms: C_15  and  C_21 
ROOT
HETATM    1  N           1     -35.555  -1.068 -14.379  0.00  0.00    -0.344 N 
HETATM    2  C           1     -34.924  -0.337 -13.407  0.00  0.00     0.249 C 
HETATM    3  H           1     -36.104  -1.879 -14.124  0.00  0.00     0.163 HD
HETATM    4  O           1     -34.268   0.630 -13.711  0.00  0.00    -0.271 OA
ENDROOT
BRANCH   1   5
HETATM    5  C           1     -35.434  -0.681 -15.771  0.00  0.00     0.191 C 
BRANCH   5   6
HETATM    6  C           1     -36.447   0.393 -16.084  0.00  0.00     0.197 C 
HETATM    7  O           1     -36.083   1.583 -16.190  0.00  0.00    -0.646 OA
HETATM    8  O           1     -37.651   0.091 -16.235  0.00  0.00    -0.646 OA
ENDBRANCH   5   6
BRANCH   5   9
HETATM    9  C           1     -35.688  -1.892 -16.658  0.00  0.00     0.094 C 
BRANCH   9  10
HETATM   10  C           1     -34.517  -2.820 -16.585  0.00  0.00     0.028 A 
HETATM   11  N           1     -33.473  -2.830 -17.474  0.00  0.00    -0.354 N 
HETATM   12  C           1     -32.671  -3.783 -17.056  0.00  0.00     0.180 A 
ATOM     13  HN          1     -33.346  -2.225 -18.286  1.00  0.00     0.166 HD
HETATM   14  N           1     -33.157  -4.388 -15.932  0.00  0.00    -0.360 N 
HETATM   15  C           1     -34.341  -3.782 -15.618  0.00  0.00     0.114 A 
HETATM   16  H           1     -32.703  -5.175 -15.406  0.00  0.00     0.166 HD
ENDBRANCH   9  10
ENDBRANCH   5   9
ENDBRANCH   1   5
BRANCH   2  17
HETATM   17  C           1     -35.049  -0.740 -11.959  0.00  0.00     0.278 C 
BRANCH  17  18
HETATM   18  C           1     -35.852  -2.029 -11.857  0.00  0.00     0.081 C 
BRANCH  18  19
HETATM   19  C           1     -34.924  -3.179 -11.618  0.00  0.00    -0.056 A 
HETATM   20  C           1     -33.607  -3.118 -12.073  0.00  0.00     0.007 A 
HETATM   21  C           1     -32.741  -4.190 -11.849  0.00  0.00     0.001 A 
HETATM   22  C           1     -33.194  -5.321 -11.170  0.00  0.00     0.000 A 
HETATM   23  C           1     -34.510  -5.381 -10.715  0.00  0.00     0.001 A 
HETATM   24  C           1     -35.376  -4.310 -10.938  0.00  0.00     0.007 A 
ENDBRANCH  18  19
ENDBRANCH  17  18
BRANCH  17  25
HETATM   25  N           1     -35.748   0.347 -11.197  0.00  0.00    -0.066 N 
HETATM   26  H           1     -36.601  -0.044 -10.738  0.00  0.00     0.275 HD
HETATM   27  H           1     -35.105   0.730 -10.467  0.00  0.00     0.275 HD
HETATM   28  H           1     -36.022   1.111 -11.854  0.00  0.00     0.275 HD
ENDBRANCH  17  25
ENDBRANCH   2  17
TORSDOF 8
ENDMDL
MODEL 6
REMARK VINA RESULT:      -7.5     12.960     15.078
REMARK  8 active torsions:
REMARK  status: ('A' for Active; 'I' for Inactive)
REMARK    1  A    between atoms: N_3  and  C_13 
REMARK       I    between atoms: N_3  and  C_4 
REMARK    2  A    between atoms: C_4  and  C_5 
REMARK    3  A    between atoms: C_5  and  C_7 
REMARK    4  A    between atoms: C_5  and  N_25 
REMARK    5  A    between atoms: C_7  and  C_22 
REMARK    6  A    between atoms: C_13  and  C_16 
REMARK    7  A    between atoms: C_13  and  C_21 
REMARK    8  A    between atoms: C_15  and  C_21 
ROOT
HETATM    1  N           1     -22.088  -4.767  -7.243  0.00  0.00    -0.344 N 
HETATM    2  C           1     -21.567  -5.831  -6.556  0.00  0.00     0.249 C 
HETATM    3  H           1     -22.621  -4.060  -6.751  0.00  0.00     0.163 HD
HETATM    4  O           1     -20.931  -6.674  -7.143  0.00  0.00    -0.271 OA
ENDROOT
BRANCH   1   5
HETATM    5  C           1     -21.877  -4.652  -8.672  0.00  0.00     0.191 C 
BRANCH   5   6
HETATM    6  C           1     -20.429  -4.320  -8.942  0.00  0.00     0.197 C 
HETATM    7  O           1     -19.796  -3.594  -8.147  0.00  0.00    -0.646 OA
HETATM    8  O           1     -19.865  -4.771  -9.962  0.00  0.00    -0.646 OA
ENDBRANCH   5   6
BRANCH   5   9
HETATM    9  C           1     -22.762  -3.546  -9.230  0.00  0.00     0.094 C 
BRANCH   9  10
HETATM   10  C           1     -22.819  -3.655 -10.721  0.00  0.00     0.028 A 
HETATM   11  N           1     -22.126  -2.849 -11.588  0.00  0.00    -0.354 N 
HETATM   12  C           1     -22.453  -3.271 -12.788  0.00  0.00     0.180 A 
ATOM     13  HN          1     -21.492  -2.085 -11.351  1.00  0.00     0.166 HD
HETATM   14  N           1     -23.328  -4.318 -12.730  0.00  0.00    -0.360 N 
HETATM   15  C           1     -23.573  -4.575 -11.410  0.00  0.00     0.114 A 
HETATM   16  H           1     -23.738  -4.830 -13.550  0.00  0.00     0.166 HD
ENDBRANCH   9  10
ENDBRANCH   5   9
ENDBRANCH   1   5
BRANCH   2  17
HETATM   17  C           1     -21.787  -5.951  -5.069  0.00  0.00     0.278 C 
BRANCH  17  18
HETATM   18  C           1     -20.934  -7.086  -4.518  0.00  0.00     0.081 C 
BRANCH  18  19
HETATM   19  C           1     -21.393  -7.430  -3.135  0.00  0.00    -0.056 A 
HETATM   20  C           1     -21.768  -6.417  -2.253  0.00  0.00     0.007 A 
HETATM   21  C           1     -22.196  -6.738  -0.964  0.00  0.00     0.001 A 
HETATM   22  C           1     -22.248  -8.072  -0.558  0.00  0.00     0.000 A 
HETATM   23  C           1     -21.873  -9.084  -1.441  0.00  0.00     0.001 A 
HETATM   24  C           1     -21.445  -8.764  -2.730  0.00  0.00     0.007 A 
ENDBRANCH  18  19
ENDBRANCH  17  18
BRANCH  17  25
HETATM   25  N           1     -23.235  -6.238  -4.799  0.00  0.00    -0.066 N 
HETATM   26  H           1     -23.820  -5.460  -5.180  0.00  0.00     0.275 HD
HETATM   27  H           1     -23.505  -7.134  -5.263  0.00  0.00     0.275 HD
HETATM   28  H           1     -23.388  -6.319  -3.769  0.00  0.00     0.275 HD
ENDBRANCH  17  25
ENDBRANCH   2  17
TORSDOF 8
ENDMDL
MODEL 7
REMARK VINA RESULT:      -7.5     14.169     17.263
REMARK  8 active torsions:
REMARK  status: ('A' for Active; 'I' for Inactive)
REMARK    1  A    between atoms: N_3  and  C_13 
REMARK       I    between atoms: N_3  and  C_4 
REMARK    2  A    between atoms: C_4  and  C_5 
REMARK    3  A    between atoms: C_5  and  C_7 
REMARK    4  A    between atoms: C_5  and  N_25 
REMARK    5  A    between atoms: C_7  and  C_22 
REMARK    6  A    between atoms: C_13  and  C_16 
REMARK    7  A    between atoms: C_13  and  C_21 
REMARK    8  A    between atoms: C_15  and  C_21 
ROOT
HETATM    1  N           1     -20.095  -6.735  -6.239  0.00  0.00    -0.344 N 
HETATM    2  C           1     -20.235  -5.374  -6.173  0.00  0.00     0.249 C 
HETATM    3  H           1     -20.032  -7.194  -7.139  0.00  0.00     0.163 HD
HETATM    4  O           1     -20.309  -4.826  -5.100  0.00  0.00    -0.271 OA
ENDROOT
BRANCH   1   5
HETATM    5  C           1     -20.036  -7.517  -5.020  0.00  0.00     0.191 C 
BRANCH   5   6
HETATM    6  C           1     -19.218  -8.762  -5.259  0.00  0.00     0.197 C 
HETATM    7  O           1     -19.199  -9.672  -4.403  0.00  0.00    -0.646 OA
HETATM    8  O           1     -18.557  -8.882  -6.314  0.00  0.00    -0.646 OA
ENDBRANCH   5   6
BRANCH   5   9
HETATM    9  C           1     -21.446  -7.910  -4.600  0.00  0.00     0.094 C 
BRANCH   9  10
HETATM   10  C           1     -21.702  -7.437  -3.204  0.00  0.00     0.028 A 
HETATM   11  N           1     -22.102  -6.168  -2.872  0.00  0.00    -0.354 N 
HETATM   12  C           1     -22.211  -6.171  -1.563  0.00  0.00     0.180 A 
ATOM     13  HN          1     -22.277  -5.389  -3.506  1.00  0.00     0.166 HD
HETATM   14  N           1     -21.898  -7.392  -1.037  0.00  0.00    -0.360 N 
HETATM   15  C           1     -21.569  -8.215  -2.078  0.00  0.00     0.114 A 
HETATM   16  H           1     -21.908  -7.650  -0.019  0.00  0.00     0.166 HD
ENDBRANCH   9  10
ENDBRANCH   5   9
ENDBRANCH   1   5
BRANCH   2  17
HETATM   17  C           1     -20.296  -4.559  -7.442  0.00  0.00     0.278 C 
BRANCH  17  18
HETATM   18  C           1     -20.855  -5.416  -8.569  0.00  0.00     0.081 C 
BRANCH  18  19
HETATM   19  C           1     -21.571  -4.543  -9.553  0.00  0.00    -0.056 A 
HETATM   20  C           1     -22.921  -4.248  -9.369  0.00  0.00     0.007 A 
HETATM   21  C           1     -23.589  -3.434 -10.286  0.00  0.00     0.001 A 
HETATM   22  C           1     -22.904  -2.915 -11.385  0.00  0.00     0.000 A 
HETATM   23  C           1     -21.554  -3.210 -11.568  0.00  0.00     0.001 A 
HETATM   24  C           1     -20.886  -4.023 -10.652  0.00  0.00     0.007 A 
ENDBRANCH  18  19
ENDBRANCH  17  18
BRANCH  17  25
HETATM   25  N           1     -18.916  -4.094  -7.804  0.00  0.00    -0.066 N 
HETATM   26  H           1     -18.583  -4.617  -8.645  0.00  0.00     0.275 HD
HETATM   27  H           1     -18.938  -3.072  -8.017  0.00  0.00     0.275 HD
HETATM   28  H           1     -18.269  -4.270  -7.004  0.00  0.00     0.275 HD
ENDBRANCH  17  25
ENDBRANCH   2  17
TORSDOF 8
ENDMDL
MODEL 8
REMARK VINA RESULT:      -7.3      4.271      6.623
REMARK  8 active torsions:
REMARK  status: ('A' for Active; 'I' for Inactive)
REMARK    1  A    between atoms: N_3  and  C_13 
REMARK       I    between atoms: N_3  and  C_4 
REMARK    2  A    between atoms: C_4  and  C_5 
REMARK    3  A    between atoms: C_5  and  C_7 
REMARK    4  A    between atoms: C_5  and  N_25 
REMARK    5  A    between atoms: C_7  and  C_22 
REMARK    6  A    between atoms: C_13  and  C_16 
REMARK    7  A    between atoms: C_13  and  C_21 
REMARK    8  A    between atoms: C_15  and  C_21 
ROOT
HETATM    1  N           1     -33.346  -4.007 -14.227  0.00  0.00    -0.344 N 
HETATM    2  C           1     -33.897  -4.540 -15.363  0.00  0.00     0.249 C 
HETATM    3  H           1     -32.416  -3.610 -14.255  0.00  0.00     0.163 HD
HETATM    4  O           1     -35.008  -5.013 -15.330  0.00  0.00    -0.271 OA
ENDROOT
BRANCH   1   5
HETATM    5  C           1     -34.097  -4.011 -12.987  0.00  0.00     0.191 C 
BRANCH   5   6
HETATM    6  C           1     -34.664  -2.635 -12.736  0.00  0.00     0.197 C 
HETATM    7  O           1     -34.783  -2.212 -11.567  0.00  0.00    -0.646 OA
HETATM    8  O           1     -35.015  -1.920 -13.699  0.00  0.00    -0.646 OA
ENDBRANCH   5   6
BRANCH   5   9
HETATM    9  C           1     -33.175  -4.396 -11.837  0.00  0.00     0.094 C 
BRANCH   9  10
HETATM   10  C           1     -33.745  -5.575 -11.113  0.00  0.00     0.028 A 
HETATM   11  N           1     -33.175  -6.823 -11.085  0.00  0.00    -0.354 N 
HETATM   12  C           1     -33.981  -7.555 -10.352  0.00  0.00     0.180 A 
ATOM     13  HN          1     -32.309  -7.118 -11.538  1.00  0.00     0.166 HD
HETATM   14  N           1     -35.048  -6.830  -9.904  0.00  0.00    -0.360 N 
HETATM   15  C           1     -34.911  -5.557 -10.385  0.00  0.00     0.114 A 
HETATM   16  H           1     -35.831  -7.185  -9.301  0.00  0.00     0.166 HD
ENDBRANCH   9  10
ENDBRANCH   5   9
ENDBRANCH   1   5
BRANCH   2  17
HETATM   17  C           1     -33.117  -4.535 -16.654  0.00  0.00     0.278 C 
BRANCH  17  18
HETATM   18  C           1     -31.629  -4.434 -16.348  0.00  0.00     0.081 C 
BRANCH  18  19
HETATM   19  C           1     -30.932  -5.662 -16.846  0.00  0.00    -0.056 A 
HETATM   20  C           1     -31.546  -6.474 -17.799  0.00  0.00     0.007 A 
HETATM   21  C           1     -30.896  -7.619 -18.264  0.00  0.00     0.001 A 
HETATM   22  C           1     -29.632  -7.949 -17.775  0.00  0.00     0.000 A 
HETATM   23  C           1     -29.018  -7.137 -16.824  0.00  0.00     0.001 A 
HETATM   24  C           1     -29.667  -5.993 -16.359  0.00  0.00     0.007 A 
ENDBRANCH  18  19
ENDBRANCH  17  18
BRANCH  17  25
HETATM   25  N           1     -33.537  -3.361 -17.487  0.00  0.00    -0.066 N 
HETATM   26  H           1     -33.357  -3.568 -18.496  0.00  0.00     0.275 HD
HETATM   27  H           1     -34.556  -3.180 -17.346  0.00  0.00     0.275 HD
HETATM   28  H           1     -32.992  -2.518 -17.201  0.00  0.00     0.275 HD
ENDBRANCH  17  25
ENDBRANCH   2  17
TORSDOF 8
ENDMDL
MODEL 9
REMARK VINA RESULT:      -7.1      2.405      7.372
REMARK  8 active torsions:
REMARK  status: ('A' for Active; 'I' for Inactive)
REMARK    1  A    between atoms: N_3  and  C_13 
REMARK       I    between atoms: N_3  and  C_4 
REMARK    2  A    between atoms: C_4  and  C_5 
REMARK    3  A    between atoms: C_5  and  C_7 
REMARK    4  A    between atoms: C_5  and  N_25 
REMARK    5  A    between atoms: C_7  and  C_22 
REMARK    6  A    between atoms: C_13  and  C_16 
REMARK    7  A    between atoms: C_13  and  C_21 
REMARK    8  A    between atoms: C_15  and  C_21 
ROOT
HETATM    1  N           1     -35.270  -3.304 -11.616  0.00  0.00    -0.344 N 
HETATM    2  C           1     -34.961  -2.114 -11.013  0.00  0.00     0.249 C 
HETATM    3  H           1     -36.140  -3.403 -12.123  0.00  0.00     0.163 HD
HETATM    4  O           1     -33.922  -1.997 -10.408  0.00  0.00    -0.271 OA
ENDROOT
BRANCH   1   5
HETATM    5  C           1     -34.350  -4.422 -11.529  0.00  0.00     0.191 C 
BRANCH   5   6
HETATM    6  C           1     -33.217  -4.218 -12.504  0.00  0.00     0.197 C 
HETATM    7  O           1     -33.457  -3.849 -13.673  0.00  0.00    -0.646 OA
HETATM    8  O           1     -32.037  -4.420 -12.142  0.00  0.00    -0.646 OA
ENDBRANCH   5   6
BRANCH   5   9
HETATM    9  C           1     -35.085  -5.712 -11.869  0.00  0.00     0.094 C 
BRANCH   9  10
HETATM   10  C           1     -34.805  -6.739 -10.817  0.00  0.00     0.028 A 
HETATM   11  N           1     -34.602  -8.072 -11.065  0.00  0.00    -0.354 N 
HETATM   12  C           1     -34.394  -8.615  -9.887  0.00  0.00     0.180 A 
ATOM     13  HN          1     -34.610  -8.542 -11.970  1.00  0.00     0.166 HD
HETATM   14  N           1     -34.454  -7.684  -8.889  0.00  0.00    -0.360 N 
HETATM   15  C           1     -34.718  -6.475  -9.471  0.00  0.00     0.114 A 
HETATM   16  H           1     -34.322  -7.865  -7.863  0.00  0.00     0.166 HD
ENDBRANCH   9  10
ENDBRANCH   5   9
ENDBRANCH   1   5
BRANCH   2  17
HETATM   17  C           1     -35.917  -0.951 -11.103  0.00  0.00     0.278 C 
BRANCH  17  18
HETATM   18  C           1     -35.308   0.142 -11.970  0.00  0.00     0.081 C 
BRANCH  18  19
HETATM   19  C           1     -36.053   0.224 -13.267  0.00  0.00    -0.056 A 
HETATM   20  C           1     -37.380  -0.199 -13.336  0.00  0.00     0.007 A 
HETATM   21  C           1     -38.074  -0.121 -14.545  0.00  0.00     0.001 A 
HETATM   22  C           1     -37.440   0.379 -15.682  0.00  0.00     0.000 A 
HETATM   23  C           1     -36.114   0.802 -15.612  0.00  0.00     0.001 A 
HETATM   24  C           1     -35.419   0.725 -14.404  0.00  0.00     0.007 A 
ENDBRANCH  18  19
ENDBRANCH  17  18
BRANCH  17  25
HETATM   25  N           1     -36.178  -0.411  -9.728  0.00  0.00    -0.066 N 
HETATM   26  H           1     -36.131   0.632  -9.750  0.00  0.00     0.275 HD
HETATM   27  H           1     -37.128  -0.709  -9.410  0.00  0.00     0.275 HD
HETATM   28  H           1     -35.459  -0.781  -9.067  0.00  0.00     0.275 HD
ENDBRANCH  17  25
ENDBRANCH   2  17
TORSDOF 8
ENDMDL
