MODEL 1
REMARK VINA RESULT:      -6.6      0.000      0.000
REMARK  11 active torsions:
REMARK  status: ('A' for Active; 'I' for Inactive)
REMARK    1  A    between atoms: C_4  and  C_5 
REMARK    2  A    between atoms: C_5  and  C_18 
REMARK    3  A    between atoms: C_5  and  N_13 
REMARK    4  A    between atoms: C_6  and  C_10 
REMARK    5  A    between atoms: C_6  and  C_9 
REMARK    6  A    between atoms: C_9  and  C_20 
REMARK    7  A    between atoms: C_10  and  C_19 
REMARK    8  A    between atoms: C_10  and  N_21 
REMARK       I    between atoms: N_13  and  C_19 
REMARK    9  A    between atoms: C_15  and  C_17 
REMARK   10  A    between atoms: C_15  and  C_18 
REMARK   11  A    between atoms: C_20  and  N_23 
ROOT
HETATM    1  O           1     -21.919  -3.571  -7.488  0.00  0.00    -0.271 OA
HETATM    2  H           1     -22.089  -5.861  -9.627  0.00  0.00     0.163 HD
HETATM    3  N           1     -22.200  -4.933  -9.235  0.00  0.00    -0.345 N 
HETATM    4  C           1     -21.787  -4.677  -7.955  0.00  0.00     0.249 C 
ENDROOT
BRANCH   4   5
HETATM    5  C           1     -21.168  -5.777  -7.128  0.00  0.00     0.274 C 
BRANCH   5   6
HETATM    6  C           1     -21.091  -5.336  -5.673  0.00  0.00     0.044 C 
BRANCH   6   7
HETATM    7  C           1     -21.947  -6.258  -4.815  0.00  0.00     0.030 C 
BRANCH   7   8
HETATM    8  C           1     -21.361  -6.338  -3.412  0.00  0.00     0.230 C 
BRANCH   8   9
HETATM    9  N           1     -22.392  -5.906  -2.412  0.00  0.00    -0.079 N 
HETATM   10  H           1     -21.999  -5.990  -1.448  0.00  0.00     0.274 HD
HETATM   11  H           1     -23.237  -6.514  -2.498  0.00  0.00     0.274 HD
HETATM   12  H           1     -22.657  -4.911  -2.595  0.00  0.00     0.274 HD
ENDBRANCH   8   9
ENDBRANCH   7   8
ENDBRANCH   6   7
ENDBRANCH   5   6
BRANCH   5  13
HETATM   13  N           1     -19.786  -6.066  -7.636  0.00  0.00    -0.067 N 
HETATM   14  H           1     -19.188  -6.402  -6.848  0.00  0.00     0.275 HD
HETATM   15  H           1     -19.833  -6.803  -8.375  0.00  0.00     0.275 HD
HETATM   16  H           1     -19.375  -5.194  -8.040  0.00  0.00     0.275 HD
ENDBRANCH   5  13
ENDBRANCH   4   5
BRANCH   3  17
HETATM   17  C           1     -22.795  -3.877 -10.031  0.00  0.00     0.186 C 
BRANCH  17  18
HETATM   18  C           1     -24.287  -3.858  -9.803  0.00  0.00     0.196 C 
HETATM   19  O           1     -24.866  -2.777  -9.557  0.00  0.00    -0.646 OA
HETATM   20  O           1     -24.942  -4.920  -9.862  0.00  0.00    -0.646 OA
ENDBRANCH  17  18
BRANCH  17  21
HETATM   21  C           1     -22.509  -4.129 -11.505  0.00  0.00     0.046 C 
BRANCH  21  22
HETATM   22  C           1     -22.640  -2.823 -12.279  0.00  0.00     0.116 C 
BRANCH  22  23
HETATM   23  C           1     -23.717  -2.965 -13.325  0.00  0.00     0.172 C 
HETATM   24  O           1     -24.921  -2.965 -12.987  0.00  0.00    -0.648 OA
HETATM   25  O           1     -23.407  -3.083 -14.530  0.00  0.00    -0.648 OA
ENDBRANCH  22  23
ENDBRANCH  21  22
ENDBRANCH  17  21
ENDBRANCH   3  17
TORSDOF 11
ENDMDL
MODEL 2
REMARK VINA RESULT:      -6.4     10.020     12.198
REMARK  11 active torsions:
REMARK  status: ('A' for Active; 'I' for Inactive)
REMARK    1  A    between atoms: C_4  and  C_5 
REMARK    2  A    between atoms: C_5  and  C_18 
REMARK    3  A    between atoms: C_5  and  N_13 
REMARK    4  A    between atoms: C_6  and  C_10 
REMARK    5  A    between atoms: C_6  and  C_9 
REMARK    6  A    between atoms: C_9  and  C_20 
REMARK    7  A    between atoms: C_10  and  C_19 
REMARK    8  A    between atoms: C_10  and  N_21 
REMARK       I    between atoms: N_13  and  C_19 
REMARK    9  A    between atoms: C_15  and  C_17 
REMARK   10  A    between atoms: C_15  and  C_18 
REMARK   11  A    between atoms: C_20  and  N_23 
ROOT
HETATM    1  O           1     -27.453  -6.187 -16.241  0.00  0.00    -0.271 OA
HETATM    2  H           1     -27.835  -7.051 -19.233  0.00  0.00     0.163 HD
HETATM    3  N           1     -28.096  -6.842 -18.276  0.00  0.00    -0.345 N 
HETATM    4  C           1     -27.142  -6.436 -17.381  0.00  0.00     0.249 C 
ENDROOT
BRANCH   4   5
HETATM    5  C           1     -25.704  -6.300 -17.819  0.00  0.00     0.274 C 
BRANCH   5   6
HETATM    6  C           1     -25.580  -6.701 -19.283  0.00  0.00     0.044 C 
BRANCH   6   7
HETATM    7  C           1     -24.225  -7.356 -19.518  0.00  0.00     0.030 C 
BRANCH   7   8
HETATM    8  C           1     -24.205  -8.002 -20.897  0.00  0.00     0.230 C 
BRANCH   8   9
HETATM    9  N           1     -22.987  -8.869 -21.025  0.00  0.00    -0.079 N 
HETATM   10  H           1     -23.150  -9.591 -21.762  0.00  0.00     0.274 HD
HETATM   11  H           1     -22.796  -9.339 -20.113  0.00  0.00     0.274 HD
HETATM   12  H           1     -22.167  -8.278 -21.292  0.00  0.00     0.274 HD
ENDBRANCH   8   9
ENDBRANCH   7   8
ENDBRANCH   6   7
ENDBRANCH   5   6
BRANCH   5  13
HETATM   13  N           1     -24.840  -7.195 -16.981  0.00  0.00    -0.067 N 
HETATM   14  H           1     -23.869  -6.813 -16.951  0.00  0.00     0.275 HD
HETATM   15  H           1     -25.226  -7.243 -16.011  0.00  0.00     0.275 HD
HETATM   16  H           1     -24.826  -8.154 -17.397  0.00  0.00     0.275 HD
ENDBRANCH   5  13
ENDBRANCH   4   5
BRANCH   3  17
HETATM   17  C           1     -29.477  -6.973 -17.856  0.00  0.00     0.186 C 
BRANCH  17  18
HETATM   18  C           1     -30.167  -8.003 -18.716  0.00  0.00     0.196 C 
HETATM   19  O           1     -29.490  -8.814 -19.385  0.00  0.00    -0.646 OA
HETATM   20  O           1     -31.416  -8.047 -18.759  0.00  0.00    -0.646 OA
ENDBRANCH  17  18
BRANCH  17  21
HETATM   21  C           1     -30.183  -5.632 -18.004  0.00  0.00     0.046 C 
BRANCH  21  22
HETATM   22  C           1     -30.992  -5.342 -16.747  0.00  0.00     0.116 C 
BRANCH  22  23
HETATM   23  C           1     -31.843  -4.117 -16.968  0.00  0.00     0.172 C 
HETATM   24  O           1     -31.378  -3.136 -17.589  0.00  0.00    -0.648 OA
HETATM   25  O           1     -33.014  -4.081 -16.532  0.00  0.00    -0.648 OA
ENDBRANCH  22  23
ENDBRANCH  21  22
ENDBRANCH  17  21
ENDBRANCH   3  17
TORSDOF 11
ENDMDL
MODEL 3
REMARK VINA RESULT:      -6.0      2.686      6.925
REMARK  11 active torsions:
REMARK  status: ('A' for Active; 'I' for Inactive)
REMARK    1  A    between atoms: C_4  and  C_5 
REMARK    2  A    between atoms: C_5  and  C_18 
REMARK    3  A    between atoms: C_5  and  N_13 
REMARK    4  A    between atoms: C_6  and  C_10 
REMARK    5  A    between atoms: C_6  and  C_9 
REMARK    6  A    between atoms: C_9  and  C_20 
REMARK    7  A    between atoms: C_10  and  C_19 
REMARK    8  A    between atoms: C_10  and  N_21 
REMARK       I    between atoms: N_13  and  C_19 
REMARK    9  A    between atoms: C_15  and  C_17 
REMARK   10  A    between atoms: C_15  and  C_18 
REMARK   11  A    between atoms: C_20  and  N_23 
ROOT
HETATM    1  O           1     -23.045  -3.168  -8.590  0.00  0.00    -0.271 OA
HETATM    2  H           1     -22.282  -6.180  -9.028  0.00  0.00     0.163 HD
HETATM    3  N           1     -22.207  -5.236  -8.667  0.00  0.00    -0.345 N 
HETATM    4  C           1     -23.135  -4.293  -9.020  0.00  0.00     0.249 C 
ENDROOT
BRANCH   4   5
HETATM    5  C           1     -24.269  -4.660  -9.945  0.00  0.00     0.274 C 
BRANCH   5   6
HETATM    6  C           1     -23.762  -4.694 -11.381  0.00  0.00     0.044 C 
BRANCH   6   7
HETATM    7  C           1     -23.964  -3.329 -12.024  0.00  0.00     0.030 C 
BRANCH   7   8
HETATM    8  C           1     -22.610  -2.729 -12.380  0.00  0.00     0.230 C 
BRANCH   8   9
HETATM    9  N           1     -21.572  -3.811 -12.398  0.00  0.00    -0.079 N 
HETATM   10  H           1     -20.678  -3.443 -12.001  0.00  0.00     0.274 HD
HETATM   11  H           1     -21.412  -4.125 -13.381  0.00  0.00     0.274 HD
HETATM   12  H           1     -21.902  -4.619 -11.822  0.00  0.00     0.274 HD
ENDBRANCH   8   9
ENDBRANCH   7   8
ENDBRANCH   6   7
ENDBRANCH   5   6
BRANCH   5  13
HETATM   13  N           1     -25.361  -3.638  -9.825  0.00  0.00    -0.067 N 
HETATM   14  H           1     -25.001  -2.706 -10.131  0.00  0.00     0.275 HD
HETATM   15  H           1     -26.167  -3.915 -10.430  0.00  0.00     0.275 HD
HETATM   16  H           1     -25.676  -3.581  -8.830  0.00  0.00     0.275 HD
ENDBRANCH   5  13
ENDBRANCH   4   5
BRANCH   3  17
HETATM   17  C           1     -21.116  -4.885  -7.779  0.00  0.00     0.186 C 
BRANCH  17  18
HETATM   18  C           1     -19.898  -4.530  -8.595  0.00  0.00     0.196 C 
HETATM   19  O           1     -19.908  -4.693  -9.835  0.00  0.00    -0.646 OA
HETATM   20  O           1     -18.880  -4.071  -8.033  0.00  0.00    -0.646 OA
ENDBRANCH  17  18
BRANCH  17  21
HETATM   21  C           1     -20.796  -6.068  -6.875  0.00  0.00     0.046 C 
BRANCH  21  22
HETATM   22  C           1     -20.746  -5.603  -5.426  0.00  0.00     0.116 C 
BRANCH  22  23
HETATM   23  C           1     -21.828  -6.299  -4.637  0.00  0.00     0.172 C 
HETATM   24  O           1     -21.524  -7.014  -3.657  0.00  0.00    -0.648 OA
HETATM   25  O           1     -23.027  -6.162  -4.964  0.00  0.00    -0.648 OA
ENDBRANCH  22  23
ENDBRANCH  21  22
ENDBRANCH  17  21
ENDBRANCH   3  17
TORSDOF 11
ENDMDL
MODEL 4
REMARK VINA RESULT:      -5.8      9.728     12.596
REMARK  11 active torsions:
REMARK  status: ('A' for Active; 'I' for Inactive)
REMARK    1  A    between atoms: C_4  and  C_5 
REMARK    2  A    between atoms: C_5  and  C_18 
REMARK    3  A    between atoms: C_5  and  N_13 
REMARK    4  A    between atoms: C_6  and  C_10 
REMARK    5  A    between atoms: C_6  and  C_9 
REMARK    6  A    between atoms: C_9  and  C_20 
REMARK    7  A    between atoms: C_10  and  C_19 
REMARK    8  A    between atoms: C_10  and  N_21 
REMARK       I    between atoms: N_13  and  C_19 
REMARK    9  A    between atoms: C_15  and  C_17 
REMARK   10  A    between atoms: C_15  and  C_18 
REMARK   11  A    between atoms: C_20  and  N_23 
ROOT
HETATM    1  O           1     -27.793  -8.139 -20.485  0.00  0.00    -0.271 OA
HETATM    2  H           1     -27.086  -5.962 -18.339  0.00  0.00     0.163 HD
HETATM    3  N           1     -27.634  -6.673 -18.809  0.00  0.00    -0.345 N 
HETATM    4  C           1     -27.139  -7.292 -19.925  0.00  0.00     0.249 C 
ENDROOT
BRANCH   4   5
HETATM    5  C           1     -25.777  -6.915 -20.456  0.00  0.00     0.274 C 
BRANCH   5   6
HETATM    6  C           1     -25.250  -8.036 -21.341  0.00  0.00     0.044 C 
BRANCH   6   7
HETATM    7  C           1     -24.260  -7.467 -22.348  0.00  0.00     0.030 C 
BRANCH   7   8
HETATM    8  C           1     -23.058  -8.394 -22.460  0.00  0.00     0.230 C 
BRANCH   8   9
HETATM    9  N           1     -22.777  -9.015 -21.124  0.00  0.00    -0.079 N 
HETATM   10  H           1     -23.673  -9.128 -20.597  0.00  0.00     0.274 HD
HETATM   11  H           1     -22.131  -8.399 -20.583  0.00  0.00     0.274 HD
HETATM   12  H           1     -22.334  -9.952 -21.262  0.00  0.00     0.274 HD
ENDBRANCH   8   9
ENDBRANCH   7   8
ENDBRANCH   6   7
ENDBRANCH   5   6
BRANCH   5  13
HETATM   13  N           1     -24.836  -6.702 -19.307  0.00  0.00    -0.067 N 
HETATM   14  H           1     -23.858  -6.897 -19.618  0.00  0.00     0.275 HD
HETATM   15  H           1     -24.906  -5.712 -18.978  0.00  0.00     0.275 HD
HETATM   16  H           1     -25.089  -7.347 -18.525  0.00  0.00     0.275 HD
ENDBRANCH   5  13
ENDBRANCH   4   5
BRANCH   3  17
HETATM   17  C           1     -28.942  -7.033 -18.298  0.00  0.00     0.186 C 
BRANCH  17  18
HETATM   18  C           1     -29.817  -5.804 -18.246  0.00  0.00     0.196 C 
HETATM   19  O           1     -30.874  -5.818 -17.578  0.00  0.00    -0.646 OA
HETATM   20  O           1     -29.483  -4.773 -18.868  0.00  0.00    -0.646 OA
ENDBRANCH  17  18
BRANCH  17  21
HETATM   21  C           1     -28.799  -7.616 -16.899  0.00  0.00     0.046 C 
BRANCH  21  22
HETATM   22  C           1     -28.249  -6.553 -15.958  0.00  0.00     0.116 C 
BRANCH  22  23
HETATM   23  C           1     -26.741  -6.587 -15.988  0.00  0.00     0.172 C 
HETATM   24  O           1     -26.109  -5.727 -16.640  0.00  0.00    -0.648 OA
HETATM   25  O           1     -26.123  -7.475 -15.362  0.00  0.00    -0.648 OA
ENDBRANCH  22  23
ENDBRANCH  21  22
ENDBRANCH  17  21
ENDBRANCH   3  17
TORSDOF 11
ENDMDL
MODEL 5
REMARK VINA RESULT:      -5.7      4.025      8.096
REMARK  11 active torsions:
REMARK  status: ('A' for Active; 'I' for Inactive)
REMARK    1  A    between atoms: C_4  and  C_5 
REMARK    2  A    between atoms: C_5  and  C_18 
REMARK    3  A    between atoms: C_5  and  N_13 
REMARK    4  A    between atoms: C_6  and  C_10 
REMARK    5  A    between atoms: C_6  and  C_9 
REMARK    6  A    between atoms: C_9  and  C_20 
REMARK    7  A    between atoms: C_10  and  C_19 
REMARK    8  A    between atoms: C_10  and  N_21 
REMARK       I    between atoms: N_13  and  C_19 
REMARK    9  A    between atoms: C_15  and  C_17 
REMARK   10  A    between atoms: C_15  and  C_18 
REMARK   11  A    between atoms: C_20  and  N_23 
ROOT
HETATM    1  O           1     -20.298  -4.357  -6.128  0.00  0.00    -0.271 OA
HETATM    2  H           1     -21.900  -6.944  -6.893  0.00  0.00     0.163 HD
HETATM    3  N           1     -21.326  -6.329  -6.329  0.00  0.00    -0.345 N 
HETATM    4  C           1     -20.981  -5.091  -6.801  0.00  0.00     0.249 C 
ENDROOT
BRANCH   4   5
HETATM    5  C           1     -21.455  -4.644  -8.163  0.00  0.00     0.274 C 
BRANCH   5   6
HETATM    6  C           1     -20.282  -4.066  -8.944  0.00  0.00     0.044 C 
BRANCH   6   7
HETATM    7  C           1     -20.130  -4.815 -10.261  0.00  0.00     0.030 C 
BRANCH   7   8
HETATM    8  C           1     -21.154  -4.299 -11.262  0.00  0.00     0.230 C 
BRANCH   8   9
HETATM    9  N           1     -20.856  -2.866 -11.590  0.00  0.00    -0.079 N 
HETATM   10  H           1     -20.897  -2.730 -12.625  0.00  0.00     0.274 HD
HETATM   11  H           1     -19.901  -2.621 -11.245  0.00  0.00     0.274 HD
HETATM   12  H           1     -21.563  -2.249 -11.130  0.00  0.00     0.274 HD
ENDBRANCH   8   9
ENDBRANCH   7   8
ENDBRANCH   6   7
ENDBRANCH   5   6
BRANCH   5  13
HETATM   13  N           1     -22.514  -3.594  -8.003  0.00  0.00    -0.067 N 
HETATM   14  H           1     -23.371  -3.881  -8.527  0.00  0.00     0.275 HD
HETATM   15  H           1     -22.745  -3.483  -6.990  0.00  0.00     0.275 HD
HETATM   16  H           1     -22.163  -2.685  -8.381  0.00  0.00     0.275 HD
ENDBRANCH   5  13
ENDBRANCH   4   5
BRANCH   3  17
HETATM   17  C           1     -20.872  -6.759  -5.021  0.00  0.00     0.186 C 
BRANCH  17  18
HETATM   18  C           1     -20.380  -8.183  -5.105  0.00  0.00     0.196 C 
HETATM   19  O           1     -21.037  -9.035  -5.742  0.00  0.00    -0.646 OA
HETATM   20  O           1     -19.314  -8.511  -4.539  0.00  0.00    -0.646 OA
ENDBRANCH  17  18
BRANCH  17  21
HETATM   21  C           1     -22.024  -6.677  -4.029  0.00  0.00     0.046 C 
BRANCH  21  22
HETATM   22  C           1     -21.521  -6.106  -2.711  0.00  0.00     0.116 C 
BRANCH  22  23
HETATM   23  C           1     -21.811  -7.082  -1.597  0.00  0.00     0.172 C 
HETATM   24  O           1     -21.101  -8.101  -1.459  0.00  0.00    -0.648 OA
HETATM   25  O           1     -22.761  -6.871  -0.813  0.00  0.00    -0.648 OA
ENDBRANCH  22  23
ENDBRANCH  21  22
ENDBRANCH  17  21
ENDBRANCH   3  17
TORSDOF 11
ENDMDL
MODEL 6
REMARK VINA RESULT:      -5.7      4.402      7.926
REMARK  11 active torsions:
REMARK  status: ('A' for Active; 'I' for Inactive)
REMARK    1  A    between atoms: C_4  and  C_5 
REMARK    2  A    between atoms: C_5  and  C_18 
REMARK    3  A    between atoms: C_5  and  N_13 
REMARK    4  A    between atoms: C_6  and  C_10 
REMARK    5  A    between atoms: C_6  and  C_9 
REMARK    6  A    between atoms: C_9  and  C_20 
REMARK    7  A    between atoms: C_10  and  C_19 
REMARK    8  A    between atoms: C_10  and  N_21 
REMARK       I    between atoms: N_13  and  C_19 
REMARK    9  A    between atoms: C_15  and  C_17 
REMARK   10  A    between atoms: C_15  and  C_18 
REMARK   11  A    between atoms: C_20  and  N_23 
ROOT
HETATM    1  O           1     -19.938  -4.366  -5.220  0.00  0.00    -0.271 OA
HETATM    2  H           1     -21.915  -6.405  -6.556  0.00  0.00     0.163 HD
HETATM    3  N           1     -21.282  -6.031  -5.858  0.00  0.00    -0.345 N 
HETATM    4  C           1     -20.693  -4.811  -6.052  0.00  0.00     0.249 C 
ENDROOT
BRANCH   4   5
HETATM    5  C           1     -20.988  -4.020  -7.304  0.00  0.00     0.274 C 
BRANCH   5   6
HETATM    6  C           1     -22.413  -4.305  -7.760  0.00  0.00     0.044 C 
BRANCH   6   7
HETATM    7  C           1     -22.424  -4.565  -9.260  0.00  0.00     0.030 C 
BRANCH   7   8
HETATM    8  C           1     -23.843  -4.415  -9.792  0.00  0.00     0.230 C 
BRANCH   8   9
HETATM    9  N           1     -24.571  -3.376  -8.991  0.00  0.00    -0.079 N 
HETATM   10  H           1     -25.248  -2.872  -9.607  0.00  0.00     0.274 HD
HETATM   11  H           1     -23.884  -2.695  -8.598  0.00  0.00     0.274 HD
HETATM   12  H           1     -25.089  -3.839  -8.210  0.00  0.00     0.274 HD
ENDBRANCH   8   9
ENDBRANCH   7   8
ENDBRANCH   6   7
ENDBRANCH   5   6
BRANCH   5  13
HETATM   13  N           1     -20.028  -4.421  -8.384  0.00  0.00    -0.067 N 
HETATM   14  H           1     -19.178  -3.815  -8.337  0.00  0.00     0.275 HD
HETATM   15  H           1     -19.751  -5.420  -8.252  0.00  0.00     0.275 HD
HETATM   16  H           1     -20.486  -4.308  -9.317  0.00  0.00     0.275 HD
ENDBRANCH   5  13
ENDBRANCH   4   5
BRANCH   3  17
HETATM   17  C           1     -21.000  -6.791  -4.656  0.00  0.00     0.186 C 
BRANCH  17  18
HETATM   18  C           1     -20.718  -8.227  -5.025  0.00  0.00     0.196 C 
HETATM   19  O           1     -19.767  -8.500  -5.790  0.00  0.00    -0.646 OA
HETATM   20  O           1     -21.433  -9.143  -4.564  0.00  0.00    -0.646 OA
ENDBRANCH  17  18
BRANCH  17  21
HETATM   21  C           1     -22.201  -6.732  -3.723  0.00  0.00     0.046 C 
BRANCH  21  22
HETATM   22  C           1     -21.784  -6.119  -2.393  0.00  0.00     0.116 C 
BRANCH  22  23
HETATM   23  C           1     -21.943  -7.142  -1.296  0.00  0.00     0.172 C 
HETATM   24  O           1     -21.098  -8.053  -1.163  0.00  0.00    -0.648 OA
HETATM   25  O           1     -22.921  -7.078  -0.519  0.00  0.00    -0.648 OA
ENDBRANCH  22  23
ENDBRANCH  21  22
ENDBRANCH  17  21
ENDBRANCH   3  17
TORSDOF 11
ENDMDL
MODEL 7
REMARK VINA RESULT:      -5.6      2.926      6.025
REMARK  11 active torsions:
REMARK  status: ('A' for Active; 'I' for Inactive)
REMARK    1  A    between atoms: C_4  and  C_5 
REMARK    2  A    between atoms: C_5  and  C_18 
REMARK    3  A    between atoms: C_5  and  N_13 
REMARK    4  A    between atoms: C_6  and  C_10 
REMARK    5  A    between atoms: C_6  and  C_9 
REMARK    6  A    between atoms: C_9  and  C_20 
REMARK    7  A    between atoms: C_10  and  C_19 
REMARK    8  A    between atoms: C_10  and  N_21 
REMARK       I    between atoms: N_13  and  C_19 
REMARK    9  A    between atoms: C_15  and  C_17 
REMARK   10  A    between atoms: C_15  and  C_18 
REMARK   11  A    between atoms: C_20  and  N_23 
ROOT
HETATM    1  O           1     -22.943  -5.408 -10.238  0.00  0.00    -0.271 OA
HETATM    2  H           1     -23.671  -3.255  -8.075  0.00  0.00     0.163 HD
HETATM    3  N           1     -23.173  -4.029  -8.497  0.00  0.00    -0.345 N 
HETATM    4  C           1     -23.538  -4.485  -9.735  0.00  0.00     0.249 C 
ENDROOT
BRANCH   4   5
HETATM    5  C           1     -24.683  -3.834 -10.472  0.00  0.00     0.274 C 
BRANCH   5   6
HETATM    6  C           1     -24.139  -2.766 -11.413  0.00  0.00     0.044 C 
BRANCH   6   7
HETATM    7  C           1     -24.227  -3.262 -12.850  0.00  0.00     0.030 C 
BRANCH   7   8
HETATM    8  C           1     -22.897  -3.025 -13.552  0.00  0.00     0.230 C 
BRANCH   8   9
HETATM    9  N           1     -21.809  -3.760 -12.825  0.00  0.00    -0.079 N 
HETATM   10  H           1     -21.430  -4.517 -13.438  0.00  0.00     0.274 HD
HETATM   11  H           1     -22.196  -4.180 -11.951  0.00  0.00     0.274 HD
HETATM   12  H           1     -21.042  -3.093 -12.582  0.00  0.00     0.274 HD
ENDBRANCH   8   9
ENDBRANCH   7   8
ENDBRANCH   6   7
ENDBRANCH   5   6
BRANCH   5  13
HETATM   13  N           1     -25.616  -3.200  -9.484  0.00  0.00    -0.067 N 
HETATM   14  H           1     -25.897  -3.907  -8.768  0.00  0.00     0.275 HD
HETATM   15  H           1     -25.136  -2.400  -9.014  0.00  0.00     0.275 HD
HETATM   16  H           1     -26.467  -2.852  -9.982  0.00  0.00     0.275 HD
ENDBRANCH   5  13
ENDBRANCH   4   5
BRANCH   3  17
HETATM   17  C           1     -22.073  -4.654  -7.788  0.00  0.00     0.186 C 
BRANCH  17  18
HETATM   18  C           1     -22.553  -5.135  -6.441  0.00  0.00     0.196 C 
HETATM   19  O           1     -23.761  -5.033  -6.135  0.00  0.00    -0.646 OA
HETATM   20  O           1     -21.744  -5.638  -5.632  0.00  0.00    -0.646 OA
ENDBRANCH  17  18
BRANCH  17  21
HETATM   21  C           1     -20.951  -3.643  -7.597  0.00  0.00     0.046 C 
BRANCH  21  22
HETATM   22  C           1     -19.714  -4.105  -8.357  0.00  0.00     0.116 C 
BRANCH  22  23
HETATM   23  C           1     -19.992  -4.068  -9.839  0.00  0.00     0.172 C 
HETATM   24  O           1     -19.711  -5.056 -10.552  0.00  0.00    -0.648 OA
HETATM   25  O           1     -20.503  -3.051 -10.355  0.00  0.00    -0.648 OA
ENDBRANCH  22  23
ENDBRANCH  21  22
ENDBRANCH  17  21
ENDBRANCH   3  17
TORSDOF 11
ENDMDL
MODEL 8
REMARK VINA RESULT:      -5.6      9.794     12.998
REMARK  11 active torsions:
REMARK  status: ('A' for Active; 'I' for Inactive)
REMARK    1  A    between atoms: C_4  and  C_5 
REMARK    2  A    between atoms: C_5  and  C_18 
REMARK    3  A    between atoms: C_5  and  N_13 
REMARK    4  A    between atoms: C_6  and  C_10 
REMARK    5  A    between atoms: C_6  and  C_9 
REMARK    6  A    between atoms: C_9  and  C_20 
REMARK    7  A    between atoms: C_10  and  C_19 
REMARK    8  A    between atoms: C_10  and  N_21 
REMARK       I    between atoms: N_13  and  C_19 
REMARK    9  A    between atoms: C_15  and  C_17 
REMARK   10  A    between atoms: C_15  and  C_18 
REMARK   11  A    between atoms: C_20  and  N_23 
ROOT
HETATM    1  O           1     -31.150  -3.569 -17.305  0.00  0.00    -0.271 OA
HETATM    2  H           1     -31.690  -6.435 -16.146  0.00  0.00     0.163 HD
HETATM    3  N           1     -31.164  -5.673 -16.558  0.00  0.00    -0.345 N 
HETATM    4  C           1     -31.778  -4.477 -16.814  0.00  0.00     0.249 C 
ENDROOT
BRANCH   4   5
HETATM    5  C           1     -33.239  -4.292 -16.484  0.00  0.00     0.274 C 
BRANCH   5   6
HETATM    6  C           1     -33.734  -2.983 -17.085  0.00  0.00     0.044 C 
BRANCH   6   7
HETATM    7  C           1     -35.065  -2.603 -16.450  0.00  0.00     0.030 C 
BRANCH   7   8
HETATM    8  C           1     -35.223  -1.089 -16.468  0.00  0.00     0.230 C 
BRANCH   8   9
HETATM    9  N           1     -36.566  -0.731 -17.032  0.00  0.00    -0.079 N 
HETATM   10  H           1     -36.456   0.036 -17.733  0.00  0.00     0.274 HD
HETATM   11  H           1     -37.194  -0.412 -16.262  0.00  0.00     0.274 HD
HETATM   12  H           1     -36.981  -1.570 -17.497  0.00  0.00     0.274 HD
ENDBRANCH   8   9
ENDBRANCH   7   8
ENDBRANCH   6   7
ENDBRANCH   5   6
BRANCH   5  13
HETATM   13  N           1     -33.413  -4.255 -14.994  0.00  0.00    -0.067 N 
HETATM   14  H           1     -32.610  -3.745 -14.563  0.00  0.00     0.275 HD
HETATM   15  H           1     -34.304  -3.765 -14.759  0.00  0.00     0.275 HD
HETATM   16  H           1     -33.445  -5.232 -14.623  0.00  0.00     0.275 HD
ENDBRANCH   5  13
ENDBRANCH   4   5
BRANCH   3  17
HETATM   17  C           1     -29.761  -5.852 -16.876  0.00  0.00     0.186 C 
BRANCH  17  18
HETATM   18  C           1     -29.610  -6.979 -17.868  0.00  0.00     0.196 C 
HETATM   19  O           1     -28.739  -6.912 -18.762  0.00  0.00    -0.646 OA
HETATM   20  O           1     -30.355  -7.980 -17.795  0.00  0.00    -0.646 OA
ENDBRANCH  17  18
BRANCH  17  21
HETATM   21  C           1     -28.990  -6.186 -15.606  0.00  0.00     0.046 C 
BRANCH  21  22
HETATM   22  C           1     -27.982  -7.290 -15.897  0.00  0.00     0.116 C 
BRANCH  22  23
HETATM   23  C           1     -26.591  -6.707 -15.923  0.00  0.00     0.172 C 
HETATM   24  O           1     -26.341  -5.720 -16.649  0.00  0.00    -0.648 OA
HETATM   25  O           1     -25.689  -7.210 -15.219  0.00  0.00    -0.648 OA
ENDBRANCH  22  23
ENDBRANCH  21  22
ENDBRANCH  17  21
ENDBRANCH   3  17
TORSDOF 11
ENDMDL
MODEL 9
REMARK VINA RESULT:      -5.5      3.908      7.524
REMARK  11 active torsions:
REMARK  status: ('A' for Active; 'I' for Inactive)
REMARK    1  A    between atoms: C_4  and  C_5 
REMARK    2  A    between atoms: C_5  and  C_18 
REMARK    3  A    between atoms: C_5  and  N_13 
REMARK    4  A    between atoms: C_6  and  C_10 
REMARK    5  A    between atoms: C_6  and  C_9 
REMARK    6  A    between atoms: C_9  and  C_20 
REMARK    7  A    between atoms: C_10  and  C_19 
REMARK    8  A    between atoms: C_10  and  N_21 
REMARK       I    between atoms: N_13  and  C_19 
REMARK    9  A    between atoms: C_15  and  C_17 
REMARK   10  A    between atoms: C_15  and  C_18 
REMARK   11  A    between atoms: C_20  and  N_23 
ROOT
HETATM    1  O           1     -22.556  -5.606  -5.620  0.00  0.00    -0.271 OA
HETATM    2  H           1     -19.839  -6.870  -4.689  0.00  0.00     0.163 HD
HETATM    3  N           1     -20.839  -6.714  -4.718  0.00  0.00    -0.345 N 
HETATM    4  C           1     -21.363  -5.793  -5.585  0.00  0.00     0.249 C 
ENDROOT
BRANCH   4   5
HETATM    5  C           1     -20.449  -5.011  -6.499  0.00  0.00     0.274 C 
BRANCH   5   6
HETATM    6  C           1     -21.221  -3.854  -7.118  0.00  0.00     0.044 C 
BRANCH   6   7
HETATM    7  C           1     -21.424  -4.116  -8.604  0.00  0.00     0.030 C 
BRANCH   7   8
HETATM    8  C           1     -22.840  -3.720  -9.002  0.00  0.00     0.230 C 
BRANCH   8   9
HETATM    9  N           1     -23.794  -4.109  -7.912  0.00  0.00    -0.079 N 
HETATM   10  H           1     -24.163  -3.249  -7.448  0.00  0.00     0.274 HD
HETATM   11  H           1     -23.296  -4.698  -7.207  0.00  0.00     0.274 HD
HETATM   12  H           1     -24.588  -4.652  -8.322  0.00  0.00     0.274 HD
ENDBRANCH   8   9
ENDBRANCH   7   8
ENDBRANCH   6   7
ENDBRANCH   5   6
BRANCH   5  13
HETATM   13  N           1     -19.941  -5.912  -7.585  0.00  0.00    -0.067 N 
HETATM   14  H           1     -19.579  -5.333  -8.376  0.00  0.00     0.275 HD
HETATM   15  H           1     -19.171  -6.510  -7.210  0.00  0.00     0.275 HD
HETATM   16  H           1     -20.720  -6.520  -7.926  0.00  0.00     0.275 HD
ENDBRANCH   5  13
ENDBRANCH   4   5
BRANCH   3  17
HETATM   17  C           1     -21.715  -7.464  -3.840  0.00  0.00     0.186 C 
BRANCH  17  18
HETATM   18  C           1     -21.662  -6.874  -2.453  0.00  0.00     0.196 C 
HETATM   19  O           1     -20.926  -7.388  -1.583  0.00  0.00    -0.646 OA
HETATM   20  O           1     -22.353  -5.870  -2.174  0.00  0.00    -0.646 OA
ENDBRANCH  17  18
BRANCH  17  21
HETATM   21  C           1     -21.263  -8.918  -3.792  0.00  0.00     0.046 C 
BRANCH  21  22
HETATM   22  C           1     -19.883  -9.042  -4.424  0.00  0.00     0.116 C 
BRANCH  22  23
HETATM   23  C           1     -19.942 -10.022  -5.570  0.00  0.00     0.172 C 
HETATM   24  O           1     -18.884 -10.433  -6.095  0.00  0.00    -0.648 OA
HETATM   25  O           1     -21.047 -10.423  -5.994  0.00  0.00    -0.648 OA
ENDBRANCH  22  23
ENDBRANCH  21  22
ENDBRANCH  17  21
ENDBRANCH   3  17
TORSDOF 11
ENDMDL
