MODEL 1
REMARK VINA RESULT:      -5.1      0.000      0.000
REMARK  6 active torsions:
REMARK  status: ('A' for Active; 'I' for Inactive)
REMARK    1  A    between atoms: Se_2  and  C_3 
REMARK    2  A    between atoms: C_3  and  C_5 
REMARK    3  A    between atoms: C_5  and  C_6 
REMARK    4  A    between atoms: C_5  and  N_9 
REMARK       I    between atoms: N_9  and  C_14 
REMARK    5  A    between atoms: N_11  and  C_15 
REMARK    6  A    between atoms: C_14  and  C_15 
ROOT
HETATM    1  H           1     -22.731  -5.663  -8.488  0.00  0.00     0.163 HD
HETATM    2  N           1     -22.445  -4.697  -8.398  0.00  0.00    -0.345 N 
HETATM    3  O           1     -21.372  -3.144  -7.203  0.00  0.00    -0.271 OA
HETATM    4  C           1     -21.712  -4.299  -7.312  0.00  0.00     0.248 C 
ENDROOT
BRANCH   2   5
HETATM    5  C           1     -22.812  -3.733  -9.417  0.00  0.00     0.185 C 
BRANCH   5   6
HETATM    6  C           1     -22.066  -4.050 -10.707  0.00  0.00     0.039 C 
BRANCH   6   7
HETATM    7 Se           1     -22.625  -2.812 -12.104  0.00  0.00     0.000 Se
HETATM    8  H           1     -21.586  -3.235 -13.056  0.00  0.00     0.000 HD
ENDBRANCH   6   7
ENDBRANCH   5   6
BRANCH   5   9
HETATM    9  C           1     -24.299  -3.806  -9.664  0.00  0.00     0.196 C 
HETATM   10  O           1     -25.009  -2.789  -9.508  0.00  0.00    -0.646 OA
HETATM   11  O           1     -24.820  -4.883 -10.027  0.00  0.00    -0.646 OA
ENDBRANCH   5   9
ENDBRANCH   2   5
BRANCH   4  12
HETATM   12  C           1     -21.329  -5.301  -6.250  0.00  0.00     0.270 C 
HETATM   13  C           1     -20.167  -4.755  -5.432  0.00  0.00     0.050 C 
BRANCH  12  14
HETATM   14  N           1     -20.919  -6.587  -6.904  0.00  0.00    -0.067 N 
HETATM   15  H           1     -21.752  -7.032  -7.350  0.00  0.00     0.275 HD
HETATM   16  H           1     -20.523  -7.232  -6.184  0.00  0.00     0.275 HD
HETATM   17  H           1     -20.195  -6.393  -7.632  0.00  0.00     0.275 HD
ENDBRANCH  12  14
ENDBRANCH   4  12
TORSDOF 6
ENDMDL
MODEL 2
REMARK VINA RESULT:      -4.3     18.203     19.335
REMARK  6 active torsions:
REMARK  status: ('A' for Active; 'I' for Inactive)
REMARK    1  A    between atoms: Se_2  and  C_3 
REMARK    2  A    between atoms: C_3  and  C_5 
REMARK    3  A    between atoms: C_5  and  C_6 
REMARK    4  A    between atoms: C_5  and  N_9 
REMARK       I    between atoms: N_9  and  C_14 
REMARK    5  A    between atoms: N_11  and  C_15 
REMARK    6  A    between atoms: C_14  and  C_15 
ROOT
HETATM    1  H           1     -10.955   6.826 -21.230  0.00  0.00     0.163 HD
HETATM    2  N           1     -11.793   6.943 -20.675  0.00  0.00    -0.345 N 
HETATM    3  O           1     -12.912   8.152 -19.167  0.00  0.00    -0.271 OA
HETATM    4  C           1     -11.912   8.014 -19.830  0.00  0.00     0.248 C 
ENDROOT
BRANCH   2   5
HETATM    5  C           1     -12.869   5.975 -20.774  0.00  0.00     0.185 C 
BRANCH   5   6
HETATM    6  C           1     -13.140   5.668 -22.241  0.00  0.00     0.039 C 
BRANCH   6   7
HETATM    7 Se           1     -15.042   5.322 -22.493  0.00  0.00     0.000 Se
HETATM    8  H           1     -15.262   4.877 -21.108  0.00  0.00     0.000 HD
ENDBRANCH   6   7
ENDBRANCH   5   6
BRANCH   5   9
HETATM    9  C           1     -12.472   4.707 -20.059  0.00  0.00     0.196 C 
HETATM   10  O           1     -12.185   4.739 -18.843  0.00  0.00    -0.646 OA
HETATM   11  O           1     -12.431   3.625 -20.683  0.00  0.00    -0.646 OA
ENDBRANCH   5   9
ENDBRANCH   2   5
BRANCH   4  12
HETATM   12  C           1     -10.793   9.021 -19.726  0.00  0.00     0.270 C 
HETATM   13  C           1      -9.732   8.711 -20.772  0.00  0.00     0.050 C 
BRANCH  12  14
HETATM   14  N           1     -10.182   8.948 -18.358  0.00  0.00    -0.067 N 
HETATM   15  H           1      -9.144   8.870 -18.444  0.00  0.00     0.275 HD
HETATM   16  H           1     -10.554   8.111 -17.854  0.00  0.00     0.275 HD
HETATM   17  H           1     -10.424   9.811 -17.821  0.00  0.00     0.275 HD
ENDBRANCH  12  14
ENDBRANCH   4  12
TORSDOF 6
ENDMDL
MODEL 3
REMARK VINA RESULT:      -4.3      3.358      4.457
REMARK  6 active torsions:
REMARK  status: ('A' for Active; 'I' for Inactive)
REMARK    1  A    between atoms: Se_2  and  C_3 
REMARK    2  A    between atoms: C_3  and  C_5 
REMARK    3  A    between atoms: C_5  and  C_6 
REMARK    4  A    between atoms: C_5  and  N_9 
REMARK       I    between atoms: N_9  and  C_14 
REMARK    5  A    between atoms: N_11  and  C_15 
REMARK    6  A    between atoms: C_14  and  C_15 
ROOT
HETATM    1  H           1     -20.458  -4.625  -4.916  0.00  0.00     0.163 HD
HETATM    2  N           1     -21.063  -5.339  -5.302  0.00  0.00    -0.345 N 
HETATM    3  O           1     -22.314  -7.155  -4.946  0.00  0.00    -0.271 OA
HETATM    4  C           1     -21.593  -6.302  -4.485  0.00  0.00     0.248 C 
ENDROOT
BRANCH   2   5
HETATM    5  C           1     -21.370  -5.342  -6.719  0.00  0.00     0.185 C 
BRANCH   5   6
HETATM    6  C           1     -21.808  -3.946  -7.146  0.00  0.00     0.039 C 
BRANCH   6   7
HETATM    7 Se           1     -23.152  -4.087  -8.550  0.00  0.00     0.000 Se
HETATM    8  H           1     -23.578  -5.442  -8.166  0.00  0.00     0.000 HD
ENDBRANCH   6   7
ENDBRANCH   5   6
BRANCH   5   9
HETATM    9  C           1     -20.141  -5.744  -7.497  0.00  0.00     0.196 C 
HETATM   10  O           1     -19.777  -5.068  -8.484  0.00  0.00    -0.646 OA
HETATM   11  O           1     -19.487  -6.752  -7.155  0.00  0.00    -0.646 OA
ENDBRANCH   5   9
ENDBRANCH   2   5
BRANCH   4  12
HETATM   12  C           1     -21.275  -6.300  -3.010  0.00  0.00     0.270 C 
HETATM   13  C           1     -20.870  -7.702  -2.576  0.00  0.00     0.050 C 
BRANCH  12  14
HETATM   14  N           1     -22.487  -5.869  -2.239  0.00  0.00    -0.067 N 
HETATM   15  H           1     -22.475  -4.831  -2.124  0.00  0.00     0.275 HD
HETATM   16  H           1     -22.481  -6.324  -1.298  0.00  0.00     0.275 HD
HETATM   17  H           1     -23.349  -6.153  -2.757  0.00  0.00     0.275 HD
ENDBRANCH  12  14
ENDBRANCH   4  12
TORSDOF 6
ENDMDL
MODEL 4
REMARK VINA RESULT:      -4.3      3.318      5.603
REMARK  6 active torsions:
REMARK  status: ('A' for Active; 'I' for Inactive)
REMARK    1  A    between atoms: Se_2  and  C_3 
REMARK    2  A    between atoms: C_3  and  C_5 
REMARK    3  A    between atoms: C_5  and  C_6 
REMARK    4  A    between atoms: C_5  and  N_9 
REMARK       I    between atoms: N_9  and  C_14 
REMARK    5  A    between atoms: N_11  and  C_15 
REMARK    6  A    between atoms: C_14  and  C_15 
ROOT
HETATM    1  H           1     -22.403  -4.985 -11.865  0.00  0.00     0.163 HD
HETATM    2  N           1     -22.268  -4.037 -11.536  0.00  0.00    -0.345 N 
HETATM    3  O           1     -22.338  -1.850 -11.985  0.00  0.00    -0.271 OA
HETATM    4  C           1     -22.500  -2.981 -12.377  0.00  0.00     0.248 C 
ENDROOT
BRANCH   2   5
HETATM    5  C           1     -21.830  -3.797 -10.175  0.00  0.00     0.185 C 
BRANCH   5   6
HETATM    6  C           1     -22.860  -4.361  -9.204  0.00  0.00     0.039 C 
BRANCH   6   7
HETATM    7 Se           1     -24.596  -3.543  -9.548  0.00  0.00     0.000 Se
HETATM    8  H           1     -24.077  -2.583 -10.535  0.00  0.00     0.000 HD
ENDBRANCH   6   7
ENDBRANCH   5   6
BRANCH   5   9
HETATM    9  C           1     -20.501  -4.474  -9.948  0.00  0.00     0.196 C 
HETATM   10  O           1     -19.775  -4.768 -10.922  0.00  0.00    -0.646 OA
HETATM   11  O           1     -20.125  -4.739  -8.786  0.00  0.00    -0.646 OA
ENDBRANCH   5   9
ENDBRANCH   2   5
BRANCH   4  12
HETATM   12  C           1     -22.955  -3.230 -13.794  0.00  0.00     0.270 C 
HETATM   13  C           1     -23.495  -1.937 -14.389  0.00  0.00     0.050 C 
BRANCH  12  14
HETATM   14  N           1     -24.037  -4.270 -13.794  0.00  0.00    -0.067 N 
HETATM   15  H           1     -23.607  -5.220 -13.868  0.00  0.00     0.275 HD
HETATM   16  H           1     -24.672  -4.111 -14.609  0.00  0.00     0.275 HD
HETATM   17  H           1     -24.585  -4.203 -12.908  0.00  0.00     0.275 HD
ENDBRANCH  12  14
ENDBRANCH   4  12
TORSDOF 6
ENDMDL
MODEL 5
REMARK VINA RESULT:      -4.2     17.770     18.825
REMARK  6 active torsions:
REMARK  status: ('A' for Active; 'I' for Inactive)
REMARK    1  A    between atoms: Se_2  and  C_3 
REMARK    2  A    between atoms: C_3  and  C_5 
REMARK    3  A    between atoms: C_5  and  C_6 
REMARK    4  A    between atoms: C_5  and  N_9 
REMARK       I    between atoms: N_9  and  C_14 
REMARK    5  A    between atoms: N_11  and  C_15 
REMARK    6  A    between atoms: C_14  and  C_15 
ROOT
HETATM    1  H           1     -11.921   4.908 -19.512  0.00  0.00     0.163 HD
HETATM    2  N           1     -12.142   5.304 -20.416  0.00  0.00    -0.345 N 
HETATM    3  O           1     -11.747   6.896 -21.933  0.00  0.00    -0.271 OA
HETATM    4  C           1     -11.483   6.422 -20.853  0.00  0.00     0.248 C 
ENDROOT
BRANCH   2   5
HETATM    5  C           1     -13.156   4.688 -21.250  0.00  0.00     0.185 C 
BRANCH   5   6
HETATM    6  C           1     -13.047   3.172 -21.144  0.00  0.00     0.039 C 
BRANCH   6   7
HETATM    7 Se           1     -11.207   2.678 -20.735  0.00  0.00     0.000 Se
HETATM    8  H           1     -11.121   3.534 -19.541  0.00  0.00     0.000 HD
ENDBRANCH   6   7
ENDBRANCH   5   6
BRANCH   5   9
HETATM    9  C           1     -14.522   5.129 -20.787  0.00  0.00     0.196 C 
HETATM   10  O           1     -14.747   5.293 -19.568  0.00  0.00    -0.646 OA
HETATM   11  O           1     -15.430   5.332 -21.623  0.00  0.00    -0.646 OA
ENDBRANCH   5   9
ENDBRANCH   2   5
BRANCH   4  12
HETATM   12  C           1     -10.428   7.064 -19.986  0.00  0.00     0.270 C 
HETATM   13  C           1      -9.463   7.853 -20.860  0.00  0.00     0.050 C 
BRANCH  12  14
HETATM   14  N           1      -9.674   5.998 -19.247  0.00  0.00    -0.067 N 
HETATM   15  H           1      -8.929   6.440 -18.662  0.00  0.00     0.275 HD
HETATM   16  H           1      -9.237   5.342 -19.932  0.00  0.00     0.275 HD
HETATM   17  H           1     -10.333   5.469 -18.631  0.00  0.00     0.275 HD
ENDBRANCH  12  14
ENDBRANCH   4  12
TORSDOF 6
ENDMDL
MODEL 6
REMARK VINA RESULT:      -4.2      3.357      5.416
REMARK  6 active torsions:
REMARK  status: ('A' for Active; 'I' for Inactive)
REMARK    1  A    between atoms: Se_2  and  C_3 
REMARK    2  A    between atoms: C_3  and  C_5 
REMARK    3  A    between atoms: C_5  and  C_6 
REMARK    4  A    between atoms: C_5  and  N_9 
REMARK       I    between atoms: N_9  and  C_14 
REMARK    5  A    between atoms: N_11  and  C_15 
REMARK    6  A    between atoms: C_14  and  C_15 
ROOT
HETATM    1  H           1     -22.707  -6.280  -7.602  0.00  0.00     0.163 HD
HETATM    2  N           1     -22.260  -5.452  -7.232  0.00  0.00    -0.345 N 
HETATM    3  O           1     -21.856  -3.265  -7.443  0.00  0.00    -0.271 OA
HETATM    4  C           1     -22.391  -4.254  -7.883  0.00  0.00     0.248 C 
ENDROOT
BRANCH   2   5
HETATM    5  C           1     -21.478  -5.532  -6.014  0.00  0.00     0.185 C 
BRANCH   5   6
HETATM    6  C           1     -22.095  -6.568  -5.083  0.00  0.00     0.039 C 
BRANCH   6   7
HETATM    7 Se           1     -21.466  -6.266  -3.263  0.00  0.00     0.000 Se
HETATM    8  H           1     -20.432  -7.311  -3.324  0.00  0.00     0.000 HD
ENDBRANCH   6   7
ENDBRANCH   5   6
BRANCH   5   9
HETATM    9  C           1     -20.064  -5.935  -6.350  0.00  0.00     0.196 C 
HETATM   10  O           1     -19.749  -7.145  -6.379  0.00  0.00    -0.646 OA
HETATM   11  O           1     -19.207  -5.060  -6.600  0.00  0.00    -0.646 OA
ENDBRANCH   5   9
ENDBRANCH   2   5
BRANCH   4  12
HETATM   12  C           1     -23.205  -4.170  -9.152  0.00  0.00     0.270 C 
HETATM   13  C           1     -22.351  -3.576 -10.264  0.00  0.00     0.050 C 
BRANCH  12  14
HETATM   14  N           1     -24.401  -3.296  -8.920  0.00  0.00    -0.067 N 
HETATM   15  H           1     -24.526  -3.141  -7.894  0.00  0.00     0.275 HD
HETATM   16  H           1     -25.253  -3.761  -9.309  0.00  0.00     0.275 HD
HETATM   17  H           1     -24.259  -2.377  -9.397  0.00  0.00     0.275 HD
ENDBRANCH  12  14
ENDBRANCH   4  12
TORSDOF 6
ENDMDL
MODEL 7
REMARK VINA RESULT:      -4.2      4.528      6.379
REMARK  6 active torsions:
REMARK  status: ('A' for Active; 'I' for Inactive)
REMARK    1  A    between atoms: Se_2  and  C_3 
REMARK    2  A    between atoms: C_3  and  C_5 
REMARK    3  A    between atoms: C_5  and  C_6 
REMARK    4  A    between atoms: C_5  and  N_9 
REMARK       I    between atoms: N_9  and  C_14 
REMARK    5  A    between atoms: N_11  and  C_15 
REMARK    6  A    between atoms: C_14  and  C_15 
ROOT
HETATM    1  H           1     -19.836  -6.798  -4.782  0.00  0.00     0.163 HD
HETATM    2  N           1     -20.839  -6.665  -4.812  0.00  0.00    -0.345 N 
HETATM    3  O           1     -22.581  -5.593  -5.709  0.00  0.00    -0.271 OA
HETATM    4  C           1     -21.383  -5.752  -5.675  0.00  0.00     0.248 C 
ENDROOT
BRANCH   2   5
HETATM    5  C           1     -21.699  -7.441  -3.940  0.00  0.00     0.185 C 
BRANCH   5   6
HETATM    6  C           1     -21.238  -8.894  -3.935  0.00  0.00     0.039 C 
BRANCH   6   7
HETATM    7 Se           1     -19.476  -9.021  -4.759  0.00  0.00     0.000 Se
HETATM    8  H           1     -19.678  -7.861  -5.641  0.00  0.00     0.000 HD
ENDBRANCH   6   7
ENDBRANCH   5   6
BRANCH   5   9
HETATM    9  C           1     -21.626  -6.886  -2.539  0.00  0.00     0.196 C 
HETATM   10  O           1     -22.311  -5.888  -2.225  0.00  0.00    -0.646 OA
HETATM   11  O           1     -20.881  -7.425  -1.691  0.00  0.00    -0.646 OA
ENDBRANCH   5   9
ENDBRANCH   2   5
BRANCH   4  12
HETATM   12  C           1     -20.489  -4.944  -6.583  0.00  0.00     0.270 C 
HETATM   13  C           1     -21.273  -3.771  -7.155  0.00  0.00     0.050 C 
BRANCH  12  14
HETATM   14  N           1     -20.001  -5.813  -7.703  0.00  0.00    -0.067 N 
HETATM   15  H           1     -19.127  -5.405  -8.105  0.00  0.00     0.275 HD
HETATM   16  H           1     -20.733  -5.867  -8.447  0.00  0.00     0.275 HD
HETATM   17  H           1     -19.803  -6.773  -7.340  0.00  0.00     0.275 HD
ENDBRANCH  12  14
ENDBRANCH   4  12
TORSDOF 6
ENDMDL
MODEL 8
REMARK VINA RESULT:      -4.2      2.296      4.680
REMARK  6 active torsions:
REMARK  status: ('A' for Active; 'I' for Inactive)
REMARK    1  A    between atoms: Se_2  and  C_3 
REMARK    2  A    between atoms: C_3  and  C_5 
REMARK    3  A    between atoms: C_5  and  C_6 
REMARK    4  A    between atoms: C_5  and  N_9 
REMARK       I    between atoms: N_9  and  C_14 
REMARK    5  A    between atoms: N_11  and  C_15 
REMARK    6  A    between atoms: C_14  and  C_15 
ROOT
HETATM    1  H           1     -21.837  -3.040 -10.044  0.00  0.00     0.163 HD
HETATM    2  N           1     -22.393  -3.861  -9.841  0.00  0.00    -0.345 N 
HETATM    3  O           1     -24.201  -5.086 -10.310  0.00  0.00    -0.271 OA
HETATM    4  C           1     -23.537  -4.107 -10.554  0.00  0.00     0.248 C 
ENDROOT
BRANCH   2   5
HETATM    5  C           1     -21.980  -4.777  -8.795  0.00  0.00     0.185 C 
BRANCH   5   6
HETATM    6  C           1     -20.487  -5.050  -8.921  0.00  0.00     0.039 C 
BRANCH   6   7
HETATM    7 Se           1     -19.859  -4.443 -10.664  0.00  0.00     0.000 Se
HETATM    8  H           1     -21.099  -3.720 -10.988  0.00  0.00     0.000 HD
ENDBRANCH   6   7
ENDBRANCH   5   6
BRANCH   5   9
HETATM    9  C           1     -22.268  -4.162  -7.448  0.00  0.00     0.196 C 
HETATM   10  O           1     -21.521  -3.267  -6.996  0.00  0.00    -0.646 OA
HETATM   11  O           1     -23.254  -4.547  -6.783  0.00  0.00    -0.646 OA
ENDBRANCH   5   9
ENDBRANCH   2   5
BRANCH   4  12
HETATM   12  C           1     -23.967  -3.154 -11.642  0.00  0.00     0.270 C 
HETATM   13  C           1     -24.296  -3.940 -12.904  0.00  0.00     0.050 C 
BRANCH  12  14
HETATM   14  N           1     -22.855  -2.190 -11.930  0.00  0.00    -0.067 N 
HETATM   15  H           1     -22.254  -2.569 -12.695  0.00  0.00     0.275 HD
HETATM   16  H           1     -22.279  -2.056 -11.068  0.00  0.00     0.275 HD
HETATM   17  H           1     -23.257  -1.271 -12.224  0.00  0.00     0.275 HD
ENDBRANCH  12  14
ENDBRANCH   4  12
TORSDOF 6
ENDMDL
MODEL 9
REMARK VINA RESULT:      -4.0      7.642      9.169
REMARK  6 active torsions:
REMARK  status: ('A' for Active; 'I' for Inactive)
REMARK    1  A    between atoms: Se_2  and  C_3 
REMARK    2  A    between atoms: C_3  and  C_5 
REMARK    3  A    between atoms: C_5  and  C_6 
REMARK    4  A    between atoms: C_5  and  N_9 
REMARK       I    between atoms: N_9  and  C_14 
REMARK    5  A    between atoms: N_11  and  C_15 
REMARK    6  A    between atoms: C_14  and  C_15 
ROOT
HETATM    1  H           1     -22.540  -9.575  -2.290  0.00  0.00     0.163 HD
HETATM    2  N           1     -21.900  -9.275  -1.566  0.00  0.00    -0.345 N 
HETATM    3  O           1     -20.910  -9.719   0.386  0.00  0.00    -0.271 OA
HETATM    4  C           1     -21.673 -10.077  -0.479  0.00  0.00     0.248 C 
ENDROOT
BRANCH   2   5
HETATM    5  C           1     -21.224  -7.998  -1.678  0.00  0.00     0.185 C 
BRANCH   5   6
HETATM    6  C           1     -20.641  -7.853  -3.078  0.00  0.00     0.039 C 
BRANCH   6   7
HETATM    7 Se           1     -21.446  -9.180  -4.258  0.00  0.00     0.000 Se
HETATM    8  H           1     -21.814  -8.203  -5.295  0.00  0.00     0.000 HD
ENDBRANCH   6   7
ENDBRANCH   5   6
BRANCH   5   9
HETATM    9  C           1     -22.210  -6.884  -1.426  0.00  0.00     0.196 C 
HETATM   10  O           1     -22.925  -6.901  -0.400  0.00  0.00    -0.646 OA
HETATM   11  O           1     -22.312  -5.943  -2.243  0.00  0.00    -0.646 OA
ENDBRANCH   5   9
ENDBRANCH   2   5
BRANCH   4  12
HETATM   12  C           1     -22.376 -11.407  -0.362  0.00  0.00     0.270 C 
HETATM   13  C           1     -23.869 -11.177  -0.169  0.00  0.00     0.050 C 
BRANCH  12  14
HETATM   14  N           1     -21.830 -12.158   0.816  0.00  0.00    -0.067 N 
HETATM   15  H           1     -22.191 -11.730   1.699  0.00  0.00     0.275 HD
HETATM   16  H           1     -20.786 -12.110   0.806  0.00  0.00     0.275 HD
HETATM   17  H           1     -22.132 -13.157   0.764  0.00  0.00     0.275 HD
ENDBRANCH  12  14
ENDBRANCH   4  12
TORSDOF 6
ENDMDL
