MODEL 1
REMARK VINA RESULT:      -6.6      0.000      0.000
REMARK  8 active torsions:
REMARK  status: ('A' for Active; 'I' for Inactive)
REMARK    1  A    between atoms: C_10  and  C_11 
REMARK    2  A    between atoms: C_11  and  N_14 
REMARK       I    between atoms: N_13  and  C_21 
REMARK       I    between atoms: N_14  and  C_15 
REMARK    3  A    between atoms: C_15  and  C_16 
REMARK    4  A    between atoms: C_16  and  C_17 
REMARK    5  A    between atoms: C_16  and  N_26 
REMARK    6  A    between atoms: C_17  and  C_18 
REMARK    7  A    between atoms: C_18  and  C_19 
REMARK    8  A    between atoms: C_19  and  N_20 
REMARK       I    between atoms: N_20  and  C_21 
ROOT
HETATM    1  C           1     -22.907  -4.480  -9.518  0.00  0.00     0.274 C 
ENDROOT
BRANCH   1   2
HETATM    2  C           1     -21.686  -4.847  -8.710  0.00  0.00     0.249 C 
HETATM    3  N           1     -21.828  -5.337  -7.440  0.00  0.00    -0.345 N 
HETATM    4  H           1     -22.751  -5.454  -7.042  0.00  0.00     0.163 HD
HETATM    5  O           1     -20.584  -4.708  -9.184  0.00  0.00    -0.271 OA
BRANCH   3   6
HETATM    6  C           1     -20.655  -5.689  -6.663  0.00  0.00     0.181 C 
HETATM    7  C           1     -20.228  -4.495  -5.819  0.00  0.00     0.043 C 
BRANCH   6   8
HETATM    8  C           1     -20.981  -6.854  -5.760  0.00  0.00     0.196 C 
HETATM    9  O           1     -21.116  -7.999  -6.243  0.00  0.00    -0.646 OA
HETATM   10  O           1     -21.116  -6.674  -4.531  0.00  0.00    -0.646 OA
ENDBRANCH   6   8
ENDBRANCH   3   6
ENDBRANCH   1   2
BRANCH   1  11
HETATM   11  C           1     -22.484  -4.087 -10.927  0.00  0.00     0.044 C 
BRANCH  11  12
HETATM   12  C           1     -23.581  -3.248 -11.571  0.00  0.00     0.023 C 
BRANCH  12  13
HETATM   13  C           1     -23.207  -2.947 -13.016  0.00  0.00     0.138 C 
BRANCH  13  14
HETATM   14  N           1     -23.992  -1.801 -13.498  0.00  0.00    -0.227 N 
HETATM   15  C           1     -23.777  -1.325 -14.650  0.00  0.00     0.665 C 
HETATM   16  N           1     -22.860  -1.849 -15.409  0.00  0.00    -0.235 N 
HETATM   17  N           1     -24.453  -0.338 -15.064  0.00  0.00    -0.235 N 
HETATM   18  H           1     -22.302  -2.664 -15.067  0.00  0.00     0.174 HD
HETATM   19  H           1     -22.682  -1.456 -16.360  0.00  0.00     0.174 HD
HETATM   20  H           1     -25.193   0.085 -14.452  0.00  0.00     0.174 HD
HETATM   21  H           1     -24.274   0.056 -16.020  0.00  0.00     0.174 HD
HETATM   22  H           1     -24.733  -1.378 -12.885  0.00  0.00     0.177 HD
ENDBRANCH  13  14
ENDBRANCH  12  13
ENDBRANCH  11  12
ENDBRANCH   1  11
BRANCH   1  23
HETATM   23  N           1     -23.610  -3.327  -8.866  0.00  0.00    -0.067 N 
HETATM   24  H           1     -23.839  -3.574  -7.876  0.00  0.00     0.275 HD
HETATM   25  H           1     -24.491  -3.116  -9.385  0.00  0.00     0.275 HD
HETATM   26  H           1     -22.988  -2.488  -8.881  0.00  0.00     0.275 HD
ENDBRANCH   1  23
TORSDOF 8
ENDMDL
MODEL 2
REMARK VINA RESULT:      -6.6      1.580      2.088
REMARK  8 active torsions:
REMARK  status: ('A' for Active; 'I' for Inactive)
REMARK    1  A    between atoms: C_10  and  C_11 
REMARK    2  A    between atoms: C_11  and  N_14 
REMARK       I    between atoms: N_13  and  C_21 
REMARK       I    between atoms: N_14  and  C_15 
REMARK    3  A    between atoms: C_15  and  C_16 
REMARK    4  A    between atoms: C_16  and  C_17 
REMARK    5  A    between atoms: C_16  and  N_26 
REMARK    6  A    between atoms: C_17  and  C_18 
REMARK    7  A    between atoms: C_18  and  C_19 
REMARK    8  A    between atoms: C_19  and  N_20 
REMARK       I    between atoms: N_20  and  C_21 
ROOT
HETATM    1  C           1     -23.623  -4.604 -10.551  0.00  0.00     0.274 C 
ENDROOT
BRANCH   1   2
HETATM    2  C           1     -23.027  -4.234  -9.215  0.00  0.00     0.249 C 
HETATM    3  N           1     -22.011  -4.986  -8.688  0.00  0.00    -0.345 N 
HETATM    4  H           1     -21.660  -5.789  -9.194  0.00  0.00     0.163 HD
HETATM    5  O           1     -23.445  -3.276  -8.610  0.00  0.00    -0.271 OA
BRANCH   3   6
HETATM    6  C           1     -21.438  -4.631  -7.403  0.00  0.00     0.181 C 
HETATM    7  C           1     -21.963  -5.581  -6.334  0.00  0.00     0.043 C 
BRANCH   6   8
HETATM    8  C           1     -19.934  -4.739  -7.477  0.00  0.00     0.196 C 
HETATM    9  O           1     -19.271  -3.840  -8.038  0.00  0.00    -0.646 OA
HETATM   10  O           1     -19.352  -5.726  -6.979  0.00  0.00    -0.646 OA
ENDBRANCH   6   8
ENDBRANCH   3   6
ENDBRANCH   1   2
BRANCH   1  11
HETATM   11  C           1     -22.569  -4.443 -11.638  0.00  0.00     0.044 C 
BRANCH  11  12
HETATM   12  C           1     -22.527  -2.991 -12.096  0.00  0.00     0.023 C 
BRANCH  12  13
HETATM   13  C           1     -22.852  -2.917 -13.582  0.00  0.00     0.138 C 
BRANCH  13  14
HETATM   14  N           1     -23.815  -1.832 -13.821  0.00  0.00    -0.227 N 
HETATM   15  C           1     -23.724  -1.123 -14.865  0.00  0.00     0.665 C 
HETATM   16  N           1     -22.778  -1.354 -15.728  0.00  0.00    -0.235 N 
HETATM   17  N           1     -24.553  -0.189 -15.070  0.00  0.00    -0.235 N 
HETATM   18  H           1     -22.094  -2.126 -15.558  0.00  0.00     0.174 HD
HETATM   19  H           1     -22.703  -0.769 -16.589  0.00  0.00     0.174 HD
HETATM   20  H           1     -25.316  -0.002 -14.375  0.00  0.00     0.174 HD
HETATM   21  H           1     -24.477   0.399 -15.937  0.00  0.00     0.174 HD
HETATM   22  H           1     -24.578  -1.645 -13.124  0.00  0.00     0.177 HD
ENDBRANCH  13  14
ENDBRANCH  12  13
ENDBRANCH  11  12
ENDBRANCH   1  11
BRANCH   1  23
HETATM   23  N           1     -24.786  -3.704 -10.845  0.00  0.00    -0.067 N 
HETATM   24  H           1     -24.594  -2.751 -10.462  0.00  0.00     0.275 HD
HETATM   25  H           1     -25.648  -4.090 -10.400  0.00  0.00     0.275 HD
HETATM   26  H           1     -24.925  -3.643 -11.879  0.00  0.00     0.275 HD
ENDBRANCH   1  23
TORSDOF 8
ENDMDL
MODEL 3
REMARK VINA RESULT:      -6.5      1.640      2.377
REMARK  8 active torsions:
REMARK  status: ('A' for Active; 'I' for Inactive)
REMARK    1  A    between atoms: C_10  and  C_11 
REMARK    2  A    between atoms: C_11  and  N_14 
REMARK       I    between atoms: N_13  and  C_21 
REMARK       I    between atoms: N_14  and  C_15 
REMARK    3  A    between atoms: C_15  and  C_16 
REMARK    4  A    between atoms: C_16  and  C_17 
REMARK    5  A    between atoms: C_16  and  N_26 
REMARK    6  A    between atoms: C_17  and  C_18 
REMARK    7  A    between atoms: C_18  and  C_19 
REMARK    8  A    between atoms: C_19  and  N_20 
REMARK       I    between atoms: N_20  and  C_21 
ROOT
HETATM    1  C           1     -21.538  -4.770  -8.320  0.00  0.00     0.274 C 
ENDROOT
BRANCH   1   2
HETATM    2  C           1     -20.784  -5.305  -7.127  0.00  0.00     0.249 C 
HETATM    3  N           1     -21.447  -6.011  -6.160  0.00  0.00    -0.345 N 
HETATM    4  H           1     -22.442  -6.174  -6.244  0.00  0.00     0.163 HD
HETATM    5  O           1     -19.596  -5.112  -7.027  0.00  0.00    -0.271 OA
BRANCH   3   6
HETATM    6  C           1     -20.722  -6.526  -5.013  0.00  0.00     0.181 C 
HETATM    7  C           1     -21.571  -6.359  -3.760  0.00  0.00     0.043 C 
BRANCH   6   8
HETATM    8  C           1     -20.421  -7.990  -5.226  0.00  0.00     0.196 C 
HETATM    9  O           1     -19.348  -8.474  -4.805  0.00  0.00    -0.646 OA
HETATM   10  O           1     -21.244  -8.718  -5.822  0.00  0.00    -0.646 OA
ENDBRANCH   6   8
ENDBRANCH   3   6
ENDBRANCH   1   2
BRANCH   1  11
HETATM   11  C           1     -20.584  -3.990  -9.215  0.00  0.00     0.044 C 
BRANCH  11  12
HETATM   12  C           1     -20.820  -4.378 -10.669  0.00  0.00     0.023 C 
BRANCH  12  13
HETATM   13  C           1     -21.908  -3.490 -11.261  0.00  0.00     0.138 C 
BRANCH  13  14
HETATM   14  N           1     -21.813  -3.511 -12.728  0.00  0.00    -0.227 N 
HETATM   15  C           1     -22.700  -2.940 -13.427  0.00  0.00     0.665 C 
HETATM   16  N           1     -23.696  -2.336 -12.848  0.00  0.00    -0.235 N 
HETATM   17  N           1     -22.618  -2.958 -14.690  0.00  0.00    -0.235 N 
HETATM   18  H           1     -23.762  -2.321 -11.806  0.00  0.00     0.174 HD
HETATM   19  H           1     -24.428  -1.865 -13.427  0.00  0.00     0.174 HD
HETATM   20  H           1     -21.815  -3.445 -15.158  0.00  0.00     0.174 HD
HETATM   21  H           1     -23.355  -2.484 -15.270  0.00  0.00     0.174 HD
HETATM   22  H           1     -21.009  -3.998 -13.195  0.00  0.00     0.177 HD
ENDBRANCH  13  14
ENDBRANCH  12  13
ENDBRANCH  11  12
ENDBRANCH   1  11
BRANCH   1  23
HETATM   23  N           1     -22.636  -3.863  -7.850  0.00  0.00    -0.067 N 
HETATM   24  H           1     -22.233  -2.935  -7.589  0.00  0.00     0.275 HD
HETATM   25  H           1     -23.105  -4.284  -7.018  0.00  0.00     0.275 HD
HETATM   26  H           1     -23.334  -3.736  -8.617  0.00  0.00     0.275 HD
ENDBRANCH   1  23
TORSDOF 8
ENDMDL
MODEL 4
REMARK VINA RESULT:      -6.4      3.326      8.203
REMARK  8 active torsions:
REMARK  status: ('A' for Active; 'I' for Inactive)
REMARK    1  A    between atoms: C_10  and  C_11 
REMARK    2  A    between atoms: C_11  and  N_14 
REMARK       I    between atoms: N_13  and  C_21 
REMARK       I    between atoms: N_14  and  C_15 
REMARK    3  A    between atoms: C_15  and  C_16 
REMARK    4  A    between atoms: C_16  and  C_17 
REMARK    5  A    between atoms: C_16  and  N_26 
REMARK    6  A    between atoms: C_17  and  C_18 
REMARK    7  A    between atoms: C_18  and  C_19 
REMARK    8  A    between atoms: C_19  and  N_20 
REMARK       I    between atoms: N_20  and  C_21 
ROOT
HETATM    1  C           1     -21.978  -4.362  -7.384  0.00  0.00     0.274 C 
ENDROOT
BRANCH   1   2
HETATM    2  C           1     -21.815  -3.928  -8.820  0.00  0.00     0.249 C 
HETATM    3  N           1     -22.915  -3.795  -9.624  0.00  0.00    -0.345 N 
HETATM    4  H           1     -23.838  -3.987  -9.255  0.00  0.00     0.163 HD
HETATM    5  O           1     -20.714  -3.698  -9.261  0.00  0.00    -0.271 OA
BRANCH   3   6
HETATM    6  C           1     -22.759  -3.378 -11.004  0.00  0.00     0.181 C 
HETATM    7  C           1     -22.093  -4.494 -11.798  0.00  0.00     0.043 C 
BRANCH   6   8
HETATM    8  C           1     -24.115  -3.079 -11.595  0.00  0.00     0.196 C 
HETATM    9  O           1     -24.207  -2.672 -12.773  0.00  0.00    -0.646 OA
HETATM   10  O           1     -25.146  -3.238 -10.907  0.00  0.00    -0.646 OA
ENDBRANCH   6   8
ENDBRANCH   3   6
ENDBRANCH   1   2
BRANCH   1  11
HETATM   11  C           1     -21.314  -5.718  -7.185  0.00  0.00     0.044 C 
BRANCH  11  12
HETATM   12  C           1     -20.347  -5.642  -6.011  0.00  0.00     0.023 C 
BRANCH  12  13
HETATM   13  C           1     -20.763  -6.646  -4.944  0.00  0.00     0.138 C 
BRANCH  13  14
HETATM   14  N           1     -21.573  -5.967  -3.921  0.00  0.00    -0.227 N 
HETATM   15  C           1     -21.701  -6.480  -2.771  0.00  0.00     0.665 C 
HETATM   16  N           1     -21.118  -7.609  -2.494  0.00  0.00    -0.235 N 
HETATM   17  N           1     -22.398  -5.895  -1.891  0.00  0.00    -0.235 N 
HETATM   18  H           1     -20.542  -8.091  -3.221  0.00  0.00     0.174 HD
HETATM   19  H           1     -21.225  -8.032  -1.545  0.00  0.00     0.174 HD
HETATM   20  H           1     -22.870  -4.984  -2.114  0.00  0.00     0.174 HD
HETATM   21  H           1     -22.505  -6.322  -0.938  0.00  0.00     0.174 HD
HETATM   22  H           1     -22.044  -5.055  -4.145  0.00  0.00     0.177 HD
ENDBRANCH  13  14
ENDBRANCH  12  13
ENDBRANCH  11  12
ENDBRANCH   1  11
BRANCH   1  23
HETATM   23  N           1     -23.438  -4.468  -7.057  0.00  0.00    -0.067 N 
HETATM   24  H           1     -23.551  -4.749  -6.057  0.00  0.00     0.275 HD
HETATM   25  H           1     -23.883  -5.185  -7.673  0.00  0.00     0.275 HD
HETATM   26  H           1     -23.897  -3.542  -7.212  0.00  0.00     0.275 HD
ENDBRANCH   1  23
TORSDOF 8
ENDMDL
MODEL 5
REMARK VINA RESULT:      -6.3      2.259      3.217
REMARK  8 active torsions:
REMARK  status: ('A' for Active; 'I' for Inactive)
REMARK    1  A    between atoms: C_10  and  C_11 
REMARK    2  A    between atoms: C_11  and  N_14 
REMARK       I    between atoms: N_13  and  C_21 
REMARK       I    between atoms: N_14  and  C_15 
REMARK    3  A    between atoms: C_15  and  C_16 
REMARK    4  A    between atoms: C_16  and  C_17 
REMARK    5  A    between atoms: C_16  and  N_26 
REMARK    6  A    between atoms: C_17  and  C_18 
REMARK    7  A    between atoms: C_18  and  C_19 
REMARK    8  A    between atoms: C_19  and  N_20 
REMARK       I    between atoms: N_20  and  C_21 
ROOT
HETATM    1  C           1     -20.943  -4.097  -7.139  0.00  0.00     0.274 C 
ENDROOT
BRANCH   1   2
HETATM    2  C           1     -21.716  -5.123  -6.347  0.00  0.00     0.249 C 
HETATM    3  N           1     -21.049  -6.109  -5.670  0.00  0.00    -0.345 N 
HETATM    4  H           1     -20.038  -6.149  -5.701  0.00  0.00     0.163 HD
HETATM    5  O           1     -22.922  -5.075  -6.310  0.00  0.00    -0.271 OA
BRANCH   3   6
HETATM    6  C           1     -21.791  -7.096  -4.909  0.00  0.00     0.181 C 
HETATM    7  C           1     -21.247  -8.485  -5.213  0.00  0.00     0.043 C 
BRANCH   6   8
HETATM    8  C           1     -21.644  -6.808  -3.434  0.00  0.00     0.196 C 
HETATM    9  O           1     -20.777  -7.409  -2.765  0.00  0.00    -0.646 OA
HETATM   10  O           1     -22.388  -5.968  -2.884  0.00  0.00    -0.646 OA
ENDBRANCH   6   8
ENDBRANCH   3   6
ENDBRANCH   1   2
BRANCH   1  11
HETATM   11  C           1     -21.533  -3.986  -8.538  0.00  0.00     0.044 C 
BRANCH  11  12
HETATM   12  C           1     -20.425  -4.141  -9.571  0.00  0.00     0.023 C 
BRANCH  12  13
HETATM   13  C           1     -21.041  -4.330 -10.952  0.00  0.00     0.138 C 
BRANCH  13  14
HETATM   14  N           1     -22.234  -3.481 -11.078  0.00  0.00    -0.227 N 
HETATM   15  C           1     -22.628  -3.107 -12.221  0.00  0.00     0.665 C 
HETATM   16  N           1     -21.975  -3.473 -13.285  0.00  0.00    -0.235 N 
HETATM   17  N           1     -23.655  -2.376 -12.330  0.00  0.00    -0.235 N 
HETATM   18  H           1     -21.127  -4.077 -13.195  0.00  0.00     0.174 HD
HETATM   19  H           1     -22.300  -3.164 -14.229  0.00  0.00     0.174 HD
HETATM   20  H           1     -24.182  -2.080 -11.472  0.00  0.00     0.174 HD
HETATM   21  H           1     -23.981  -2.066 -13.278  0.00  0.00     0.174 HD
HETATM   22  H           1     -22.761  -3.185 -10.219  0.00  0.00     0.177 HD
ENDBRANCH  13  14
ENDBRANCH  12  13
ENDBRANCH  11  12
ENDBRANCH   1  11
BRANCH   1  23
HETATM   23  N           1     -19.506  -4.518  -7.235  0.00  0.00    -0.067 N 
HETATM   24  H           1     -18.890  -3.686  -7.090  0.00  0.00     0.275 HD
HETATM   25  H           1     -19.324  -4.926  -8.179  0.00  0.00     0.275 HD
HETATM   26  H           1     -19.304  -5.233  -6.501  0.00  0.00     0.275 HD
ENDBRANCH   1  23
TORSDOF 8
ENDMDL
MODEL 6
REMARK VINA RESULT:      -6.3      3.006      4.829
REMARK  8 active torsions:
REMARK  status: ('A' for Active; 'I' for Inactive)
REMARK    1  A    between atoms: C_10  and  C_11 
REMARK    2  A    between atoms: C_11  and  N_14 
REMARK       I    between atoms: N_13  and  C_21 
REMARK       I    between atoms: N_14  and  C_15 
REMARK    3  A    between atoms: C_15  and  C_16 
REMARK    4  A    between atoms: C_16  and  C_17 
REMARK    5  A    between atoms: C_16  and  N_26 
REMARK    6  A    between atoms: C_17  and  C_18 
REMARK    7  A    between atoms: C_18  and  C_19 
REMARK    8  A    between atoms: C_19  and  N_20 
REMARK       I    between atoms: N_20  and  C_21 
ROOT
HETATM    1  C           1     -20.880  -5.712  -5.996  0.00  0.00     0.274 C 
ENDROOT
BRANCH   1   2
HETATM    2  C           1     -21.294  -6.735  -4.966  0.00  0.00     0.249 C 
HETATM    3  N           1     -20.976  -6.545  -3.648  0.00  0.00    -0.345 N 
HETATM    4  H           1     -20.464  -5.720  -3.364  0.00  0.00     0.163 HD
HETATM    5  O           1     -21.906  -7.720  -5.304  0.00  0.00    -0.271 OA
BRANCH   3   6
HETATM    6  C           1     -21.374  -7.528  -2.658  0.00  0.00     0.181 C 
HETATM    7  C           1     -20.133  -8.193  -2.077  0.00  0.00     0.043 C 
BRANCH   6   8
HETATM    8  C           1     -22.143  -6.845  -1.553  0.00  0.00     0.196 C 
HETATM    9  O           1     -22.516  -7.499  -0.556  0.00  0.00    -0.646 OA
HETATM   10  O           1     -22.407  -5.626  -1.636  0.00  0.00    -0.646 OA
ENDBRANCH   6   8
ENDBRANCH   3   6
ENDBRANCH   1   2
BRANCH   1  11
HETATM   11  C           1     -22.119  -5.146  -6.676  0.00  0.00     0.044 C 
BRANCH  11  12
HETATM   12  C           1     -21.837  -4.942  -8.158  0.00  0.00     0.023 C 
BRANCH  12  13
HETATM   13  C           1     -22.427  -3.611  -8.609  0.00  0.00     0.138 C 
BRANCH  13  14
HETATM   14  N           1     -23.894  -3.702  -8.617  0.00  0.00    -0.227 N 
HETATM   15  C           1     -24.536  -3.494  -9.687  0.00  0.00     0.665 C 
HETATM   16  N           1     -23.897  -3.199 -10.781  0.00  0.00    -0.235 N 
HETATM   17  N           1     -25.799  -3.572  -9.694  0.00  0.00    -0.235 N 
HETATM   18  H           1     -22.854  -3.135 -10.775  0.00  0.00     0.174 HD
HETATM   19  H           1     -24.428  -3.026 -11.665  0.00  0.00     0.174 HD
HETATM   20  H           1     -26.315  -3.811  -8.811  0.00  0.00     0.174 HD
HETATM   21  H           1     -26.331  -3.399 -10.582  0.00  0.00     0.174 HD
HETATM   22  H           1     -24.410  -3.941  -7.734  0.00  0.00     0.177 HD
ENDBRANCH  13  14
ENDBRANCH  12  13
ENDBRANCH  11  12
ENDBRANCH   1  11
BRANCH   1  23
HETATM   23  N           1     -20.000  -6.363  -7.021  0.00  0.00    -0.067 N 
HETATM   24  H           1     -19.201  -5.729  -7.246  0.00  0.00     0.275 HD
HETATM   25  H           1     -20.553  -6.548  -7.888  0.00  0.00     0.275 HD
HETATM   26  H           1     -19.634  -7.266  -6.643  0.00  0.00     0.275 HD
ENDBRANCH   1  23
TORSDOF 8
ENDMDL
MODEL 7
REMARK VINA RESULT:      -6.2      3.227      8.210
REMARK  8 active torsions:
REMARK  status: ('A' for Active; 'I' for Inactive)
REMARK    1  A    between atoms: C_10  and  C_11 
REMARK    2  A    between atoms: C_11  and  N_14 
REMARK       I    between atoms: N_13  and  C_21 
REMARK       I    between atoms: N_14  and  C_15 
REMARK    3  A    between atoms: C_15  and  C_16 
REMARK    4  A    between atoms: C_16  and  C_17 
REMARK    5  A    between atoms: C_16  and  N_26 
REMARK    6  A    between atoms: C_17  and  C_18 
REMARK    7  A    between atoms: C_18  and  C_19 
REMARK    8  A    between atoms: C_19  and  N_20 
REMARK       I    between atoms: N_20  and  C_21 
ROOT
HETATM    1  C           1     -21.092  -4.367 -10.769  0.00  0.00     0.274 C 
ENDROOT
BRANCH   1   2
HETATM    2  C           1     -22.313  -4.305 -11.654  0.00  0.00     0.249 C 
HETATM    3  N           1     -22.353  -3.426 -12.703  0.00  0.00    -0.345 N 
HETATM    4  H           1     -21.565  -2.818 -12.885  0.00  0.00     0.163 HD
HETATM    5  O           1     -23.254  -5.030 -11.437  0.00  0.00    -0.271 OA
BRANCH   3   6
HETATM    6  C           1     -23.526  -3.366 -13.553  0.00  0.00     0.181 C 
HETATM    7  C           1     -24.707  -2.832 -12.752  0.00  0.00     0.043 C 
BRANCH   6   8
HETATM    8  C           1     -23.254  -2.448 -14.721  0.00  0.00     0.196 C 
HETATM    9  O           1     -23.933  -1.410 -14.871  0.00  0.00    -0.646 OA
HETATM   10  O           1     -22.350  -2.727 -15.537  0.00  0.00    -0.646 OA
ENDBRANCH   6   8
ENDBRANCH   3   6
ENDBRANCH   1   2
BRANCH   1  11
HETATM   11  C           1     -21.478  -3.995  -9.344  0.00  0.00     0.044 C 
BRANCH  11  12
HETATM   12  C           1     -20.824  -4.965  -8.370  0.00  0.00     0.023 C 
BRANCH  12  13
HETATM   13  C           1     -21.533  -4.890  -7.024  0.00  0.00     0.138 C 
BRANCH  13  14
HETATM   14  N           1     -20.829  -5.738  -6.050  0.00  0.00    -0.227 N 
HETATM   15  C           1     -21.477  -6.324  -5.135  0.00  0.00     0.665 C 
HETATM   16  N           1     -22.767  -6.175  -5.054  0.00  0.00    -0.235 N 
HETATM   17  N           1     -20.870  -7.053  -4.297  0.00  0.00    -0.235 N 
HETATM   18  H           1     -23.267  -5.573  -5.747  0.00  0.00     0.174 HD
HETATM   19  H           1     -23.301  -6.659  -4.298  0.00  0.00     0.174 HD
HETATM   20  H           1     -19.830  -7.173  -4.361  0.00  0.00     0.174 HD
HETATM   21  H           1     -21.409  -7.538  -3.537  0.00  0.00     0.174 HD
HETATM   22  H           1     -19.787  -5.858  -6.115  0.00  0.00     0.177 HD
ENDBRANCH  13  14
ENDBRANCH  12  13
ENDBRANCH  11  12
ENDBRANCH   1  11
BRANCH   1  23
HETATM   23  N           1     -20.059  -3.404 -11.274  0.00  0.00    -0.067 N 
HETATM   24  H           1     -20.140  -2.502 -10.753  0.00  0.00     0.275 HD
HETATM   25  H           1     -20.210  -3.232 -12.293  0.00  0.00     0.275 HD
HETATM   26  H           1     -19.106  -3.807 -11.126  0.00  0.00     0.275 HD
ENDBRANCH   1  23
TORSDOF 8
ENDMDL
MODEL 8
REMARK VINA RESULT:      -6.1      2.616      3.643
REMARK  8 active torsions:
REMARK  status: ('A' for Active; 'I' for Inactive)
REMARK    1  A    between atoms: C_10  and  C_11 
REMARK    2  A    between atoms: C_11  and  N_14 
REMARK       I    between atoms: N_13  and  C_21 
REMARK       I    between atoms: N_14  and  C_15 
REMARK    3  A    between atoms: C_15  and  C_16 
REMARK    4  A    between atoms: C_16  and  C_17 
REMARK    5  A    between atoms: C_16  and  N_26 
REMARK    6  A    between atoms: C_17  and  C_18 
REMARK    7  A    between atoms: C_18  and  C_19 
REMARK    8  A    between atoms: C_19  and  N_20 
REMARK       I    between atoms: N_20  and  C_21 
ROOT
HETATM    1  C           1     -22.001  -5.014  -6.934  0.00  0.00     0.274 C 
ENDROOT
BRANCH   1   2
HETATM    2  C           1     -21.326  -5.381  -5.635  0.00  0.00     0.249 C 
HETATM    3  N           1     -22.001  -6.115  -4.697  0.00  0.00    -0.345 N 
HETATM    4  H           1     -22.952  -6.412  -4.875  0.00  0.00     0.163 HD
HETATM    5  O           1     -20.191  -5.027  -5.423  0.00  0.00    -0.271 OA
BRANCH   3   6
HETATM    6  C           1     -21.353  -6.467  -3.448  0.00  0.00     0.181 C 
HETATM    7  C           1     -22.260  -6.095  -2.283  0.00  0.00     0.043 C 
BRANCH   6   8
HETATM    8  C           1     -21.084  -7.953  -3.424  0.00  0.00     0.196 C 
HETATM    9  O           1     -20.276  -8.427  -2.597  0.00  0.00    -0.646 OA
HETATM   10  O           1     -21.670  -8.708  -4.229  0.00  0.00    -0.646 OA
ENDBRANCH   6   8
ENDBRANCH   3   6
ENDBRANCH   1   2
BRANCH   1  11
HETATM   11  C           1     -21.225  -3.891  -7.610  0.00  0.00     0.044 C 
BRANCH  11  12
HETATM   12  C           1     -20.557  -4.422  -8.871  0.00  0.00     0.023 C 
BRANCH  12  13
HETATM   13  C           1     -21.106  -3.685 -10.086  0.00  0.00     0.138 C 
BRANCH  13  14
HETATM   14  N           1     -22.267  -4.413 -10.619  0.00  0.00    -0.227 N 
HETATM   15  C           1     -22.527  -4.370 -11.857  0.00  0.00     0.665 C 
HETATM   16  N           1     -21.769  -3.680 -12.657  0.00  0.00    -0.235 N 
HETATM   17  N           1     -23.526  -4.997 -12.315  0.00  0.00    -0.235 N 
HETATM   18  H           1     -20.944  -3.163 -12.278  0.00  0.00     0.174 HD
HETATM   19  H           1     -21.985  -3.644 -13.679  0.00  0.00     0.174 HD
HETATM   20  H           1     -24.139  -5.554 -11.670  0.00  0.00     0.174 HD
HETATM   21  H           1     -23.743  -4.960 -13.342  0.00  0.00     0.174 HD
HETATM   22  H           1     -22.879  -4.970  -9.973  0.00  0.00     0.177 HD
ENDBRANCH  13  14
ENDBRANCH  12  13
ENDBRANCH  11  12
ENDBRANCH   1  11
BRANCH   1  23
HETATM   23  N           1     -23.403  -4.558  -6.658  0.00  0.00    -0.067 N 
HETATM   24  H           1     -23.511  -4.369  -5.636  0.00  0.00     0.275 HD
HETATM   25  H           1     -24.076  -5.302  -6.948  0.00  0.00     0.275 HD
HETATM   26  H           1     -23.596  -3.684  -7.196  0.00  0.00     0.275 HD
ENDBRANCH   1  23
TORSDOF 8
ENDMDL
MODEL 9
REMARK VINA RESULT:      -5.8      3.343      7.987
REMARK  8 active torsions:
REMARK  status: ('A' for Active; 'I' for Inactive)
REMARK    1  A    between atoms: C_10  and  C_11 
REMARK    2  A    between atoms: C_11  and  N_14 
REMARK       I    between atoms: N_13  and  C_21 
REMARK       I    between atoms: N_14  and  C_15 
REMARK    3  A    between atoms: C_15  and  C_16 
REMARK    4  A    between atoms: C_16  and  C_17 
REMARK    5  A    between atoms: C_16  and  N_26 
REMARK    6  A    between atoms: C_17  and  C_18 
REMARK    7  A    between atoms: C_18  and  C_19 
REMARK    8  A    between atoms: C_19  and  N_20 
REMARK       I    between atoms: N_20  and  C_21 
ROOT
HETATM    1  C           1     -22.035  -4.412  -7.036  0.00  0.00     0.274 C 
ENDROOT
BRANCH   1   2
HETATM    2  C           1     -21.708  -4.601  -8.497  0.00  0.00     0.249 C 
HETATM    3  N           1     -22.618  -4.239  -9.454  0.00  0.00    -0.345 N 
HETATM    4  H           1     -23.510  -3.845  -9.181  0.00  0.00     0.163 HD
HETATM    5  O           1     -20.644  -5.071  -8.823  0.00  0.00    -0.271 OA
BRANCH   3   6
HETATM    6  C           1     -22.305  -4.422 -10.858  0.00  0.00     0.181 C 
HETATM    7  C           1     -23.542  -4.923 -11.593  0.00  0.00     0.043 C 
BRANCH   6   8
HETATM    8  C           1     -21.867  -3.104 -11.450  0.00  0.00     0.196 C 
HETATM    9  O           1     -22.700  -2.369 -12.023  0.00  0.00    -0.646 OA
HETATM   10  O           1     -20.672  -2.748 -11.368  0.00  0.00    -0.646 OA
ENDBRANCH   6   8
ENDBRANCH   3   6
ENDBRANCH   1   2
BRANCH   1  11
HETATM   11  C           1     -21.326  -5.481  -6.215  0.00  0.00     0.044 C 
BRANCH  11  12
HETATM   12  C           1     -22.339  -6.201  -5.335  0.00  0.00     0.023 C 
BRANCH  12  13
HETATM   13  C           1     -21.684  -7.421  -4.700  0.00  0.00     0.138 C 
BRANCH  13  14
HETATM   14  N           1     -20.647  -7.946  -5.601  0.00  0.00    -0.227 N 
HETATM   15  C           1     -19.660  -8.582  -5.128  0.00  0.00     0.665 C 
HETATM   16  N           1     -19.563  -8.771  -3.845  0.00  0.00    -0.235 N 
HETATM   17  N           1     -18.768  -9.034  -5.903  0.00  0.00    -0.235 N 
HETATM   18  H           1     -20.301  -8.398  -3.205  0.00  0.00     0.174 HD
HETATM   19  H           1     -18.748  -9.295  -3.455  0.00  0.00     0.174 HD
HETATM   20  H           1     -18.846  -8.882  -6.939  0.00  0.00     0.174 HD
HETATM   21  H           1     -17.949  -9.561  -5.510  0.00  0.00     0.174 HD
HETATM   22  H           1     -20.725  -7.794  -6.637  0.00  0.00     0.177 HD
ENDBRANCH  13  14
ENDBRANCH  12  13
ENDBRANCH  11  12
ENDBRANCH   1  11
BRANCH   1  23
HETATM   23  N           1     -23.516  -4.528  -6.836  0.00  0.00    -0.067 N 
HETATM   24  H           1     -23.993  -3.716  -7.288  0.00  0.00     0.275 HD
HETATM   25  H           1     -23.731  -4.533  -5.813  0.00  0.00     0.275 HD
HETATM   26  H           1     -23.857  -5.417  -7.267  0.00  0.00     0.275 HD
ENDBRANCH   1  23
TORSDOF 8
ENDMDL
