MODEL 1
REMARK VINA RESULT:      -5.4      0.000      0.000
REMARK  5 active torsions:
REMARK  status: ('A' for Active; 'I' for Inactive)
REMARK       I    between atoms: N_1  and  C_2 
REMARK    1  A    between atoms: C_2  and  C_3 
REMARK    2  A    between atoms: C_3  and  C_4 
REMARK    3  A    between atoms: C_3  and  N_6 
REMARK    4  A    between atoms: C_4  and  Se_5 
REMARK    5  A    between atoms: C_16  and  C_18 
ROOT
HETATM    1  N           1     -23.072  -3.471 -11.891  0.00  0.00    -0.336 N 
HETATM    2  C           1     -23.631  -3.345 -13.134  0.00  0.00     0.251 C 
HETATM    3  O           1     -24.534  -4.075 -13.467  0.00  0.00    -0.271 OA
HETATM    4  C           1     -21.982  -2.683 -11.323  0.00  0.00     0.127 C 
HETATM    5  C           1     -21.142  -3.706 -10.579  0.00  0.00     0.022 C 
HETATM    6  C           1     -22.095  -4.855 -10.271  0.00  0.00     0.038 C 
HETATM    7  C           1     -23.433  -4.424 -10.845  0.00  0.00     0.188 C 
ENDROOT
BRANCH   2   8
HETATM    8  C           1     -23.121  -2.293 -14.088  0.00  0.00     0.275 C 
BRANCH   8   9
HETATM    9  C           1     -24.291  -1.473 -14.615  0.00  0.00     0.045 C 
BRANCH   9  10
HETATM   10 Se           1     -23.623  -0.064 -15.784  0.00  0.00     0.000 Se
HETATM   11  H           1     -22.239  -0.150 -15.290  0.00  0.00     0.000 HD
ENDBRANCH   9  10
ENDBRANCH   8   9
BRANCH   8  12
HETATM   12  N           1     -22.420  -2.957 -15.236  0.00  0.00    -0.067 N 
HETATM   13  H           1     -22.262  -2.261 -16.000  0.00  0.00     0.275 HD
HETATM   14  H           1     -21.499  -3.332 -14.912  0.00  0.00     0.275 HD
HETATM   15  H           1     -23.008  -3.742 -15.596  0.00  0.00     0.275 HD
ENDBRANCH   8  12
ENDBRANCH   2   8
BRANCH   7  16
HETATM   16  C           1     -24.285  -3.764  -9.789  0.00  0.00     0.196 C 
HETATM   17  O           1     -25.330  -3.161 -10.116  0.00  0.00    -0.646 OA
HETATM   18  O           1     -23.947  -3.821  -8.588  0.00  0.00    -0.646 OA
ENDBRANCH   7  16
TORSDOF 5
ENDMDL
MODEL 2
REMARK VINA RESULT:      -5.3      2.823      3.735
REMARK  5 active torsions:
REMARK  status: ('A' for Active; 'I' for Inactive)
REMARK       I    between atoms: N_1  and  C_2 
REMARK    1  A    between atoms: C_2  and  C_3 
REMARK    2  A    between atoms: C_3  and  C_4 
REMARK    3  A    between atoms: C_3  and  N_6 
REMARK    4  A    between atoms: C_4  and  Se_5 
REMARK    5  A    between atoms: C_16  and  C_18 
ROOT
HETATM    1  N           1     -21.454  -4.487  -8.797  0.00  0.00    -0.336 N 
HETATM    2  C           1     -22.237  -4.395  -9.916  0.00  0.00     0.251 C 
HETATM    3  O           1     -23.047  -5.257 -10.158  0.00  0.00    -0.271 OA
HETATM    4  C           1     -20.431  -3.546  -8.348  0.00  0.00     0.127 C 
HETATM    5  C           1     -19.311  -4.439  -7.844  0.00  0.00     0.022 C 
HETATM    6  C           1     -19.985  -5.758  -7.485  0.00  0.00     0.038 C 
HETATM    7  C           1     -21.457  -5.547  -7.793  0.00  0.00     0.188 C 
ENDROOT
BRANCH   2   8
HETATM    8  C           1     -22.090  -3.215 -10.845  0.00  0.00     0.275 C 
BRANCH   8   9
HETATM    9  C           1     -23.424  -2.933 -11.524  0.00  0.00     0.045 C 
BRANCH   9  10
HETATM   10 Se           1     -23.160  -2.821 -13.452  0.00  0.00     0.000 Se
HETATM   11  H           1     -21.702  -3.015 -13.380  0.00  0.00     0.000 HD
ENDBRANCH   9  10
ENDBRANCH   8   9
BRANCH   8  12
HETATM   12  N           1     -21.055  -3.524 -11.885  0.00  0.00    -0.067 N 
HETATM   13  H           1     -21.502  -3.538 -12.830  0.00  0.00     0.275 HD
HETATM   14  H           1     -20.310  -2.791 -11.863  0.00  0.00     0.275 HD
HETATM   15  H           1     -20.631  -4.459 -11.687  0.00  0.00     0.275 HD
ENDBRANCH   8  12
ENDBRANCH   2   8
BRANCH   7  16
HETATM   16  C           1     -22.209  -5.115  -6.558  0.00  0.00     0.196 C 
HETATM   17  O           1     -23.338  -4.590  -6.665  0.00  0.00    -0.646 OA
HETATM   18  O           1     -21.703  -5.282  -5.428  0.00  0.00    -0.646 OA
ENDBRANCH   7  16
TORSDOF 5
ENDMDL
MODEL 3
REMARK VINA RESULT:      -5.2      4.315      6.101
REMARK  5 active torsions:
REMARK  status: ('A' for Active; 'I' for Inactive)
REMARK       I    between atoms: N_1  and  C_2 
REMARK    1  A    between atoms: C_2  and  C_3 
REMARK    2  A    between atoms: C_3  and  C_4 
REMARK    3  A    between atoms: C_3  and  N_6 
REMARK    4  A    between atoms: C_4  and  Se_5 
REMARK    5  A    between atoms: C_16  and  C_18 
ROOT
HETATM    1  N           1     -21.595  -4.342  -9.526  0.00  0.00    -0.336 N 
HETATM    2  C           1     -21.658  -4.576  -8.178  0.00  0.00     0.251 C 
HETATM    3  O           1     -22.579  -4.139  -7.531  0.00  0.00    -0.271 OA
HETATM    4  C           1     -20.564  -4.789 -10.459  0.00  0.00     0.127 C 
HETATM    5  C           1     -20.357  -3.594 -11.371  0.00  0.00     0.022 C 
HETATM    6  C           1     -21.656  -2.801 -11.291  0.00  0.00     0.038 C 
HETATM    7  C           1     -22.543  -3.590 -10.343  0.00  0.00     0.188 C 
ENDROOT
BRANCH   2   8
HETATM    8  C           1     -20.577  -5.383  -7.501  0.00  0.00     0.275 C 
BRANCH   8   9
HETATM    9  C           1     -21.214  -6.441  -6.610  0.00  0.00     0.045 C 
BRANCH   9  10
HETATM   10 Se           1     -21.041  -5.908  -4.744  0.00  0.00     0.000 Se
HETATM   11  H           1     -21.872  -4.702  -4.891  0.00  0.00     0.000 HD
ENDBRANCH   9  10
ENDBRANCH   8   9
BRANCH   8  12
HETATM   12  N           1     -19.724  -4.474  -6.667  0.00  0.00    -0.067 N 
HETATM   13  H           1     -19.824  -3.490  -7.006  0.00  0.00     0.275 HD
HETATM   14  H           1     -20.030  -4.530  -5.668  0.00  0.00     0.275 HD
HETATM   15  H           1     -18.724  -4.768  -6.742  0.00  0.00     0.275 HD
ENDBRANCH   8  12
ENDBRANCH   2   8
BRANCH   7  16
HETATM   16  C           1     -23.452  -4.521 -11.106  0.00  0.00     0.196 C 
HETATM   17  O           1     -24.008  -5.473 -10.517  0.00  0.00    -0.646 OA
HETATM   18  O           1     -23.649  -4.341 -12.327  0.00  0.00    -0.646 OA
ENDBRANCH   7  16
TORSDOF 5
ENDMDL
MODEL 4
REMARK VINA RESULT:      -5.2      4.458      6.250
REMARK  5 active torsions:
REMARK  status: ('A' for Active; 'I' for Inactive)
REMARK       I    between atoms: N_1  and  C_2 
REMARK    1  A    between atoms: C_2  and  C_3 
REMARK    2  A    between atoms: C_3  and  C_4 
REMARK    3  A    between atoms: C_3  and  N_6 
REMARK    4  A    between atoms: C_4  and  Se_5 
REMARK    5  A    between atoms: C_16  and  C_18 
ROOT
HETATM    1  N           1     -22.216  -4.214  -9.424  0.00  0.00    -0.336 N 
HETATM    2  C           1     -21.335  -4.565  -8.436  0.00  0.00     0.251 C 
HETATM    3  O           1     -20.345  -5.200  -8.708  0.00  0.00    -0.271 OA
HETATM    4  C           1     -23.455  -3.454  -9.281  0.00  0.00     0.127 C 
HETATM    5  C           1     -24.425  -4.162 -10.211  0.00  0.00     0.022 C 
HETATM    6  C           1     -23.547  -4.867 -11.239  0.00  0.00     0.038 C 
HETATM    7  C           1     -22.121  -4.518 -10.849  0.00  0.00     0.188 C 
ENDROOT
BRANCH   2   8
HETATM    8  C           1     -21.602  -4.158  -7.008  0.00  0.00     0.275 C 
BRANCH   8   9
HETATM    9  C           1     -20.417  -4.552  -6.137  0.00  0.00     0.045 C 
BRANCH   9  10
HETATM   10 Se           1     -20.929  -6.027  -4.971  0.00  0.00     0.000 Se
HETATM   11  H           1     -20.260  -7.055  -5.785  0.00  0.00     0.000 HD
ENDBRANCH   9  10
ENDBRANCH   8   9
BRANCH   8  12
HETATM   12  N           1     -22.837  -4.851  -6.513  0.00  0.00    -0.067 N 
HETATM   13  H           1     -23.676  -4.263  -6.723  0.00  0.00     0.275 HD
HETATM   14  H           1     -22.932  -5.776  -6.991  0.00  0.00     0.275 HD
HETATM   15  H           1     -22.765  -4.997  -5.481  0.00  0.00     0.275 HD
ENDBRANCH   8  12
ENDBRANCH   2   8
BRANCH   7  16
HETATM   16  C           1     -21.630  -3.319 -11.622  0.00  0.00     0.196 C 
HETATM   17  O           1     -20.560  -2.761 -11.298  0.00  0.00    -0.646 OA
HETATM   18  O           1     -22.294  -2.883 -12.588  0.00  0.00    -0.646 OA
ENDBRANCH   7  16
TORSDOF 5
ENDMDL
MODEL 5
REMARK VINA RESULT:      -5.0      2.328      3.102
REMARK  5 active torsions:
REMARK  status: ('A' for Active; 'I' for Inactive)
REMARK       I    between atoms: N_1  and  C_2 
REMARK    1  A    between atoms: C_2  and  C_3 
REMARK    2  A    between atoms: C_3  and  C_4 
REMARK    3  A    between atoms: C_3  and  N_6 
REMARK    4  A    between atoms: C_4  and  Se_5 
REMARK    5  A    between atoms: C_16  and  C_18 
ROOT
HETATM    1  N           1     -22.438  -3.775 -10.659  0.00  0.00    -0.336 N 
HETATM    2  C           1     -22.426  -3.057 -11.825  0.00  0.00     0.251 C 
HETATM    3  O           1     -21.624  -2.168 -11.978  0.00  0.00    -0.271 OA
HETATM    4  C           1     -23.329  -4.876 -10.302  0.00  0.00     0.127 C 
HETATM    5  C           1     -23.655  -4.620  -8.841  0.00  0.00     0.022 C 
HETATM    6  C           1     -22.497  -3.780  -8.316  0.00  0.00     0.038 C 
HETATM    7  C           1     -21.564  -3.607  -9.502  0.00  0.00     0.188 C 
ENDROOT
BRANCH   2   8
HETATM    8  C           1     -23.415  -3.378 -12.919  0.00  0.00     0.275 C 
BRANCH   8   9
HETATM    9  C           1     -22.852  -2.931 -14.261  0.00  0.00     0.045 C 
BRANCH   9  10
HETATM   10 Se           1     -23.754  -1.302 -14.834  0.00  0.00     0.000 Se
HETATM   11  H           1     -23.618  -1.593 -16.271  0.00  0.00     0.000 HD
ENDBRANCH   9  10
ENDBRANCH   8   9
BRANCH   8  12
HETATM   12  N           1     -24.704  -2.659 -12.654  0.00  0.00    -0.067 N 
HETATM   13  H           1     -25.125  -3.011 -11.764  0.00  0.00     0.275 HD
HETATM   14  H           1     -24.520  -1.633 -12.569  0.00  0.00     0.275 HD
HETATM   15  H           1     -25.367  -2.829 -13.444  0.00  0.00     0.275 HD
ENDBRANCH   8  12
ENDBRANCH   2   8
BRANCH   7  16
HETATM   16  C           1     -20.479  -4.656  -9.491  0.00  0.00     0.196 C 
HETATM   17  O           1     -19.836  -4.900 -10.535  0.00  0.00    -0.646 OA
HETATM   18  O           1     -20.223  -5.279  -8.439  0.00  0.00    -0.646 OA
ENDBRANCH   7  16
TORSDOF 5
ENDMDL
MODEL 6
REMARK VINA RESULT:      -4.4     12.543     14.382
REMARK  5 active torsions:
REMARK  status: ('A' for Active; 'I' for Inactive)
REMARK       I    between atoms: N_1  and  C_2 
REMARK    1  A    between atoms: C_2  and  C_3 
REMARK    2  A    between atoms: C_3  and  C_4 
REMARK    3  A    between atoms: C_3  and  N_6 
REMARK    4  A    between atoms: C_4  and  Se_5 
REMARK    5  A    between atoms: C_16  and  C_18 
ROOT
HETATM    1  N           1     -21.417  -9.727  -0.793  0.00  0.00    -0.336 N 
HETATM    2  C           1     -21.231 -10.701   0.151  0.00  0.00     0.251 C 
HETATM    3  O           1     -20.784 -10.414   1.235  0.00  0.00    -0.271 OA
HETATM    4  C           1     -21.943  -9.888  -2.146  0.00  0.00     0.127 C 
HETATM    5  C           1     -21.070  -8.973  -2.987  0.00  0.00     0.022 C 
HETATM    6  C           1     -20.531  -7.932  -2.013  0.00  0.00     0.038 C 
HETATM    7  C           1     -21.132  -8.300  -0.667  0.00  0.00     0.188 C 
ENDROOT
BRANCH   2   8
HETATM    8  C           1     -21.587 -12.133  -0.163  0.00  0.00     0.275 C 
BRANCH   8   9
HETATM    9  C           1     -22.934 -12.472   0.463  0.00  0.00     0.045 C 
BRANCH   9  10
HETATM   10 Se           1     -22.697 -13.880   1.790  0.00  0.00     0.000 Se
HETATM   11  H           1     -22.796 -12.969   2.943  0.00  0.00     0.000 HD
ENDBRANCH   9  10
ENDBRANCH   8   9
BRANCH   8  12
HETATM   12  N           1     -20.534 -13.044   0.395  0.00  0.00    -0.067 N 
HETATM   13  H           1     -19.726 -13.090  -0.266  0.00  0.00     0.275 HD
HETATM   14  H           1     -20.209 -12.675   1.317  0.00  0.00     0.275 HD
HETATM   15  H           1     -20.934 -14.001   0.524  0.00  0.00     0.275 HD
ENDBRANCH   8  12
ENDBRANCH   2   8
BRANCH   7  16
HETATM   16  C           1     -22.397  -7.520  -0.411  0.00  0.00     0.196 C 
HETATM   17  O           1     -22.644  -6.492  -1.079  0.00  0.00    -0.646 OA
HETATM   18  O           1     -23.199  -7.902   0.469  0.00  0.00    -0.646 OA
ENDBRANCH   7  16
TORSDOF 5
ENDMDL
MODEL 7
REMARK VINA RESULT:      -4.3     11.462     13.145
REMARK  5 active torsions:
REMARK  status: ('A' for Active; 'I' for Inactive)
REMARK       I    between atoms: N_1  and  C_2 
REMARK    1  A    between atoms: C_2  and  C_3 
REMARK    2  A    between atoms: C_3  and  C_4 
REMARK    3  A    between atoms: C_3  and  N_6 
REMARK    4  A    between atoms: C_4  and  Se_5 
REMARK    5  A    between atoms: C_16  and  C_18 
ROOT
HETATM    1  N           1     -22.419  -9.474  -0.873  0.00  0.00    -0.336 N 
HETATM    2  C           1     -22.166  -8.129  -0.870  0.00  0.00     0.251 C 
HETATM    3  O           1     -22.118  -7.525   0.174  0.00  0.00    -0.271 OA
HETATM    4  C           1     -22.513 -10.359  -2.031  0.00  0.00     0.127 C 
HETATM    5  C           1     -23.680 -11.271  -1.699  0.00  0.00     0.022 C 
HETATM    6  C           1     -23.779 -11.253  -0.178  0.00  0.00     0.038 C 
HETATM    7  C           1     -22.657 -10.337   0.281  0.00  0.00     0.188 C 
ENDROOT
BRANCH   2   8
HETATM    8  C           1     -21.944  -7.400  -2.173  0.00  0.00     0.275 C 
BRANCH   8   9
HETATM    9  C           1     -20.482  -7.521  -2.581  0.00  0.00     0.045 C 
BRANCH   9  10
HETATM   10 Se           1     -20.373  -8.108  -4.437  0.00  0.00     0.000 Se
HETATM   11  H           1     -19.144  -8.894  -4.237  0.00  0.00     0.000 HD
ENDBRANCH   9  10
ENDBRANCH   8   9
BRANCH   8  12
HETATM   12  N           1     -22.297  -5.952  -2.002  0.00  0.00    -0.067 N 
HETATM   13  H           1     -22.628  -5.563  -2.913  0.00  0.00     0.275 HD
HETATM   14  H           1     -23.055  -5.861  -1.288  0.00  0.00     0.275 HD
HETATM   15  H           1     -21.453  -5.424  -1.683  0.00  0.00     0.275 HD
ENDBRANCH   8  12
ENDBRANCH   2   8
BRANCH   7  16
HETATM   16  C           1     -21.419 -11.131   0.621  0.00  0.00     0.196 C 
HETATM   17  O           1     -20.315 -10.554   0.724  0.00  0.00    -0.646 OA
HETATM   18  O           1     -21.498 -12.365   0.800  0.00  0.00    -0.646 OA
ENDBRANCH   7  16
TORSDOF 5
ENDMDL
MODEL 8
REMARK VINA RESULT:      -4.3      3.452      5.248
REMARK  5 active torsions:
REMARK  status: ('A' for Active; 'I' for Inactive)
REMARK       I    between atoms: N_1  and  C_2 
REMARK    1  A    between atoms: C_2  and  C_3 
REMARK    2  A    between atoms: C_3  and  C_4 
REMARK    3  A    between atoms: C_3  and  N_6 
REMARK    4  A    between atoms: C_4  and  Se_5 
REMARK    5  A    between atoms: C_16  and  C_18 
ROOT
HETATM    1  N           1     -22.825  -3.567 -10.278  0.00  0.00    -0.336 N 
HETATM    2  C           1     -23.416  -3.656  -9.047  0.00  0.00     0.251 C 
HETATM    3  O           1     -24.567  -3.320  -8.903  0.00  0.00    -0.271 OA
HETATM    4  C           1     -21.455  -3.926 -10.635  0.00  0.00     0.127 C 
HETATM    5  C           1     -21.026  -2.822 -11.586  0.00  0.00     0.022 C 
HETATM    6  C           1     -22.323  -2.268 -12.164  0.00  0.00     0.038 C 
HETATM    7  C           1     -23.426  -3.091 -11.521  0.00  0.00     0.188 C 
ENDROOT
BRANCH   2   8
HETATM    8  C           1     -22.630  -4.177  -7.869  0.00  0.00     0.275 C 
BRANCH   8   9
HETATM    9  C           1     -21.855  -5.420  -8.284  0.00  0.00     0.045 C 
BRANCH   9  10
HETATM   10 Se           1     -20.162  -5.481  -7.321  0.00  0.00     0.000 Se
HETATM   11  H           1     -20.380  -4.204  -6.622  0.00  0.00     0.000 HD
ENDBRANCH   9  10
ENDBRANCH   8   9
BRANCH   8  12
HETATM   12  N           1     -23.572  -4.526  -6.755  0.00  0.00    -0.067 N 
HETATM   13  H           1     -23.193  -4.164  -5.850  0.00  0.00     0.275 HD
HETATM   14  H           1     -24.505  -4.093  -6.939  0.00  0.00     0.275 HD
HETATM   15  H           1     -23.675  -5.565  -6.698  0.00  0.00     0.275 HD
ENDBRANCH   8  12
ENDBRANCH   2   8
BRANCH   7  16
HETATM   16  C           1     -23.820  -4.248 -12.405  0.00  0.00     0.196 C 
HETATM   17  O           1     -24.208  -4.038 -13.575  0.00  0.00    -0.646 OA
HETATM   18  O           1     -23.756  -5.418 -11.969  0.00  0.00    -0.646 OA
ENDBRANCH   7  16
TORSDOF 5
ENDMDL
MODEL 9
REMARK VINA RESULT:      -4.3      6.271      7.909
REMARK  5 active torsions:
REMARK  status: ('A' for Active; 'I' for Inactive)
REMARK       I    between atoms: N_1  and  C_2 
REMARK    1  A    between atoms: C_2  and  C_3 
REMARK    2  A    between atoms: C_3  and  C_4 
REMARK    3  A    between atoms: C_3  and  N_6 
REMARK    4  A    between atoms: C_4  and  Se_5 
REMARK    5  A    between atoms: C_16  and  C_18 
ROOT
HETATM    1  N           1     -21.097  -6.796  -5.429  0.00  0.00    -0.336 N 
HETATM    2  C           1     -20.643  -6.202  -6.576  0.00  0.00     0.251 C 
HETATM    3  O           1     -19.599  -6.557  -7.067  0.00  0.00    -0.271 OA
HETATM    4  C           1     -22.328  -6.498  -4.701  0.00  0.00     0.127 C 
HETATM    5  C           1     -21.912  -6.562  -3.242  0.00  0.00     0.022 C 
HETATM    6  C           1     -20.677  -7.455  -3.219  0.00  0.00     0.038 C 
HETATM    7  C           1     -20.456  -7.863  -4.665  0.00  0.00     0.188 C 
ENDROOT
BRANCH   2   8
HETATM    8  C           1     -21.449  -5.106  -7.228  0.00  0.00     0.275 C 
BRANCH   8   9
HETATM    9  C           1     -21.219  -5.132  -8.733  0.00  0.00     0.045 C 
BRANCH   9  10
HETATM   10 Se           1     -22.755  -4.347  -9.640  0.00  0.00     0.000 Se
HETATM   11  H           1     -21.944  -3.604 -10.618  0.00  0.00     0.000 HD
ENDBRANCH   9  10
ENDBRANCH   8   9
BRANCH   8  12
HETATM   12  N           1     -21.021  -3.777  -6.680  0.00  0.00    -0.067 N 
HETATM   13  H           1     -21.197  -3.751  -5.650  0.00  0.00     0.275 HD
HETATM   14  H           1     -20.001  -3.638  -6.863  0.00  0.00     0.275 HD
HETATM   15  H           1     -21.566  -3.016  -7.146  0.00  0.00     0.275 HD
ENDBRANCH   8  12
ENDBRANCH   2   8
BRANCH   7  16
HETATM   16  C           1     -21.106  -9.194  -4.954  0.00  0.00     0.196 C 
HETATM   17  O           1     -21.123  -9.641  -6.122  0.00  0.00    -0.646 OA
HETATM   18  O           1     -21.625  -9.850  -4.026  0.00  0.00    -0.646 OA
ENDBRANCH   7  16
TORSDOF 5
ENDMDL
