MODEL 1
REMARK VINA RESULT:      -5.6      0.000      0.000
REMARK  7 active torsions:
REMARK  status: ('A' for Active; 'I' for Inactive)
REMARK    1  A    between atoms: O_5  and  C_6 
REMARK    2  A    between atoms: C_6  and  C_19 
REMARK    3  A    between atoms: C_7  and  C_8 
REMARK    4  A    between atoms: C_8  and  C_10 
REMARK    5  A    between atoms: C_8  and  N_17 
REMARK    6  A    between atoms: N_11  and  C_19 
REMARK       I    between atoms: N_17  and  C_18 
REMARK    7  A    between atoms: C_18  and  C_19 
ROOT
HETATM    1  O           1     -21.543  -3.187  -7.285  0.00  0.00    -0.271 OA
HETATM    2  H           1     -22.071  -5.696  -9.093  0.00  0.00     0.163 HD
HETATM    3  N           1     -22.069  -4.721  -8.820  0.00  0.00    -0.344 N 
HETATM    4  C           1     -21.545  -4.349  -7.611  0.00  0.00     0.251 C 
ENDROOT
BRANCH   4   5
HETATM    5  C           1     -20.971  -5.393  -6.685  0.00  0.00     0.297 C 
BRANCH   5   6
HETATM    6  C           1     -22.064  -5.904  -5.755  0.00  0.00     0.206 C 
BRANCH   6   7
HETATM    7  O           1     -23.269  -5.251  -6.046  0.00  0.00    -0.398 OA
HETATM    8  H           1     -23.257  -4.434  -5.577  0.00  0.00     0.209 HD
ENDBRANCH   6   7
ENDBRANCH   5   6
BRANCH   5   9
HETATM    9  N           1     -19.867  -4.786  -5.872  0.00  0.00    -0.064 N 
HETATM   10  H           1     -19.848  -5.227  -4.924  0.00  0.00     0.275 HD
HETATM   11  H           1     -18.952  -4.950  -6.349  0.00  0.00     0.275 HD
HETATM   12  H           1     -20.031  -3.758  -5.774  0.00  0.00     0.275 HD
ENDBRANCH   5   9
ENDBRANCH   4   5
BRANCH   3  13
HETATM   13  C           1     -22.621  -3.717  -9.710  0.00  0.00     0.189 C 
BRANCH  13  14
HETATM   14  C           1     -24.125  -3.840  -9.734  0.00  0.00     0.197 C 
HETATM   15  O           1     -24.658  -4.935 -10.017  0.00  0.00    -0.646 OA
HETATM   16  O           1     -24.838  -2.848  -9.472  0.00  0.00    -0.646 OA
ENDBRANCH  13  14
BRANCH  13  17
HETATM   17  C           1     -22.072  -3.928 -11.114  0.00  0.00     0.010 C 
HETATM   18  C           1     -20.551  -4.003 -11.057  0.00  0.00     0.012 C 
HETATM   19  C           1     -22.490  -2.763 -12.002  0.00  0.00     0.012 C 
ENDBRANCH  13  17
ENDBRANCH   3  13
TORSDOF 7
ENDMDL
MODEL 2
REMARK VINA RESULT:      -5.5     12.515     14.371
REMARK  7 active torsions:
REMARK  status: ('A' for Active; 'I' for Inactive)
REMARK    1  A    between atoms: O_5  and  C_6 
REMARK    2  A    between atoms: C_6  and  C_19 
REMARK    3  A    between atoms: C_7  and  C_8 
REMARK    4  A    between atoms: C_8  and  C_10 
REMARK    5  A    between atoms: C_8  and  N_17 
REMARK    6  A    between atoms: N_11  and  C_19 
REMARK       I    between atoms: N_17  and  C_18 
REMARK    7  A    between atoms: C_18  and  C_19 
ROOT
HETATM    1  O           1     -36.957  -1.009 -13.099  0.00  0.00    -0.271 OA
HETATM    2  H           1     -33.884  -1.444 -13.552  0.00  0.00     0.163 HD
HETATM    3  N           1     -34.793  -1.557 -13.121  0.00  0.00    -0.344 N 
HETATM    4  C           1     -35.873  -0.875 -13.613  0.00  0.00     0.251 C 
ENDROOT
BRANCH   4   5
HETATM    5  C           1     -35.709   0.045 -14.797  0.00  0.00     0.297 C 
BRANCH   5   6
HETATM    6  C           1     -35.919  -0.741 -16.085  0.00  0.00     0.206 C 
BRANCH   6   7
HETATM    7  O           1     -35.151  -1.913 -16.049  0.00  0.00    -0.398 OA
HETATM    8  H           1     -34.644  -1.883 -15.255  0.00  0.00     0.209 HD
ENDBRANCH   6   7
ENDBRANCH   5   6
BRANCH   5   9
HETATM    9  N           1     -34.327   0.628 -14.789  0.00  0.00    -0.064 N 
HETATM   10  H           1     -34.338   1.560 -15.261  0.00  0.00     0.275 HD
HETATM   11  H           1     -34.003   0.742 -13.801  0.00  0.00     0.275 HD
HETATM   12  H           1     -33.675  -0.012 -15.298  0.00  0.00     0.275 HD
ENDBRANCH   5   9
ENDBRANCH   4   5
BRANCH   3  13
HETATM   13  C           1     -34.951  -2.441 -11.983  0.00  0.00     0.189 C 
BRANCH  13  14
HETATM   14  C           1     -34.604  -1.697 -10.717  0.00  0.00     0.197 C 
HETATM   15  O           1     -35.505  -1.137 -10.055  0.00  0.00    -0.646 OA
HETATM   16  O           1     -33.418  -1.641 -10.330  0.00  0.00    -0.646 OA
ENDBRANCH  13  14
BRANCH  13  17
HETATM   17  C           1     -34.023  -3.639 -12.138  0.00  0.00     0.010 C 
HETATM   18  C           1     -34.035  -4.104 -13.589  0.00  0.00     0.012 C 
HETATM   19  C           1     -34.500  -4.770 -11.238  0.00  0.00     0.012 C 
ENDBRANCH  13  17
ENDBRANCH   3  13
TORSDOF 7
ENDMDL
MODEL 3
REMARK VINA RESULT:      -5.3     12.121     13.532
REMARK  7 active torsions:
REMARK  status: ('A' for Active; 'I' for Inactive)
REMARK    1  A    between atoms: O_5  and  C_6 
REMARK    2  A    between atoms: C_6  and  C_19 
REMARK    3  A    between atoms: C_7  and  C_8 
REMARK    4  A    between atoms: C_8  and  C_10 
REMARK    5  A    between atoms: C_8  and  N_17 
REMARK    6  A    between atoms: N_11  and  C_19 
REMARK       I    between atoms: N_17  and  C_18 
REMARK    7  A    between atoms: C_18  and  C_19 
ROOT
HETATM    1  O           1     -35.089  -5.110 -15.414  0.00  0.00    -0.271 OA
HETATM    2  H           1     -32.698  -3.304 -14.484  0.00  0.00     0.163 HD
HETATM    3  N           1     -33.543  -3.857 -14.402  0.00  0.00    -0.344 N 
HETATM    4  C           1     -34.082  -4.451 -15.511  0.00  0.00     0.251 C 
ENDROOT
BRANCH   4   5
HETATM    5  C           1     -33.419  -4.281 -16.856  0.00  0.00     0.297 C 
BRANCH   5   6
HETATM    6  C           1     -31.908  -4.398 -16.696  0.00  0.00     0.206 C 
BRANCH   6   7
HETATM    7  O           1     -31.287  -3.303 -17.312  0.00  0.00    -0.398 OA
HETATM    8  H           1     -30.412  -3.255 -16.967  0.00  0.00     0.209 HD
ENDBRANCH   6   7
ENDBRANCH   5   6
BRANCH   5   9
HETATM    9  N           1     -33.759  -2.931 -17.414  0.00  0.00    -0.064 N 
HETATM   10  H           1     -33.313  -2.819 -18.353  0.00  0.00     0.275 HD
HETATM   11  H           1     -34.796  -2.845 -17.509  0.00  0.00     0.275 HD
HETATM   12  H           1     -33.404  -2.188 -16.769  0.00  0.00     0.275 HD
ENDBRANCH   5   9
ENDBRANCH   4   5
BRANCH   3  13
HETATM   13  C           1     -34.180  -4.020 -13.110  0.00  0.00     0.189 C 
BRANCH  13  14
HETATM   14  C           1     -34.924  -2.756 -12.754  0.00  0.00     0.197 C 
HETATM   15  O           1     -34.694  -1.698 -13.380  0.00  0.00    -0.646 OA
HETATM   16  O           1     -35.769  -2.766 -11.834  0.00  0.00    -0.646 OA
ENDBRANCH  13  14
BRANCH  13  17
HETATM   17  C           1     -33.120  -4.300 -12.054  0.00  0.00     0.010 C 
HETATM   18  C           1     -33.573  -5.463 -11.179  0.00  0.00     0.012 C 
HETATM   19  C           1     -32.924  -3.061 -11.191  0.00  0.00     0.012 C 
ENDBRANCH  13  17
ENDBRANCH   3  13
TORSDOF 7
ENDMDL
MODEL 4
REMARK VINA RESULT:      -5.2     13.389     15.359
REMARK  7 active torsions:
REMARK  status: ('A' for Active; 'I' for Inactive)
REMARK    1  A    between atoms: O_5  and  C_6 
REMARK    2  A    between atoms: C_6  and  C_19 
REMARK    3  A    between atoms: C_7  and  C_8 
REMARK    4  A    between atoms: C_8  and  C_10 
REMARK    5  A    between atoms: C_8  and  N_17 
REMARK    6  A    between atoms: N_11  and  C_19 
REMARK       I    between atoms: N_17  and  C_18 
REMARK    7  A    between atoms: C_18  and  C_19 
ROOT
HETATM    1  O           1     -34.826   0.833 -13.545  0.00  0.00    -0.271 OA
HETATM    2  H           1     -37.129  -1.255 -13.129  0.00  0.00     0.163 HD
HETATM    3  N           1     -36.333  -0.678 -12.889  0.00  0.00    -0.344 N 
HETATM    4  C           1     -35.776   0.146 -13.830  0.00  0.00     0.251 C 
ENDROOT
BRANCH   4   5
HETATM    5  C           1     -36.350   0.194 -15.225  0.00  0.00     0.297 C 
BRANCH   5   6
HETATM    6  C           1     -35.600  -0.786 -16.118  0.00  0.00     0.206 C 
BRANCH   6   7
HETATM    7  O           1     -35.082  -1.828 -15.336  0.00  0.00    -0.398 OA
HETATM    8  H           1     -35.278  -2.632 -15.787  0.00  0.00     0.209 HD
ENDBRANCH   6   7
ENDBRANCH   5   6
BRANCH   5   9
HETATM    9  N           1     -36.208   1.581 -15.776  0.00  0.00    -0.064 N 
HETATM   10  H           1     -36.578   1.609 -16.753  0.00  0.00     0.275 HD
HETATM   11  H           1     -36.748   2.250 -15.181  0.00  0.00     0.275 HD
HETATM   12  H           1     -35.198   1.853 -15.779  0.00  0.00     0.275 HD
ENDBRANCH   5   9
ENDBRANCH   4   5
BRANCH   3  13
HETATM   13  C           1     -35.781  -0.725 -11.549  0.00  0.00     0.189 C 
BRANCH  13  14
HETATM   14  C           1     -34.891  -1.936 -11.414  0.00  0.00     0.197 C 
HETATM   15  O           1     -35.297  -3.055 -11.795  0.00  0.00    -0.646 OA
HETATM   16  O           1     -33.749  -1.820 -10.920  0.00  0.00    -0.646 OA
ENDBRANCH  13  14
BRANCH  13  17
HETATM   17  C           1     -36.915  -0.812 -10.537  0.00  0.00     0.010 C 
HETATM   18  C           1     -38.074   0.062 -10.998  0.00  0.00     0.012 C 
HETATM   19  C           1     -36.421  -0.327  -9.180  0.00  0.00     0.012 C 
ENDBRANCH  13  17
ENDBRANCH   3  13
TORSDOF 7
ENDMDL
MODEL 5
REMARK VINA RESULT:      -5.1      2.952      5.724
REMARK  7 active torsions:
REMARK  status: ('A' for Active; 'I' for Inactive)
REMARK    1  A    between atoms: O_5  and  C_6 
REMARK    2  A    between atoms: C_6  and  C_19 
REMARK    3  A    between atoms: C_7  and  C_8 
REMARK    4  A    between atoms: C_8  and  C_10 
REMARK    5  A    between atoms: C_8  and  N_17 
REMARK    6  A    between atoms: N_11  and  C_19 
REMARK       I    between atoms: N_17  and  C_18 
REMARK    7  A    between atoms: C_18  and  C_19 
ROOT
HETATM    1  O           1     -21.950  -2.189 -11.865  0.00  0.00    -0.271 OA
HETATM    2  H           1     -23.092  -4.909 -10.798  0.00  0.00     0.163 HD
HETATM    3  N           1     -22.516  -4.077 -10.815  0.00  0.00    -0.344 N 
HETATM    4  C           1     -22.637  -3.182 -11.843  0.00  0.00     0.251 C 
ENDROOT
BRANCH   4   5
HETATM    5  C           1     -23.630  -3.435 -12.951  0.00  0.00     0.297 C 
BRANCH   5   6
HETATM    6  C           1     -23.342  -2.497 -14.117  0.00  0.00     0.206 C 
BRANCH   6   7
HETATM    7  O           1     -22.381  -3.076 -14.956  0.00  0.00    -0.398 OA
HETATM    8  H           1     -22.076  -2.396 -15.533  0.00  0.00     0.209 HD
ENDBRANCH   6   7
ENDBRANCH   5   6
BRANCH   5   9
HETATM    9  N           1     -25.019  -3.189 -12.443  0.00  0.00    -0.064 N 
HETATM   10  H           1     -25.292  -3.955 -11.786  0.00  0.00     0.275 HD
HETATM   11  H           1     -25.049  -2.273 -11.941  0.00  0.00     0.275 HD
HETATM   12  H           1     -25.686  -3.168 -13.249  0.00  0.00     0.275 HD
ENDBRANCH   5   9
ENDBRANCH   4   5
BRANCH   3  13
HETATM   13  C           1     -21.562  -3.833  -9.751  0.00  0.00     0.189 C 
BRANCH  13  14
HETATM   14  C           1     -20.299  -4.613 -10.020  0.00  0.00     0.197 C 
HETATM   15  O           1     -19.744  -4.538 -11.138  0.00  0.00    -0.646 OA
HETATM   16  O           1     -19.806  -5.334  -9.126  0.00  0.00    -0.646 OA
ENDBRANCH  13  14
BRANCH  13  17
HETATM   17  C           1     -22.160  -4.278  -8.423  0.00  0.00     0.010 C 
HETATM   18  C           1     -23.669  -4.073  -8.453  0.00  0.00     0.012 C 
HETATM   19  C           1     -21.557  -3.452  -7.294  0.00  0.00     0.012 C 
ENDBRANCH  13  17
ENDBRANCH   3  13
TORSDOF 7
ENDMDL
MODEL 6
REMARK VINA RESULT:      -5.1     10.038     12.212
REMARK  7 active torsions:
REMARK  status: ('A' for Active; 'I' for Inactive)
REMARK    1  A    between atoms: O_5  and  C_6 
REMARK    2  A    between atoms: C_6  and  C_19 
REMARK    3  A    between atoms: C_7  and  C_8 
REMARK    4  A    between atoms: C_8  and  C_10 
REMARK    5  A    between atoms: C_8  and  N_17 
REMARK    6  A    between atoms: N_11  and  C_19 
REMARK       I    between atoms: N_17  and  C_18 
REMARK    7  A    between atoms: C_18  and  C_19 
ROOT
HETATM    1  O           1     -28.150  -5.201 -19.384  0.00  0.00    -0.271 OA
HETATM    2  H           1     -27.360  -7.771 -17.769  0.00  0.00     0.163 HD
HETATM    3  N           1     -27.870  -6.926 -17.994  0.00  0.00    -0.344 N 
HETATM    4  C           1     -27.543  -6.209 -19.114  0.00  0.00     0.251 C 
ENDROOT
BRANCH   4   5
HETATM    5  C           1     -26.424  -6.678 -20.011  0.00  0.00     0.297 C 
BRANCH   5   6
HETATM    6  C           1     -26.891  -7.880 -20.821  0.00  0.00     0.206 C 
BRANCH   6   7
HETATM    7  O           1     -25.783  -8.506 -21.408  0.00  0.00    -0.398 OA
HETATM    8  H           1     -25.389  -9.045 -20.743  0.00  0.00     0.209 HD
ENDBRANCH   6   7
ENDBRANCH   5   6
BRANCH   5   9
HETATM    9  N           1     -25.243  -7.068 -19.173  0.00  0.00    -0.064 N 
HETATM   10  H           1     -24.688  -6.216 -18.933  0.00  0.00     0.275 HD
HETATM   11  H           1     -25.576  -7.524 -18.293  0.00  0.00     0.275 HD
HETATM   12  H           1     -24.642  -7.736 -19.707  0.00  0.00     0.275 HD
ENDBRANCH   5   9
ENDBRANCH   4   5
BRANCH   3  13
HETATM   13  C           1     -28.945  -6.476 -17.133  0.00  0.00     0.189 C 
BRANCH  13  14
HETATM   14  C           1     -28.487  -6.512 -15.696  0.00  0.00     0.197 C 
HETATM   15  O           1     -28.663  -5.519 -14.958  0.00  0.00    -0.646 OA
HETATM   16  O           1     -27.930  -7.536 -15.243  0.00  0.00    -0.646 OA
ENDBRANCH  13  14
BRANCH  13  17
HETATM   17  C           1     -30.150  -7.391 -17.305  0.00  0.00     0.010 C 
HETATM   18  C           1     -30.054  -8.108 -18.646  0.00  0.00     0.012 C 
HETATM   19  C           1     -31.427  -6.562 -17.262  0.00  0.00     0.012 C 
ENDBRANCH  13  17
ENDBRANCH   3  13
TORSDOF 7
ENDMDL
MODEL 7
REMARK VINA RESULT:      -5.1     12.569     14.534
REMARK  7 active torsions:
REMARK  status: ('A' for Active; 'I' for Inactive)
REMARK    1  A    between atoms: O_5  and  C_6 
REMARK    2  A    between atoms: C_6  and  C_19 
REMARK    3  A    between atoms: C_7  and  C_8 
REMARK    4  A    between atoms: C_8  and  C_10 
REMARK    5  A    between atoms: C_8  and  N_17 
REMARK    6  A    between atoms: N_11  and  C_19 
REMARK       I    between atoms: N_17  and  C_18 
REMARK    7  A    between atoms: C_18  and  C_19 
ROOT
HETATM    1  O           1     -35.154  -1.750 -14.667  0.00  0.00    -0.271 OA
HETATM    2  H           1     -35.497  -0.565 -11.782  0.00  0.00     0.163 HD
HETATM    3  N           1     -35.306  -1.260 -12.494  0.00  0.00    -0.344 N 
HETATM    4  C           1     -35.380  -0.922 -13.818  0.00  0.00     0.251 C 
ENDROOT
BRANCH   4   5
HETATM    5  C           1     -35.747   0.486 -14.218  0.00  0.00     0.297 C 
BRANCH   5   6
HETATM    6  C           1     -36.031   0.533 -15.714  0.00  0.00     0.206 C 
BRANCH   6   7
HETATM    7  O           1     -36.546   1.792 -16.052  0.00  0.00    -0.398 OA
HETATM    8  H           1     -37.368   1.644 -16.487  0.00  0.00     0.209 HD
ENDBRANCH   6   7
ENDBRANCH   5   6
BRANCH   5   9
HETATM    9  N           1     -34.608   1.409 -13.897  0.00  0.00    -0.064 N 
HETATM   10  H           1     -33.908   1.383 -14.673  0.00  0.00     0.275 HD
HETATM   11  H           1     -34.970   2.383 -13.787  0.00  0.00     0.275 HD
HETATM   12  H           1     -34.152   1.103 -13.007  0.00  0.00     0.275 HD
ENDBRANCH   5   9
ENDBRANCH   4   5
BRANCH   3  13
HETATM   13  C           1     -34.955  -2.613 -12.110  0.00  0.00     0.189 C 
BRANCH  13  14
HETATM   14  C           1     -35.895  -3.090 -11.030  0.00  0.00     0.197 C 
HETATM   15  O           1     -35.956  -4.307 -10.747  0.00  0.00    -0.646 OA
HETATM   16  O           1     -36.613  -2.270 -10.420  0.00  0.00    -0.646 OA
ENDBRANCH  13  14
BRANCH  13  17
HETATM   17  C           1     -33.525  -2.636 -11.585  0.00  0.00     0.010 C 
HETATM   18  C           1     -32.991  -4.062 -11.631  0.00  0.00     0.012 C 
HETATM   19  C           1     -33.504  -2.132 -10.148  0.00  0.00     0.012 C 
ENDBRANCH  13  17
ENDBRANCH   3  13
TORSDOF 7
ENDMDL
MODEL 8
REMARK VINA RESULT:      -5.1     12.177     14.047
REMARK  7 active torsions:
REMARK  status: ('A' for Active; 'I' for Inactive)
REMARK    1  A    between atoms: O_5  and  C_6 
REMARK    2  A    between atoms: C_6  and  C_19 
REMARK    3  A    between atoms: C_7  and  C_8 
REMARK    4  A    between atoms: C_8  and  C_10 
REMARK    5  A    between atoms: C_8  and  N_17 
REMARK    6  A    between atoms: N_11  and  C_19 
REMARK       I    between atoms: N_17  and  C_18 
REMARK    7  A    between atoms: C_18  and  C_19 
ROOT
HETATM    1  O           1     -34.669  -3.391 -13.285  0.00  0.00    -0.271 OA
HETATM    2  H           1     -34.697  -0.567 -11.920  0.00  0.00     0.163 HD
HETATM    3  N           1     -34.930  -1.283 -12.596  0.00  0.00    -0.344 N 
HETATM    4  C           1     -34.392  -2.537 -12.479  0.00  0.00     0.251 C 
ENDROOT
BRANCH   4   5
HETATM    5  C           1     -33.451  -2.851 -11.341  0.00  0.00     0.297 C 
BRANCH   5   6
HETATM    6  C           1     -33.727  -4.258 -10.827  0.00  0.00     0.206 C 
BRANCH   6   7
HETATM    7  O           1     -35.110  -4.453 -10.718  0.00  0.00    -0.398 OA
HETATM    8  H           1     -35.271  -4.795  -9.855  0.00  0.00     0.209 HD
ENDBRANCH   6   7
ENDBRANCH   5   6
BRANCH   5   9
HETATM    9  N           1     -33.663  -1.863 -10.232  0.00  0.00    -0.064 N 
HETATM   10  H           1     -34.687  -1.717 -10.084  0.00  0.00     0.275 HD
HETATM   11  H           1     -33.234  -2.231  -9.352  0.00  0.00     0.275 HD
HETATM   12  H           1     -33.214  -0.953 -10.485  0.00  0.00     0.275 HD
ENDBRANCH   5   9
ENDBRANCH   4   5
BRANCH   3  13
HETATM   13  C           1     -35.833  -0.982 -13.689  0.00  0.00     0.189 C 
BRANCH  13  14
HETATM   14  C           1     -35.049  -0.417 -14.848  0.00  0.00     0.197 C 
HETATM   15  O           1     -34.428   0.661 -14.716  0.00  0.00    -0.646 OA
HETATM   16  O           1     -35.020  -1.024 -15.939  0.00  0.00    -0.646 OA
ENDBRANCH  13  14
BRANCH  13  17
HETATM   17  C           1     -36.865   0.038 -13.228  0.00  0.00     0.010 C 
HETATM   18  C           1     -37.302  -0.291 -11.806  0.00  0.00     0.012 C 
HETATM   19  C           1     -38.072  -0.006 -14.155  0.00  0.00     0.012 C 
ENDBRANCH  13  17
ENDBRANCH   3  13
TORSDOF 7
ENDMDL
MODEL 9
REMARK VINA RESULT:      -4.8      2.638      5.340
REMARK  7 active torsions:
REMARK  status: ('A' for Active; 'I' for Inactive)
REMARK    1  A    between atoms: O_5  and  C_6 
REMARK    2  A    between atoms: C_6  and  C_19 
REMARK    3  A    between atoms: C_7  and  C_8 
REMARK    4  A    between atoms: C_8  and  C_10 
REMARK    5  A    between atoms: C_8  and  N_17 
REMARK    6  A    between atoms: N_11  and  C_19 
REMARK       I    between atoms: N_17  and  C_18 
REMARK    7  A    between atoms: C_18  and  C_19 
ROOT
HETATM    1  O           1     -23.731  -5.518 -11.838  0.00  0.00    -0.271 OA
HETATM    2  H           1     -22.582  -2.692 -11.104  0.00  0.00     0.163 HD
HETATM    3  N           1     -22.789  -3.677 -10.994  0.00  0.00    -0.344 N 
HETATM    4  C           1     -23.482  -4.343 -11.969  0.00  0.00     0.251 C 
ENDROOT
BRANCH   4   5
HETATM    5  C           1     -23.938  -3.609 -13.206  0.00  0.00     0.297 C 
BRANCH   5   6
HETATM    6  C           1     -22.757  -2.868 -13.821  0.00  0.00     0.206 C 
BRANCH   6   7
HETATM    7  O           1     -22.719  -3.113 -15.200  0.00  0.00    -0.398 OA
HETATM    8  H           1     -22.575  -4.037 -15.310  0.00  0.00     0.209 HD
ENDBRANCH   6   7
ENDBRANCH   5   6
BRANCH   5   9
HETATM    9  N           1     -25.008  -2.625 -12.838  0.00  0.00    -0.064 N 
HETATM   10  H           1     -25.944  -3.085 -12.907  0.00  0.00     0.275 HD
HETATM   11  H           1     -24.855  -2.295 -11.858  0.00  0.00     0.275 HD
HETATM   12  H           1     -24.972  -1.810 -13.491  0.00  0.00     0.275 HD
ENDBRANCH   5   9
ENDBRANCH   4   5
BRANCH   3  13
HETATM   13  C           1     -22.352  -4.383  -9.805  0.00  0.00     0.189 C 
BRANCH  13  14
HETATM   14  C           1     -23.260  -4.034  -8.652  0.00  0.00     0.197 C 
HETATM   15  O           1     -24.323  -3.410  -8.860  0.00  0.00    -0.646 OA
HETATM   16  O           1     -22.950  -4.368  -7.488  0.00  0.00    -0.646 OA
ENDBRANCH  13  14
BRANCH  13  17
HETATM   17  C           1     -20.924  -3.974  -9.469  0.00  0.00     0.010 C 
HETATM   18  C           1     -20.189  -3.603 -10.751  0.00  0.00     0.012 C 
HETATM   19  C           1     -20.211  -5.136  -8.791  0.00  0.00     0.012 C 
ENDBRANCH  13  17
ENDBRANCH   3  13
TORSDOF 7
ENDMDL
