MODEL 1
REMARK VINA RESULT:      -5.7      0.000      0.000
REMARK  10 active torsions:
REMARK  status: ('A' for Active; 'I' for Inactive)
REMARK    1  A    between atoms: N_1  and  C_11 
REMARK    2  A    between atoms: Se_2  and  C_20 
REMARK    3  A    between atoms: N_4  and  C_17 
REMARK    4  A    between atoms: C_6  and  C_23 
REMARK    5  A    between atoms: C_11  and  C_14 
REMARK    6  A    between atoms: C_11  and  C_12 
REMARK    7  A    between atoms: C_12  and  C_21 
REMARK       I    between atoms: C_14  and  N_22 
REMARK    8  A    between atoms: C_17  and  C_21 
REMARK    9  A    between atoms: C_20  and  C_23 
REMARK   10  A    between atoms: N_22  and  C_23 
ROOT
HETATM    1  C           1     -33.580  -2.315 -11.443  0.00  0.00     0.274 C 
ENDROOT
BRANCH   1   2
HETATM    2  N           1     -34.257  -2.007 -10.140  0.00  0.00    -0.067 N 
HETATM    3  H           1     -35.062  -1.363 -10.309  0.00  0.00     0.275 HD
HETATM    4  H           1     -34.606  -2.894  -9.710  0.00  0.00     0.275 HD
HETATM    5  H           1     -33.576  -1.549  -9.493  0.00  0.00     0.275 HD
ENDBRANCH   1   2
BRANCH   1   6
HETATM    6  C           1     -34.539  -2.062 -12.579  0.00  0.00     0.249 C 
HETATM    7  O           1     -34.689  -2.897 -13.440  0.00  0.00    -0.271 OA
HETATM    8  N           1     -35.241  -0.888 -12.636  0.00  0.00    -0.345 N 
HETATM    9  H           1     -35.116  -0.189 -11.913  0.00  0.00     0.163 HD
BRANCH   8  10
HETATM   10  C           1     -36.163  -0.646 -13.728  0.00  0.00     0.185 C 
BRANCH  10  11
HETATM   11  C           1     -35.555   0.347 -14.688  0.00  0.00     0.196 C 
HETATM   12  O           1     -34.342   0.636 -14.603  0.00  0.00    -0.646 OA
HETATM   13  O           1     -36.265   0.882 -15.567  0.00  0.00    -0.646 OA
ENDBRANCH  10  11
BRANCH  10  14
HETATM   14  C           1     -37.467  -0.087 -13.175  0.00  0.00     0.039 C 
BRANCH  14  15
HETATM   15 Se           1     -37.443  -0.185 -11.229  0.00  0.00     0.000 Se
HETATM   16  H           1     -36.763   1.109 -11.057  0.00  0.00     0.000 HD
ENDBRANCH  14  15
ENDBRANCH  10  14
ENDBRANCH   8  10
ENDBRANCH   1   6
BRANCH   1  17
HETATM   17  C           1     -33.147  -3.775 -11.457  0.00  0.00     0.044 C 
BRANCH  17  18
HETATM   18  C           1     -34.026  -4.575 -10.505  0.00  0.00     0.030 C 
BRANCH  18  19
HETATM   19  C           1     -34.324  -5.940 -11.112  0.00  0.00     0.230 C 
BRANCH  19  20
HETATM   20  N           1     -34.766  -5.768 -12.534  0.00  0.00    -0.079 N 
HETATM   21  H           1     -35.640  -6.319 -12.697  0.00  0.00     0.274 HD
HETATM   22  H           1     -34.953  -4.757 -12.722  0.00  0.00     0.274 HD
HETATM   23  H           1     -34.015  -6.109 -13.176  0.00  0.00     0.274 HD
ENDBRANCH  19  20
ENDBRANCH  18  19
ENDBRANCH  17  18
ENDBRANCH   1  17
TORSDOF 10
ENDMDL
MODEL 2
REMARK VINA RESULT:      -5.3     12.843     14.293
REMARK  10 active torsions:
REMARK  status: ('A' for Active; 'I' for Inactive)
REMARK    1  A    between atoms: N_1  and  C_11 
REMARK    2  A    between atoms: Se_2  and  C_20 
REMARK    3  A    between atoms: N_4  and  C_17 
REMARK    4  A    between atoms: C_6  and  C_23 
REMARK    5  A    between atoms: C_11  and  C_14 
REMARK    6  A    between atoms: C_11  and  C_12 
REMARK    7  A    between atoms: C_12  and  C_21 
REMARK       I    between atoms: C_14  and  N_22 
REMARK    8  A    between atoms: C_17  and  C_21 
REMARK    9  A    between atoms: C_20  and  C_23 
REMARK   10  A    between atoms: N_22  and  C_23 
ROOT
HETATM    1  C           1     -21.187  -5.883  -6.826  0.00  0.00     0.274 C 
ENDROOT
BRANCH   1   2
HETATM    2  N           1     -19.788  -6.237  -7.237  0.00  0.00    -0.067 N 
HETATM    3  H           1     -19.804  -6.678  -8.184  0.00  0.00     0.275 HD
HETATM    4  H           1     -19.203  -5.371  -7.265  0.00  0.00     0.275 HD
HETATM    5  H           1     -19.383  -6.910  -6.548  0.00  0.00     0.275 HD
ENDBRANCH   1   2
BRANCH   1   6
HETATM    6  C           1     -21.681  -4.733  -7.669  0.00  0.00     0.249 C 
HETATM    7  O           1     -21.628  -3.604  -7.241  0.00  0.00    -0.271 OA
HETATM    8  N           1     -22.190  -4.968  -8.919  0.00  0.00    -0.345 N 
HETATM    9  H           1     -22.233  -5.914  -9.277  0.00  0.00     0.163 HD
BRANCH   8  10
HETATM   10  C           1     -22.664  -3.862  -9.728  0.00  0.00     0.185 C 
BRANCH  10  11
HETATM   11  C           1     -24.173  -3.848  -9.723  0.00  0.00     0.196 C 
HETATM   12  O           1     -24.808  -4.889  -9.994  0.00  0.00    -0.646 OA
HETATM   13  O           1     -24.787  -2.794  -9.447  0.00  0.00    -0.646 OA
ENDBRANCH  10  11
BRANCH  10  14
HETATM   14  C           1     -22.162  -4.029 -11.156  0.00  0.00     0.039 C 
BRANCH  14  15
HETATM   15 Se           1     -22.994  -2.686 -12.298  0.00  0.00     0.000 Se
HETATM   16  H           1     -24.066  -2.369 -11.341  0.00  0.00     0.000 HD
ENDBRANCH  14  15
ENDBRANCH  10  14
ENDBRANCH   8  10
ENDBRANCH   1   6
BRANCH   1  17
HETATM   17  C           1     -21.198  -5.479  -5.358  0.00  0.00     0.044 C 
BRANCH  17  18
HETATM   18  C           1     -21.974  -6.513  -4.552  0.00  0.00     0.030 C 
BRANCH  18  19
HETATM   19  C           1     -21.425  -6.569  -3.133  0.00  0.00     0.230 C 
BRANCH  19  20
HETATM   20  N           1     -22.358  -5.846  -2.207  0.00  0.00    -0.079 N 
HETATM   21  H           1     -23.316  -5.825  -2.624  0.00  0.00     0.274 HD
HETATM   22  H           1     -22.390  -6.342  -1.288  0.00  0.00     0.274 HD
HETATM   23  H           1     -22.018  -4.868  -2.065  0.00  0.00     0.274 HD
ENDBRANCH  19  20
ENDBRANCH  18  19
ENDBRANCH  17  18
ENDBRANCH   1  17
TORSDOF 10
ENDMDL
MODEL 3
REMARK VINA RESULT:      -5.0     14.787     16.778
REMARK  10 active torsions:
REMARK  status: ('A' for Active; 'I' for Inactive)
REMARK    1  A    between atoms: N_1  and  C_11 
REMARK    2  A    between atoms: Se_2  and  C_20 
REMARK    3  A    between atoms: N_4  and  C_17 
REMARK    4  A    between atoms: C_6  and  C_23 
REMARK    5  A    between atoms: C_11  and  C_14 
REMARK    6  A    between atoms: C_11  and  C_12 
REMARK    7  A    between atoms: C_12  and  C_21 
REMARK       I    between atoms: C_14  and  N_22 
REMARK    8  A    between atoms: C_17  and  C_21 
REMARK    9  A    between atoms: C_20  and  C_23 
REMARK   10  A    between atoms: N_22  and  C_23 
ROOT
HETATM    1  C           1     -20.556  -4.952  -6.604  0.00  0.00     0.274 C 
ENDROOT
BRANCH   1   2
HETATM    2  N           1     -19.976  -5.847  -7.660  0.00  0.00    -0.067 N 
HETATM    3  H           1     -19.896  -5.319  -8.559  0.00  0.00     0.275 HD
HETATM    4  H           1     -19.029  -6.171  -7.361  0.00  0.00     0.275 HD
HETATM    5  H           1     -20.601  -6.673  -7.798  0.00  0.00     0.275 HD
ENDBRANCH   1   2
BRANCH   1   6
HETATM    6  C           1     -21.427  -5.767  -5.680  0.00  0.00     0.249 C 
HETATM    7  O           1     -22.627  -5.625  -5.701  0.00  0.00    -0.271 OA
HETATM    8  N           1     -20.860  -6.667  -4.819  0.00  0.00    -0.345 N 
HETATM    9  H           1     -19.854  -6.786  -4.802  0.00  0.00     0.163 HD
BRANCH   8  10
HETATM   10  C           1     -21.698  -7.449  -3.931  0.00  0.00     0.185 C 
BRANCH  10  11
HETATM   11  C           1     -21.626  -6.875  -2.538  0.00  0.00     0.196 C 
HETATM   12  O           1     -22.337  -5.895  -2.228  0.00  0.00    -0.646 OA
HETATM   13  O           1     -20.856  -7.381  -1.693  0.00  0.00    -0.646 OA
ENDBRANCH  10  11
BRANCH  10  14
HETATM   14  C           1     -21.209  -8.891  -3.914  0.00  0.00     0.039 C 
BRANCH  14  15
HETATM   15 Se           1     -19.455  -8.993  -4.757  0.00  0.00     0.000 Se
HETATM   16  H           1     -19.988  -9.294  -6.095  0.00  0.00     0.000 HD
ENDBRANCH  14  15
ENDBRANCH  10  14
ENDBRANCH   8  10
ENDBRANCH   1   6
BRANCH   1  17
HETATM   17  C           1     -21.391  -3.863  -7.264  0.00  0.00     0.044 C 
BRANCH  17  18
HETATM   18  C           1     -21.485  -4.131  -8.761  0.00  0.00     0.030 C 
BRANCH  18  19
HETATM   19  C           1     -22.943  -4.080  -9.197  0.00  0.00     0.230 C 
BRANCH  19  20
HETATM   20  N           1     -23.827  -4.038  -7.985  0.00  0.00    -0.079 N 
HETATM   21  H           1     -24.535  -3.277  -8.095  0.00  0.00     0.274 HD
HETATM   22  H           1     -24.316  -4.956  -7.879  0.00  0.00     0.274 HD
HETATM   23  H           1     -23.246  -3.853  -7.137  0.00  0.00     0.274 HD
ENDBRANCH  19  20
ENDBRANCH  18  19
ENDBRANCH  17  18
ENDBRANCH   1  17
TORSDOF 10
ENDMDL
MODEL 4
REMARK VINA RESULT:      -5.0     12.733     14.448
REMARK  10 active torsions:
REMARK  status: ('A' for Active; 'I' for Inactive)
REMARK    1  A    between atoms: N_1  and  C_11 
REMARK    2  A    between atoms: Se_2  and  C_20 
REMARK    3  A    between atoms: N_4  and  C_17 
REMARK    4  A    between atoms: C_6  and  C_23 
REMARK    5  A    between atoms: C_11  and  C_14 
REMARK    6  A    between atoms: C_11  and  C_12 
REMARK    7  A    between atoms: C_12  and  C_21 
REMARK       I    between atoms: C_14  and  N_22 
REMARK    8  A    between atoms: C_17  and  C_21 
REMARK    9  A    between atoms: C_20  and  C_23 
REMARK   10  A    between atoms: N_22  and  C_23 
ROOT
HETATM    1  C           1     -24.362  -4.691  -9.893  0.00  0.00     0.274 C 
ENDROOT
BRANCH   1   2
HETATM    2  N           1     -25.396  -3.606  -9.829  0.00  0.00    -0.067 N 
HETATM    3  H           1     -25.173  -2.870 -10.536  0.00  0.00     0.275 HD
HETATM    4  H           1     -26.338  -4.010 -10.032  0.00  0.00     0.275 HD
HETATM    5  H           1     -25.396  -3.181  -8.874  0.00  0.00     0.275 HD
ENDBRANCH   1   2
BRANCH   1   6
HETATM    6  C           1     -23.386  -4.521  -8.754  0.00  0.00     0.249 C 
HETATM    7  O           1     -23.758  -4.050  -7.705  0.00  0.00    -0.271 OA
HETATM    8  N           1     -22.080  -4.901  -8.908  0.00  0.00    -0.345 N 
HETATM    9  H           1     -21.769  -5.297  -9.787  0.00  0.00     0.163 HD
BRANCH   8  10
HETATM   10  C           1     -21.143  -4.738  -7.813  0.00  0.00     0.185 C 
BRANCH  10  11
HETATM   11  C           1     -19.822  -4.247  -8.352  0.00  0.00     0.196 C 
HETATM   12  O           1     -18.794  -4.318  -7.645  0.00  0.00    -0.646 OA
HETATM   13  O           1     -19.757  -3.768  -9.505  0.00  0.00    -0.646 OA
ENDBRANCH  10  11
BRANCH  10  14
HETATM   14  C           1     -20.942  -6.076  -7.115  0.00  0.00     0.039 C 
BRANCH  14  15
HETATM   15 Se           1     -21.123  -5.839  -5.189  0.00  0.00     0.000 Se
HETATM   16  H           1     -19.688  -6.013  -4.916  0.00  0.00     0.000 HD
ENDBRANCH  14  15
ENDBRANCH  10  14
ENDBRANCH   8  10
ENDBRANCH   1   6
BRANCH   1  17
HETATM   17  C           1     -23.617  -4.605 -11.218  0.00  0.00     0.044 C 
BRANCH  17  18
HETATM   18  C           1     -23.704  -3.184 -11.759  0.00  0.00     0.030 C 
BRANCH  18  19
HETATM   19  C           1     -22.305  -2.596 -11.874  0.00  0.00     0.230 C 
BRANCH  19  20
HETATM   20  N           1     -21.321  -3.694 -12.145  0.00  0.00    -0.079 N 
HETATM   21  H           1     -21.770  -4.426 -12.741  0.00  0.00     0.274 HD
HETATM   22  H           1     -20.489  -3.303 -12.642  0.00  0.00     0.274 HD
HETATM   23  H           1     -21.017  -4.121 -11.240  0.00  0.00     0.274 HD
ENDBRANCH  19  20
ENDBRANCH  18  19
ENDBRANCH  17  18
ENDBRANCH   1  17
TORSDOF 10
ENDMDL
MODEL 5
REMARK VINA RESULT:      -4.9      2.859      5.625
REMARK  10 active torsions:
REMARK  status: ('A' for Active; 'I' for Inactive)
REMARK    1  A    between atoms: N_1  and  C_11 
REMARK    2  A    between atoms: Se_2  and  C_20 
REMARK    3  A    between atoms: N_4  and  C_17 
REMARK    4  A    between atoms: C_6  and  C_23 
REMARK    5  A    between atoms: C_11  and  C_14 
REMARK    6  A    between atoms: C_11  and  C_12 
REMARK    7  A    between atoms: C_12  and  C_21 
REMARK       I    between atoms: C_14  and  N_22 
REMARK    8  A    between atoms: C_17  and  C_21 
REMARK    9  A    between atoms: C_20  and  C_23 
REMARK   10  A    between atoms: N_22  and  C_23 
ROOT
HETATM    1  C           1     -35.668  -0.043 -14.395  0.00  0.00     0.274 C 
ENDROOT
BRANCH   1   2
HETATM    2  N           1     -34.404   0.763 -14.337  0.00  0.00    -0.067 N 
HETATM    3  H           1     -34.100   0.864 -13.342  0.00  0.00     0.275 HD
HETATM    4  H           1     -33.656   0.278 -14.882  0.00  0.00     0.275 HD
HETATM    5  H           1     -34.576   1.710 -14.744  0.00  0.00     0.275 HD
ENDBRANCH   1   2
BRANCH   1   6
HETATM    6  C           1     -35.666  -1.060 -13.280  0.00  0.00     0.249 C 
HETATM    7  O           1     -36.527  -1.028 -12.433  0.00  0.00    -0.271 OA
HETATM    8  N           1     -34.690  -2.018 -13.229  0.00  0.00    -0.345 N 
HETATM    9  H           1     -33.969  -2.044 -13.940  0.00  0.00     0.163 HD
BRANCH   8  10
HETATM   10  C           1     -34.689  -2.995 -12.158  0.00  0.00     0.185 C 
BRANCH  10  11
HETATM   11  C           1     -33.618  -2.641 -11.156  0.00  0.00     0.196 C 
HETATM   12  O           1     -33.890  -1.904 -10.185  0.00  0.00    -0.646 OA
HETATM   13  O           1     -32.458  -3.087 -11.298  0.00  0.00    -0.646 OA
ENDBRANCH  10  11
BRANCH  10  14
HETATM   14  C           1     -34.410  -4.378 -12.734  0.00  0.00     0.039 C 
BRANCH  14  15
HETATM   15 Se           1     -34.544  -5.711 -11.318  0.00  0.00     0.000 Se
HETATM   16  H           1     -33.101  -5.998 -11.294  0.00  0.00     0.000 HD
ENDBRANCH  14  15
ENDBRANCH  10  14
ENDBRANCH   8  10
ENDBRANCH   1   6
BRANCH   1  17
HETATM   17  C           1     -35.753  -0.758 -15.737  0.00  0.00     0.044 C 
BRANCH  17  18
HETATM   18  C           1     -37.171  -0.651 -16.281  0.00  0.00     0.030 C 
BRANCH  18  19
HETATM   19  C           1     -37.986   0.287 -15.400  0.00  0.00     0.230 C 
BRANCH  19  20
HETATM   20  N           1     -38.075   1.634 -16.053  0.00  0.00    -0.079 N 
HETATM   21  H           1     -38.682   1.572 -16.902  0.00  0.00     0.274 HD
HETATM   22  H           1     -38.487   2.320 -15.381  0.00  0.00     0.274 HD
HETATM   23  H           1     -37.119   1.951 -16.331  0.00  0.00     0.274 HD
ENDBRANCH  19  20
ENDBRANCH  18  19
ENDBRANCH  17  18
ENDBRANCH   1  17
TORSDOF 10
ENDMDL
MODEL 6
REMARK VINA RESULT:      -4.9      4.594      5.560
REMARK  10 active torsions:
REMARK  status: ('A' for Active; 'I' for Inactive)
REMARK    1  A    between atoms: N_1  and  C_11 
REMARK    2  A    between atoms: Se_2  and  C_20 
REMARK    3  A    between atoms: N_4  and  C_17 
REMARK    4  A    between atoms: C_6  and  C_23 
REMARK    5  A    between atoms: C_11  and  C_14 
REMARK    6  A    between atoms: C_11  and  C_12 
REMARK    7  A    between atoms: C_12  and  C_21 
REMARK       I    between atoms: C_14  and  N_22 
REMARK    8  A    between atoms: C_17  and  C_21 
REMARK    9  A    between atoms: C_20  and  C_23 
REMARK   10  A    between atoms: N_22  and  C_23 
ROOT
HETATM    1  C           1     -33.074  -4.518 -16.751  0.00  0.00     0.274 C 
ENDROOT
BRANCH   1   2
HETATM    2  N           1     -33.132  -3.147 -17.357  0.00  0.00    -0.067 N 
HETATM    3  H           1     -33.854  -2.577 -16.862  0.00  0.00     0.275 HD
HETATM    4  H           1     -32.199  -2.684 -17.263  0.00  0.00     0.275 HD
HETATM    5  H           1     -33.384  -3.223 -18.368  0.00  0.00     0.275 HD
ENDBRANCH   1   2
BRANCH   1   6
HETATM    6  C           1     -33.874  -4.536 -15.472  0.00  0.00     0.249 C 
HETATM    7  O           1     -34.995  -4.987 -15.467  0.00  0.00    -0.271 OA
HETATM    8  N           1     -33.331  -4.041 -14.317  0.00  0.00    -0.345 N 
HETATM    9  H           1     -32.391  -3.663 -14.322  0.00  0.00     0.163 HD
BRANCH   8  10
HETATM   10  C           1     -34.101  -4.058 -13.088  0.00  0.00     0.185 C 
BRANCH  10  11
HETATM   11  C           1     -34.661  -2.681 -12.827  0.00  0.00     0.196 C 
HETATM   12  O           1     -34.860  -2.301 -11.654  0.00  0.00    -0.646 OA
HETATM   13  O           1     -34.924  -1.922 -13.785  0.00  0.00    -0.646 OA
ENDBRANCH  10  11
BRANCH  10  14
HETATM   14  C           1     -33.198  -4.468 -11.932  0.00  0.00     0.039 C 
BRANCH  14  15
HETATM   15 Se           1     -34.091  -5.830 -10.862  0.00  0.00     0.000 Se
HETATM   16  H           1     -32.950  -6.030  -9.954  0.00  0.00     0.000 HD
ENDBRANCH  14  15
ENDBRANCH  10  14
ENDBRANCH   8  10
ENDBRANCH   1   6
BRANCH   1  17
HETATM   17  C           1     -31.626  -4.880 -16.451  0.00  0.00     0.044 C 
BRANCH  17  18
HETATM   18  C           1     -31.227  -6.103 -17.266  0.00  0.00     0.030 C 
BRANCH  18  19
HETATM   19  C           1     -29.816  -6.531 -16.887  0.00  0.00     0.230 C 
BRANCH  19  20
HETATM   20  N           1     -29.567  -7.926 -17.377  0.00  0.00    -0.079 N 
HETATM   21  H           1     -29.518  -8.579 -16.561  0.00  0.00     0.274 HD
HETATM   22  H           1     -30.347  -8.218 -18.008  0.00  0.00     0.274 HD
HETATM   23  H           1     -28.664  -7.955 -17.901  0.00  0.00     0.274 HD
ENDBRANCH  19  20
ENDBRANCH  18  19
ENDBRANCH  17  18
ENDBRANCH   1  17
TORSDOF 10
ENDMDL
MODEL 7
REMARK VINA RESULT:      -4.8      2.888      5.210
REMARK  10 active torsions:
REMARK  status: ('A' for Active; 'I' for Inactive)
REMARK    1  A    between atoms: N_1  and  C_11 
REMARK    2  A    between atoms: Se_2  and  C_20 
REMARK    3  A    between atoms: N_4  and  C_17 
REMARK    4  A    between atoms: C_6  and  C_23 
REMARK    5  A    between atoms: C_11  and  C_14 
REMARK    6  A    between atoms: C_11  and  C_12 
REMARK    7  A    between atoms: C_12  and  C_21 
REMARK       I    between atoms: C_14  and  N_22 
REMARK    8  A    between atoms: C_17  and  C_21 
REMARK    9  A    between atoms: C_20  and  C_23 
REMARK   10  A    between atoms: N_22  and  C_23 
ROOT
HETATM    1  C           1     -36.062   0.411 -13.668  0.00  0.00     0.274 C 
ENDROOT
BRANCH   1   2
HETATM    2  N           1     -34.704   0.964 -13.983  0.00  0.00    -0.067 N 
HETATM    3  H           1     -34.150   0.250 -14.508  0.00  0.00     0.275 HD
HETATM    4  H           1     -34.804   1.825 -14.567  0.00  0.00     0.275 HD
HETATM    5  H           1     -34.209   1.201 -13.093  0.00  0.00     0.275 HD
ENDBRANCH   1   2
BRANCH   1   6
HETATM    6  C           1     -35.916  -0.817 -12.803  0.00  0.00     0.249 C 
HETATM    7  O           1     -36.770  -1.091 -11.994  0.00  0.00    -0.271 OA
HETATM    8  N           1     -34.815  -1.621 -12.936  0.00  0.00    -0.345 N 
HETATM    9  H           1     -34.100  -1.391 -13.615  0.00  0.00     0.163 HD
BRANCH   8  10
HETATM   10  C           1     -34.675  -2.801 -12.104  0.00  0.00     0.185 C 
BRANCH  10  11
HETATM   11  C           1     -33.548  -2.593 -11.123  0.00  0.00     0.196 C 
HETATM   12  O           1     -32.450  -3.160 -11.304  0.00  0.00    -0.646 OA
HETATM   13  O           1     -33.714  -1.853 -10.129  0.00  0.00    -0.646 OA
ENDBRANCH  10  11
BRANCH  10  14
HETATM   14  C           1     -34.368  -4.006 -12.984  0.00  0.00     0.039 C 
BRANCH  14  15
HETATM   15 Se           1     -34.829  -5.642 -12.030  0.00  0.00     0.000 Se
HETATM   16  H           1     -35.644  -6.189 -13.126  0.00  0.00     0.000 HD
ENDBRANCH  14  15
ENDBRANCH  10  14
ENDBRANCH   8  10
ENDBRANCH   1   6
BRANCH   1  17
HETATM   17  C           1     -36.772   0.040 -14.963  0.00  0.00     0.044 C 
BRANCH  17  18
HETATM   18  C           1     -35.763   0.001 -16.103  0.00  0.00     0.030 C 
BRANCH  18  19
HETATM   19  C           1     -35.863  -1.335 -16.826  0.00  0.00     0.230 C 
BRANCH  19  20
HETATM   20  N           1     -34.607  -2.123 -16.599  0.00  0.00    -0.079 N 
HETATM   21  H           1     -34.703  -2.688 -15.724  0.00  0.00     0.274 HD
HETATM   22  H           1     -34.444  -2.761 -17.409  0.00  0.00     0.274 HD
HETATM   23  H           1     -33.798  -1.468 -16.502  0.00  0.00     0.274 HD
ENDBRANCH  19  20
ENDBRANCH  18  19
ENDBRANCH  17  18
ENDBRANCH   1  17
TORSDOF 10
ENDMDL
MODEL 8
REMARK VINA RESULT:      -4.4      3.162      5.178
REMARK  10 active torsions:
REMARK  status: ('A' for Active; 'I' for Inactive)
REMARK    1  A    between atoms: N_1  and  C_11 
REMARK    2  A    between atoms: Se_2  and  C_20 
REMARK    3  A    between atoms: N_4  and  C_17 
REMARK    4  A    between atoms: C_6  and  C_23 
REMARK    5  A    between atoms: C_11  and  C_14 
REMARK    6  A    between atoms: C_11  and  C_12 
REMARK    7  A    between atoms: C_12  and  C_21 
REMARK       I    between atoms: C_14  and  N_22 
REMARK    8  A    between atoms: C_17  and  C_21 
REMARK    9  A    between atoms: C_20  and  C_23 
REMARK   10  A    between atoms: N_22  and  C_23 
ROOT
HETATM    1  C           1     -35.787   0.730 -14.161  0.00  0.00     0.274 C 
ENDROOT
BRANCH   1   2
HETATM    2  N           1     -34.291   0.738 -14.285  0.00  0.00    -0.067 N 
HETATM    3  H           1     -33.867   1.028 -13.375  0.00  0.00     0.275 HD
HETATM    4  H           1     -33.957  -0.220 -14.535  0.00  0.00     0.275 HD
HETATM    5  H           1     -34.008   1.414 -15.030  0.00  0.00     0.275 HD
ENDBRANCH   1   2
BRANCH   1   6
HETATM    6  C           1     -36.197  -0.262 -13.100  0.00  0.00     0.249 C 
HETATM    7  O           1     -37.221  -0.890 -13.224  0.00  0.00    -0.271 OA
HETATM    8  N           1     -35.408  -0.450 -11.997  0.00  0.00    -0.345 N 
HETATM    9  H           1     -34.549   0.076 -11.894  0.00  0.00     0.163 HD
BRANCH   8  10
HETATM   10  C           1     -35.802  -1.404 -10.978  0.00  0.00     0.185 C 
BRANCH  10  11
HETATM   11  C           1     -36.469  -0.673  -9.838  0.00  0.00     0.196 C 
HETATM   12  O           1     -37.695  -0.438  -9.880  0.00  0.00    -0.646 OA
HETATM   13  O           1     -35.794  -0.304  -8.853  0.00  0.00    -0.646 OA
ENDBRANCH  10  11
BRANCH  10  14
HETATM   14  C           1     -34.569  -2.133 -10.462  0.00  0.00     0.039 C 
BRANCH  14  15
HETATM   15 Se           1     -34.685  -4.021 -10.934  0.00  0.00     0.000 Se
HETATM   16  H           1     -36.083  -4.163 -10.495  0.00  0.00     0.000 HD
ENDBRANCH  14  15
ENDBRANCH  10  14
ENDBRANCH   8  10
ENDBRANCH   1   6
BRANCH   1  17
HETATM   17  C           1     -36.405   0.333 -15.495  0.00  0.00     0.044 C 
BRANCH  17  18
HETATM   18  C           1     -35.327  -0.247 -16.402  0.00  0.00     0.030 C 
BRANCH  18  19
HETATM   19  C           1     -35.715  -1.661 -16.812  0.00  0.00     0.230 C 
BRANCH  19  20
HETATM   20  N           1     -34.488  -2.522 -16.859  0.00  0.00    -0.079 N 
HETATM   21  H           1     -33.639  -1.917 -16.934  0.00  0.00     0.274 HD
HETATM   22  H           1     -34.430  -3.094 -15.986  0.00  0.00     0.274 HD
HETATM   23  H           1     -34.538  -3.156 -17.688  0.00  0.00     0.274 HD
ENDBRANCH  19  20
ENDBRANCH  18  19
ENDBRANCH  17  18
ENDBRANCH   1  17
TORSDOF 10
ENDMDL
MODEL 9
REMARK VINA RESULT:      -4.3     15.552     17.579
REMARK  10 active torsions:
REMARK  status: ('A' for Active; 'I' for Inactive)
REMARK    1  A    between atoms: N_1  and  C_11 
REMARK    2  A    between atoms: Se_2  and  C_20 
REMARK    3  A    between atoms: N_4  and  C_17 
REMARK    4  A    between atoms: C_6  and  C_23 
REMARK    5  A    between atoms: C_11  and  C_14 
REMARK    6  A    between atoms: C_11  and  C_12 
REMARK    7  A    between atoms: C_12  and  C_21 
REMARK       I    between atoms: C_14  and  N_22 
REMARK    8  A    between atoms: C_17  and  C_21 
REMARK    9  A    between atoms: C_20  and  C_23 
REMARK   10  A    between atoms: N_22  and  C_23 
ROOT
HETATM    1  C           1     -20.392  -6.041  -5.627  0.00  0.00     0.274 C 
ENDROOT
BRANCH   1   2
HETATM    2  N           1     -19.830  -6.908  -6.715  0.00  0.00    -0.067 N 
HETATM    3  H           1     -20.591  -7.165  -7.384  0.00  0.00     0.275 HD
HETATM    4  H           1     -19.081  -6.387  -7.224  0.00  0.00     0.275 HD
HETATM    5  H           1     -19.429  -7.777  -6.295  0.00  0.00     0.275 HD
ENDBRANCH   1   2
BRANCH   1   6
HETATM    6  C           1     -21.244  -6.880  -4.707  0.00  0.00     0.249 C 
HETATM    7  O           1     -22.404  -7.083  -4.976  0.00  0.00    -0.271 OA
HETATM    8  N           1     -20.703  -7.412  -3.567  0.00  0.00    -0.345 N 
HETATM    9  H           1     -19.730  -7.242  -3.342  0.00  0.00     0.163 HD
BRANCH   8  10
HETATM   10  C           1     -21.522  -8.219  -2.684  0.00  0.00     0.185 C 
BRANCH  10  11
HETATM   11  C           1     -21.814  -7.443  -1.423  0.00  0.00     0.196 C 
HETATM   12  O           1     -21.296  -7.792  -0.341  0.00  0.00    -0.646 OA
HETATM   13  O           1     -22.575  -6.451  -1.461  0.00  0.00    -0.646 OA
ENDBRANCH  10  11
BRANCH  10  14
HETATM   14  C           1     -20.777  -9.500  -2.331  0.00  0.00     0.039 C 
BRANCH  14  15
HETATM   15 Se           1     -18.941  -9.382  -2.976  0.00  0.00     0.000 Se
HETATM   16  H           1     -19.319  -8.892  -4.311  0.00  0.00     0.000 HD
ENDBRANCH  14  15
ENDBRANCH  10  14
ENDBRANCH   8  10
ENDBRANCH   1   6
BRANCH   1  17
HETATM   17  C           1     -21.243  -4.939  -6.245  0.00  0.00     0.044 C 
BRANCH  17  18
HETATM   18  C           1     -21.313  -5.136  -7.753  0.00  0.00     0.030 C 
BRANCH  18  19
HETATM   19  C           1     -22.247  -4.097  -8.360  0.00  0.00     0.230 C 
BRANCH  19  20
HETATM   20  N           1     -23.584  -4.172  -7.686  0.00  0.00    -0.079 N 
HETATM   21  H           1     -24.059  -3.242  -7.746  0.00  0.00     0.274 HD
HETATM   22  H           1     -24.173  -4.894  -8.159  0.00  0.00     0.274 HD
HETATM   23  H           1     -23.454  -4.432  -6.682  0.00  0.00     0.274 HD
ENDBRANCH  19  20
ENDBRANCH  18  19
ENDBRANCH  17  18
ENDBRANCH   1  17
TORSDOF 10
ENDMDL
