MODEL 1
REMARK VINA RESULT:      -6.0      0.000      0.000
REMARK  11 active torsions:
REMARK  status: ('A' for Active; 'I' for Inactive)
REMARK    1  A    between atoms: N_2  and  C_3 
REMARK    2  A    between atoms: C_3  and  C_5 
REMARK    3  A    between atoms: C_4  and  C_12 
REMARK    4  A    between atoms: C_4  and  C_14 
REMARK    5  A    between atoms: C_4  and  N_8 
REMARK    6  A    between atoms: C_5  and  C_6 
REMARK    7  A    between atoms: C_6  and  C_12 
REMARK       I    between atoms: N_8  and  C_9 
REMARK    8  A    between atoms: C_9  and  C_10 
REMARK    9  A    between atoms: C_10  and  C_11 
REMARK   10  A    between atoms: C_10  and  N_19 
REMARK   11  A    between atoms: C_11  and  C_24 
ROOT
HETATM    1  H           1     -22.470  -6.187  -7.994  0.00  0.00     0.163 HD
HETATM    2  N           1     -22.061  -5.331  -7.643  0.00  0.00    -0.345 N 
HETATM    3  C           1     -22.328  -4.140  -8.265  0.00  0.00     0.249 C 
HETATM    4  O           1     -21.840  -3.118  -7.846  0.00  0.00    -0.271 OA
ENDROOT
BRANCH   2   5
HETATM    5  C           1     -21.193  -5.365  -6.482  0.00  0.00     0.185 C 
BRANCH   5   6
HETATM    6  C           1     -21.686  -6.428  -5.510  0.00  0.00     0.036 C 
BRANCH   6   7
HETATM    7  C           1     -21.192  -6.104  -4.107  0.00  0.00     0.004 C 
BRANCH   7   8
HETATM    8  C           1     -21.069  -7.390  -3.301  0.00  0.00     0.027 C 
BRANCH   8   9
HETATM    9  C           1     -21.675  -7.183  -1.919  0.00  0.00     0.229 C 
BRANCH   9  10
HETATM   10  N           1     -22.337  -5.838  -1.859  0.00  0.00    -0.079 N 
HETATM   11  H           1     -21.910  -5.206  -2.573  0.00  0.00     0.274 HD
HETATM   12  H           1     -23.359  -5.944  -2.055  0.00  0.00     0.274 HD
HETATM   13  H           1     -22.206  -5.428  -0.907  0.00  0.00     0.274 HD
ENDBRANCH   9  10
ENDBRANCH   8   9
ENDBRANCH   7   8
ENDBRANCH   6   7
ENDBRANCH   5   6
BRANCH   5  14
HETATM   14  C           1     -19.786  -5.694  -6.917  0.00  0.00     0.196 C 
HETATM   15  O           1     -18.984  -4.774  -7.189  0.00  0.00    -0.646 OA
HETATM   16  O           1     -19.422  -6.886  -7.005  0.00  0.00    -0.646 OA
ENDBRANCH   5  14
ENDBRANCH   2   5
BRANCH   3  17
HETATM   17  C           1     -23.231  -4.106  -9.473  0.00  0.00     0.278 C 
BRANCH  17  18
HETATM   18  C           1     -22.529  -3.380 -10.612  0.00  0.00     0.021 C 
HETATM   19  C           1     -21.504  -4.307 -11.251  0.00  0.00     0.012 C 
BRANCH  18  20
HETATM   20  C           1     -23.555  -2.962 -11.657  0.00  0.00     0.002 C 
HETATM   21  C           1     -22.915  -2.989 -13.038  0.00  0.00     0.005 C 
ENDBRANCH  18  20
ENDBRANCH  17  18
BRANCH  17  22
HETATM   22  N           1     -24.500  -3.383  -9.127  0.00  0.00    -0.066 N 
HETATM   23  H           1     -24.758  -3.587  -8.135  0.00  0.00     0.275 HD
HETATM   24  H           1     -25.268  -3.705  -9.758  0.00  0.00     0.275 HD
HETATM   25  H           1     -24.358  -2.354  -9.244  0.00  0.00     0.275 HD
ENDBRANCH  17  22
ENDBRANCH   3  17
TORSDOF 11
ENDMDL
MODEL 2
REMARK VINA RESULT:      -5.9      1.647      2.228
REMARK  11 active torsions:
REMARK  status: ('A' for Active; 'I' for Inactive)
REMARK    1  A    between atoms: N_2  and  C_3 
REMARK    2  A    between atoms: C_3  and  C_5 
REMARK    3  A    between atoms: C_4  and  C_12 
REMARK    4  A    between atoms: C_4  and  C_14 
REMARK    5  A    between atoms: C_4  and  N_8 
REMARK    6  A    between atoms: C_5  and  C_6 
REMARK    7  A    between atoms: C_6  and  C_12 
REMARK       I    between atoms: N_8  and  C_9 
REMARK    8  A    between atoms: C_9  and  C_10 
REMARK    9  A    between atoms: C_10  and  C_11 
REMARK   10  A    between atoms: C_10  and  N_19 
REMARK   11  A    between atoms: C_11  and  C_24 
ROOT
HETATM    1  H           1     -22.226  -6.926  -6.654  0.00  0.00     0.163 HD
HETATM    2  N           1     -21.655  -6.192  -6.258  0.00  0.00    -0.345 N 
HETATM    3  C           1     -21.537  -4.991  -6.906  0.00  0.00     0.249 C 
HETATM    4  O           1     -20.854  -4.114  -6.433  0.00  0.00    -0.271 OA
ENDROOT
BRANCH   2   5
HETATM    5  C           1     -20.960  -6.410  -5.004  0.00  0.00     0.185 C 
BRANCH   5   6
HETATM    6  C           1     -21.976  -6.665  -3.899  0.00  0.00     0.036 C 
BRANCH   6   7
HETATM    7  C           1     -21.494  -6.022  -2.606  0.00  0.00     0.004 C 
BRANCH   7   8
HETATM    8  C           1     -22.307  -6.560  -1.436  0.00  0.00     0.027 C 
BRANCH   8   9
HETATM    9  C           1     -21.889  -7.997  -1.146  0.00  0.00     0.229 C 
BRANCH   9  10
HETATM   10  N           1     -20.396  -8.112  -1.231  0.00  0.00    -0.079 N 
HETATM   11  H           1     -20.118  -9.114  -1.135  0.00  0.00     0.274 HD
HETATM   12  H           1     -20.071  -7.747  -2.155  0.00  0.00     0.274 HD
HETATM   13  H           1     -19.960  -7.554  -0.463  0.00  0.00     0.274 HD
ENDBRANCH   9  10
ENDBRANCH   8   9
ENDBRANCH   7   8
ENDBRANCH   6   7
ENDBRANCH   5   6
BRANCH   5  14
HETATM   14  C           1     -20.049  -7.606  -5.136  0.00  0.00     0.196 C 
HETATM   15  O           1     -19.902  -8.388  -4.173  0.00  0.00    -0.646 OA
HETATM   16  O           1     -19.443  -7.815  -6.209  0.00  0.00    -0.646 OA
ENDBRANCH   5  14
ENDBRANCH   2   5
BRANCH   3  17
HETATM   17  C           1     -22.260  -4.764  -8.211  0.00  0.00     0.278 C 
BRANCH  17  18
HETATM   18  C           1     -21.387  -3.927  -9.137  0.00  0.00     0.021 C 
HETATM   19  C           1     -20.174  -4.741  -9.565  0.00  0.00     0.012 C 
BRANCH  18  20
HETATM   20  C           1     -22.190  -3.529 -10.368  0.00  0.00     0.002 C 
HETATM   21  C           1     -21.406  -3.885 -11.624  0.00  0.00     0.005 C 
ENDBRANCH  18  20
ENDBRANCH  17  18
BRANCH  17  22
HETATM   22  N           1     -23.548  -4.040  -7.949  0.00  0.00    -0.066 N 
HETATM   23  H           1     -23.651  -3.255  -8.630  0.00  0.00     0.275 HD
HETATM   24  H           1     -23.540  -3.657  -6.976  0.00  0.00     0.275 HD
HETATM   25  H           1     -24.348  -4.703  -8.057  0.00  0.00     0.275 HD
ENDBRANCH  17  22
ENDBRANCH   3  17
TORSDOF 11
ENDMDL
MODEL 3
REMARK VINA RESULT:      -5.8      1.813      7.240
REMARK  11 active torsions:
REMARK  status: ('A' for Active; 'I' for Inactive)
REMARK    1  A    between atoms: N_2  and  C_3 
REMARK    2  A    between atoms: C_3  and  C_5 
REMARK    3  A    between atoms: C_4  and  C_12 
REMARK    4  A    between atoms: C_4  and  C_14 
REMARK    5  A    between atoms: C_4  and  N_8 
REMARK    6  A    between atoms: C_5  and  C_6 
REMARK    7  A    between atoms: C_6  and  C_12 
REMARK       I    between atoms: N_8  and  C_9 
REMARK    8  A    between atoms: C_9  and  C_10 
REMARK    9  A    between atoms: C_10  and  C_11 
REMARK   10  A    between atoms: C_10  and  N_19 
REMARK   11  A    between atoms: C_11  and  C_24 
ROOT
HETATM    1  H           1     -20.519  -4.630  -4.426  0.00  0.00     0.163 HD
HETATM    2  N           1     -20.938  -5.405  -4.923  0.00  0.00    -0.345 N 
HETATM    3  C           1     -21.397  -6.495  -4.232  0.00  0.00     0.249 C 
HETATM    4  O           1     -21.897  -7.420  -4.826  0.00  0.00    -0.271 OA
ENDROOT
BRANCH   2   5
HETATM    5  C           1     -21.050  -5.363  -6.368  0.00  0.00     0.185 C 
BRANCH   5   6
HETATM    6  C           1     -21.538  -3.986  -6.799  0.00  0.00     0.036 C 
BRANCH   6   7
HETATM    7  C           1     -22.044  -4.052  -8.234  0.00  0.00     0.004 C 
BRANCH   7   8
HETATM    8  C           1     -23.566  -4.056  -8.236  0.00  0.00     0.027 C 
BRANCH   8   9
HETATM    9  C           1     -24.071  -4.217  -9.665  0.00  0.00     0.229 C 
BRANCH   9  10
HETATM   10  N           1     -25.448  -3.633  -9.779  0.00  0.00    -0.079 N 
HETATM   11  H           1     -25.593  -2.931  -9.018  0.00  0.00     0.274 HD
HETATM   12  H           1     -25.551  -3.164 -10.707  0.00  0.00     0.274 HD
HETATM   13  H           1     -26.158  -4.394  -9.691  0.00  0.00     0.274 HD
ENDBRANCH   9  10
ENDBRANCH   8   9
ENDBRANCH   7   8
ENDBRANCH   6   7
ENDBRANCH   5   6
BRANCH   5  14
HETATM   14  C           1     -19.700  -5.635  -6.985  0.00  0.00     0.196 C 
HETATM   15  O           1     -19.334  -6.812  -7.193  0.00  0.00    -0.646 OA
HETATM   16  O           1     -18.948  -4.684  -7.288  0.00  0.00    -0.646 OA
ENDBRANCH   5  14
ENDBRANCH   2   5
BRANCH   3  17
HETATM   17  C           1     -21.280  -6.538  -2.728  0.00  0.00     0.278 C 
BRANCH  17  18
HETATM   18  C           1     -21.412  -7.977  -2.250  0.00  0.00     0.021 C 
HETATM   19  C           1     -20.027  -8.593  -2.100  0.00  0.00     0.012 C 
BRANCH  18  20
HETATM   20  C           1     -22.125  -8.002  -0.904  0.00  0.00     0.002 C 
HETATM   21  C           1     -22.476  -9.438  -0.540  0.00  0.00     0.005 C 
ENDBRANCH  18  20
ENDBRANCH  17  18
BRANCH  17  22
HETATM   22  N           1     -22.371  -5.707  -2.118  0.00  0.00    -0.066 N 
HETATM   23  H           1     -21.968  -4.810  -1.763  0.00  0.00     0.275 HD
HETATM   24  H           1     -22.806  -6.230  -1.325  0.00  0.00     0.275 HD
HETATM   25  H           1     -23.097  -5.501  -2.840  0.00  0.00     0.275 HD
ENDBRANCH  17  22
ENDBRANCH   3  17
TORSDOF 11
ENDMDL
MODEL 4
REMARK VINA RESULT:      -5.8     11.761     13.362
REMARK  11 active torsions:
REMARK  status: ('A' for Active; 'I' for Inactive)
REMARK    1  A    between atoms: N_2  and  C_3 
REMARK    2  A    between atoms: C_3  and  C_5 
REMARK    3  A    between atoms: C_4  and  C_12 
REMARK    4  A    between atoms: C_4  and  C_14 
REMARK    5  A    between atoms: C_4  and  N_8 
REMARK    6  A    between atoms: C_5  and  C_6 
REMARK    7  A    between atoms: C_6  and  C_12 
REMARK       I    between atoms: N_8  and  C_9 
REMARK    8  A    between atoms: C_9  and  C_10 
REMARK    9  A    between atoms: C_10  and  C_11 
REMARK   10  A    between atoms: C_10  and  N_19 
REMARK   11  A    between atoms: C_11  and  C_24 
ROOT
HETATM    1  H           1     -27.547  -7.182 -19.062  0.00  0.00     0.163 HD
HETATM    2  N           1     -27.401  -6.690 -18.191  0.00  0.00    -0.345 N 
HETATM    3  C           1     -26.143  -6.277 -17.840  0.00  0.00     0.249 C 
HETATM    4  O           1     -25.970  -5.689 -16.799  0.00  0.00    -0.271 OA
ENDROOT
BRANCH   2   5
HETATM    5  C           1     -28.524  -6.423 -17.312  0.00  0.00     0.185 C 
BRANCH   5   6
HETATM    6  C           1     -29.789  -6.257 -18.143  0.00  0.00     0.036 C 
BRANCH   6   7
HETATM    7  C           1     -30.979  -6.032 -17.219  0.00  0.00     0.004 C 
BRANCH   7   8
HETATM    8  C           1     -31.364  -4.560 -17.235  0.00  0.00     0.027 C 
BRANCH   8   9
HETATM    9  C           1     -32.756  -4.393 -16.637  0.00  0.00     0.229 C 
BRANCH   9  10
HETATM   10  N           1     -33.465  -3.265 -17.325  0.00  0.00    -0.079 N 
HETATM   11  H           1     -34.112  -3.651 -18.050  0.00  0.00     0.274 HD
HETATM   12  H           1     -34.015  -2.720 -16.623  0.00  0.00     0.274 HD
HETATM   13  H           1     -32.764  -2.639 -17.782  0.00  0.00     0.274 HD
ENDBRANCH   9  10
ENDBRANCH   8   9
ENDBRANCH   7   8
ENDBRANCH   6   7
ENDBRANCH   5   6
BRANCH   5  14
HETATM   14  C           1     -28.698  -7.577 -16.356  0.00  0.00     0.196 C 
HETATM   15  O           1     -29.307  -8.605 -16.722  0.00  0.00    -0.646 OA
HETATM   16  O           1     -28.233  -7.505 -15.198  0.00  0.00    -0.646 OA
ENDBRANCH   5  14
ENDBRANCH   2   5
BRANCH   3  17
HETATM   17  C           1     -24.975  -6.554 -18.753  0.00  0.00     0.278 C 
BRANCH  17  18
HETATM   18  C           1     -25.489  -7.056 -20.096  0.00  0.00     0.021 C 
HETATM   19  C           1     -25.635  -5.882 -21.055  0.00  0.00     0.012 C 
BRANCH  18  20
HETATM   20  C           1     -24.502  -8.061 -20.673  0.00  0.00     0.002 C 
HETATM   21  C           1     -24.284  -7.770 -22.152  0.00  0.00     0.005 C 
ENDBRANCH  18  20
ENDBRANCH  17  18
BRANCH  17  22
HETATM   22  N           1     -24.094  -7.599 -18.134  0.00  0.00    -0.066 N 
HETATM   23  H           1     -23.338  -7.861 -18.806  0.00  0.00     0.275 HD
HETATM   24  H           1     -24.664  -8.445 -17.905  0.00  0.00     0.275 HD
HETATM   25  H           1     -23.666  -7.220 -17.260  0.00  0.00     0.275 HD
ENDBRANCH  17  22
ENDBRANCH   3  17
TORSDOF 11
ENDMDL
MODEL 5
REMARK VINA RESULT:      -5.5      2.377      3.558
REMARK  11 active torsions:
REMARK  status: ('A' for Active; 'I' for Inactive)
REMARK    1  A    between atoms: N_2  and  C_3 
REMARK    2  A    between atoms: C_3  and  C_5 
REMARK    3  A    between atoms: C_4  and  C_12 
REMARK    4  A    between atoms: C_4  and  C_14 
REMARK    5  A    between atoms: C_4  and  N_8 
REMARK    6  A    between atoms: C_5  and  C_6 
REMARK    7  A    between atoms: C_6  and  C_12 
REMARK       I    between atoms: N_8  and  C_9 
REMARK    8  A    between atoms: C_9  and  C_10 
REMARK    9  A    between atoms: C_10  and  C_11 
REMARK   10  A    between atoms: C_10  and  N_19 
REMARK   11  A    between atoms: C_11  and  C_24 
ROOT
HETATM    1  H           1     -20.956  -8.035  -6.514  0.00  0.00     0.163 HD
HETATM    2  N           1     -20.813  -7.535  -5.646  0.00  0.00    -0.345 N 
HETATM    3  C           1     -21.082  -6.194  -5.575  0.00  0.00     0.249 C 
HETATM    4  O           1     -20.911  -5.598  -4.539  0.00  0.00    -0.271 OA
ENDROOT
BRANCH   2   5
HETATM    5  C           1     -20.324  -8.239  -4.477  0.00  0.00     0.185 C 
BRANCH   5   6
HETATM    6  C           1     -21.343  -9.288  -4.052  0.00  0.00     0.036 C 
BRANCH   6   7
HETATM    7  C           1     -21.636  -9.140  -2.565  0.00  0.00     0.004 C 
BRANCH   7   8
HETATM    8  C           1     -20.976  -7.872  -2.040  0.00  0.00     0.027 C 
BRANCH   8   9
HETATM    9  C           1     -22.000  -7.046  -1.272  0.00  0.00     0.229 C 
BRANCH   9  10
HETATM   10  N           1     -22.404  -5.859  -2.095  0.00  0.00    -0.079 N 
HETATM   11  H           1     -22.163  -4.981  -1.582  0.00  0.00     0.274 HD
HETATM   12  H           1     -21.896  -5.879  -3.008  0.00  0.00     0.274 HD
HETATM   13  H           1     -23.434  -5.890  -2.268  0.00  0.00     0.274 HD
ENDBRANCH   9  10
ENDBRANCH   8   9
ENDBRANCH   7   8
ENDBRANCH   6   7
ENDBRANCH   5   6
BRANCH   5  14
HETATM   14  C           1     -19.016  -8.915  -4.809  0.00  0.00     0.196 C 
HETATM   15  O           1     -18.287  -9.350  -3.891  0.00  0.00    -0.646 OA
HETATM   16  O           1     -18.662  -9.041  -6.001  0.00  0.00    -0.646 OA
ENDBRANCH   5  14
ENDBRANCH   2   5
BRANCH   3  17
HETATM   17  C           1     -21.592  -5.462  -6.792  0.00  0.00     0.278 C 
BRANCH  17  18
HETATM   18  C           1     -20.691  -4.269  -7.081  0.00  0.00     0.021 C 
HETATM   19  C           1     -19.279  -4.758  -7.376  0.00  0.00     0.012 C 
BRANCH  18  20
HETATM   20  C           1     -21.226  -3.510  -8.288  0.00  0.00     0.002 C 
HETATM   21  C           1     -20.914  -4.289  -9.559  0.00  0.00     0.005 C 
ENDBRANCH  18  20
ENDBRANCH  17  18
BRANCH  17  22
HETATM   22  N           1     -22.990  -4.981  -6.536  0.00  0.00    -0.066 N 
HETATM   23  H           1     -23.208  -4.186  -7.177  0.00  0.00     0.275 HD
HETATM   24  H           1     -23.072  -4.660  -5.544  0.00  0.00     0.275 HD
HETATM   25  H           1     -23.663  -5.761  -6.707  0.00  0.00     0.275 HD
ENDBRANCH  17  22
ENDBRANCH   3  17
TORSDOF 11
ENDMDL
MODEL 6
REMARK VINA RESULT:      -5.4      3.186      4.360
REMARK  11 active torsions:
REMARK  status: ('A' for Active; 'I' for Inactive)
REMARK    1  A    between atoms: N_2  and  C_3 
REMARK    2  A    between atoms: C_3  and  C_5 
REMARK    3  A    between atoms: C_4  and  C_12 
REMARK    4  A    between atoms: C_4  and  C_14 
REMARK    5  A    between atoms: C_4  and  N_8 
REMARK    6  A    between atoms: C_5  and  C_6 
REMARK    7  A    between atoms: C_6  and  C_12 
REMARK       I    between atoms: N_8  and  C_9 
REMARK    8  A    between atoms: C_9  and  C_10 
REMARK    9  A    between atoms: C_10  and  C_11 
REMARK   10  A    between atoms: C_10  and  N_19 
REMARK   11  A    between atoms: C_11  and  C_24 
ROOT
HETATM    1  H           1     -19.978  -6.318  -5.055  0.00  0.00     0.163 HD
HETATM    2  N           1     -20.988  -6.361  -5.054  0.00  0.00    -0.345 N 
HETATM    3  C           1     -21.710  -5.521  -5.859  0.00  0.00     0.249 C 
HETATM    4  O           1     -22.917  -5.572  -5.857  0.00  0.00    -0.271 OA
ENDROOT
BRANCH   2   5
HETATM    5  C           1     -21.673  -7.313  -4.200  0.00  0.00     0.185 C 
BRANCH   5   6
HETATM    6  C           1     -20.982  -8.667  -4.294  0.00  0.00     0.036 C 
BRANCH   6   7
HETATM    7  C           1     -19.672  -8.518  -5.056  0.00  0.00     0.004 C 
BRANCH   7   8
HETATM    8  C           1     -18.581  -9.313  -4.352  0.00  0.00     0.027 C 
BRANCH   8   9
HETATM    9  C           1     -17.701  -9.997  -5.391  0.00  0.00     0.229 C 
BRANCH   9  10
HETATM   10  N           1     -18.562 -10.570  -6.478  0.00  0.00    -0.079 N 
HETATM   11  H           1     -19.100 -11.384  -6.104  0.00  0.00     0.274 HD
HETATM   12  H           1     -19.228  -9.839  -6.816  0.00  0.00     0.274 HD
HETATM   13  H           1     -17.958 -10.885  -7.270  0.00  0.00     0.274 HD
ENDBRANCH   9  10
ENDBRANCH   8   9
ENDBRANCH   7   8
ENDBRANCH   6   7
ENDBRANCH   5   6
BRANCH   5  14
HETATM   14  C           1     -21.632  -6.825  -2.772  0.00  0.00     0.196 C 
HETATM   15  O           1     -22.405  -5.916  -2.400  0.00  0.00    -0.646 OA
HETATM   16  O           1     -20.826  -7.330  -1.962  0.00  0.00    -0.646 OA
ENDBRANCH   5  14
ENDBRANCH   2   5
BRANCH   3  17
HETATM   17  C           1     -20.999  -4.531  -6.748  0.00  0.00     0.278 C 
BRANCH  17  18
HETATM   18  C           1     -21.360  -4.802  -8.201  0.00  0.00     0.021 C 
HETATM   19  C           1     -22.355  -3.753  -8.682  0.00  0.00     0.012 C 
BRANCH  18  20
HETATM   20  C           1     -20.103  -4.737  -9.058  0.00  0.00     0.002 C 
HETATM   21  C           1     -20.476  -4.345 -10.481  0.00  0.00     0.005 C 
ENDBRANCH  18  20
ENDBRANCH  17  18
BRANCH  17  22
HETATM   22  N           1     -19.516  -4.674  -6.567  0.00  0.00    -0.066 N 
HETATM   23  H           1     -19.041  -4.583  -7.493  0.00  0.00     0.275 HD
HETATM   24  H           1     -19.304  -5.612  -6.159  0.00  0.00     0.275 HD
HETATM   25  H           1     -19.170  -3.927  -5.924  0.00  0.00     0.275 HD
ENDBRANCH  17  22
ENDBRANCH   3  17
TORSDOF 11
ENDMDL
MODEL 7
REMARK VINA RESULT:      -5.4      4.146      7.037
REMARK  11 active torsions:
REMARK  status: ('A' for Active; 'I' for Inactive)
REMARK    1  A    between atoms: N_2  and  C_3 
REMARK    2  A    between atoms: C_3  and  C_5 
REMARK    3  A    between atoms: C_4  and  C_12 
REMARK    4  A    between atoms: C_4  and  C_14 
REMARK    5  A    between atoms: C_4  and  N_8 
REMARK    6  A    between atoms: C_5  and  C_6 
REMARK    7  A    between atoms: C_6  and  C_12 
REMARK       I    between atoms: N_8  and  C_9 
REMARK    8  A    between atoms: C_9  and  C_10 
REMARK    9  A    between atoms: C_10  and  C_11 
REMARK   10  A    between atoms: C_10  and  N_19 
REMARK   11  A    between atoms: C_11  and  C_24 
ROOT
HETATM    1  H           1     -19.415  -7.314  -4.488  0.00  0.00     0.163 HD
HETATM    2  N           1     -20.242  -7.814  -4.786  0.00  0.00    -0.345 N 
HETATM    3  C           1     -20.148  -9.126  -5.168  0.00  0.00     0.249 C 
HETATM    4  O           1     -21.135  -9.724  -5.525  0.00  0.00    -0.271 OA
ENDROOT
BRANCH   2   5
HETATM    5  C           1     -21.527  -7.143  -4.811  0.00  0.00     0.185 C 
BRANCH   5   6
HETATM    6  C           1     -21.678  -6.292  -3.557  0.00  0.00     0.036 C 
BRANCH   6   7
HETATM    7  C           1     -21.280  -7.110  -2.335  0.00  0.00     0.004 C 
BRANCH   7   8
HETATM    8  C           1     -22.245  -6.823  -1.194  0.00  0.00     0.027 C 
BRANCH   8   9
HETATM    9  C           1     -22.278  -8.014  -0.245  0.00  0.00     0.229 C 
BRANCH   9  10
HETATM   10  N           1     -23.530  -7.964   0.580  0.00  0.00    -0.079 N 
HETATM   11  H           1     -23.974  -8.910   0.599  0.00  0.00     0.274 HD
HETATM   12  H           1     -23.293  -7.671   1.555  0.00  0.00     0.274 HD
HETATM   13  H           1     -24.195  -7.276   0.161  0.00  0.00     0.274 HD
ENDBRANCH   9  10
ENDBRANCH   8   9
ENDBRANCH   7   8
ENDBRANCH   6   7
ENDBRANCH   5   6
BRANCH   5  14
HETATM   14  C           1     -21.609  -6.259  -6.031  0.00  0.00     0.196 C 
HETATM   15  O           1     -22.377  -5.273  -6.038  0.00  0.00    -0.646 OA
HETATM   16  O           1     -20.908  -6.513  -7.035  0.00  0.00    -0.646 OA
ENDBRANCH   5  14
ENDBRANCH   2   5
BRANCH   3  17
HETATM   17  C           1     -18.810  -9.825  -5.143  0.00  0.00     0.278 C 
BRANCH  17  18
HETATM   18  C           1     -18.075  -9.467  -3.859  0.00  0.00     0.021 C 
HETATM   19  C           1     -18.664 -10.257  -2.698  0.00  0.00     0.012 C 
BRANCH  18  20
HETATM   20  C           1     -16.599  -9.811  -4.008  0.00  0.00     0.002 C 
HETATM   21  C           1     -15.874  -9.521  -2.700  0.00  0.00     0.005 C 
ENDBRANCH  18  20
ENDBRANCH  17  18
BRANCH  17  22
HETATM   22  N           1     -17.996  -9.387  -6.325  0.00  0.00    -0.066 N 
HETATM   23  H           1     -17.101  -8.962  -5.993  0.00  0.00     0.275 HD
HETATM   24  H           1     -18.534  -8.680  -6.875  0.00  0.00     0.275 HD
HETATM   25  H           1     -17.786 -10.214  -6.928  0.00  0.00     0.275 HD
ENDBRANCH  17  22
ENDBRANCH   3  17
TORSDOF 11
ENDMDL
MODEL 8
REMARK VINA RESULT:      -5.1      4.802      8.241
REMARK  11 active torsions:
REMARK  status: ('A' for Active; 'I' for Inactive)
REMARK    1  A    between atoms: N_2  and  C_3 
REMARK    2  A    between atoms: C_3  and  C_5 
REMARK    3  A    between atoms: C_4  and  C_12 
REMARK    4  A    between atoms: C_4  and  C_14 
REMARK    5  A    between atoms: C_4  and  N_8 
REMARK    6  A    between atoms: C_5  and  C_6 
REMARK    7  A    between atoms: C_6  and  C_12 
REMARK       I    between atoms: N_8  and  C_9 
REMARK    8  A    between atoms: C_9  and  C_10 
REMARK    9  A    between atoms: C_10  and  C_11 
REMARK   10  A    between atoms: C_10  and  N_19 
REMARK   11  A    between atoms: C_11  and  C_24 
ROOT
HETATM    1  H           1     -22.560  -7.481  -2.821  0.00  0.00     0.163 HD
HETATM    2  N           1     -21.563  -7.624  -2.918  0.00  0.00    -0.345 N 
HETATM    3  C           1     -20.814  -7.988  -1.831  0.00  0.00     0.249 C 
HETATM    4  O           1     -19.624  -8.159  -1.947  0.00  0.00    -0.271 OA
ENDROOT
BRANCH   2   5
HETATM    5  C           1     -20.927  -7.443  -4.209  0.00  0.00     0.185 C 
BRANCH   5   6
HETATM    6  C           1     -21.292  -8.606  -5.121  0.00  0.00     0.036 C 
BRANCH   6   7
HETATM    7  C           1     -20.208  -9.673  -5.044  0.00  0.00     0.004 C 
BRANCH   7   8
HETATM    8  C           1     -18.846  -9.032  -5.277  0.00  0.00     0.027 C 
BRANCH   8   9
HETATM    9  C           1     -17.761  -9.910  -4.666  0.00  0.00     0.229 C 
BRANCH   9  10
HETATM   10  N           1     -17.459  -9.438  -3.275  0.00  0.00    -0.079 N 
HETATM   11  H           1     -18.353  -9.285  -2.756  0.00  0.00     0.274 HD
HETATM   12  H           1     -16.888 -10.159  -2.779  0.00  0.00     0.274 HD
HETATM   13  H           1     -16.925  -8.541  -3.320  0.00  0.00     0.274 HD
ENDBRANCH   9  10
ENDBRANCH   8   9
ENDBRANCH   7   8
ENDBRANCH   6   7
ENDBRANCH   5   6
BRANCH   5  14
HETATM   14  C           1     -21.403  -6.150  -4.826  0.00  0.00     0.196 C 
HETATM   15  O           1     -20.595  -5.218  -5.023  0.00  0.00    -0.646 OA
HETATM   16  O           1     -22.605  -6.013  -5.140  0.00  0.00    -0.646 OA
ENDBRANCH   5  14
ENDBRANCH   2   5
BRANCH   3  17
HETATM   17  C           1     -21.476  -8.177  -0.488  0.00  0.00     0.278 C 
BRANCH  17  18
HETATM   18  C           1     -21.928  -9.623  -0.343  0.00  0.00     0.021 C 
HETATM   19  C           1     -21.098 -10.310   0.734  0.00  0.00     0.012 C 
BRANCH  18  20
HETATM   20  C           1     -23.398  -9.658   0.051  0.00  0.00     0.002 C 
HETATM   21  C           1     -23.964 -11.047  -0.215  0.00  0.00     0.005 C 
ENDBRANCH  18  20
ENDBRANCH  17  18
BRANCH  17  22
HETATM   22  N           1     -22.667  -7.269  -0.386  0.00  0.00    -0.066 N 
HETATM   23  H           1     -22.344  -6.289  -0.214  0.00  0.00     0.275 HD
HETATM   24  H           1     -23.274  -7.578   0.406  0.00  0.00     0.275 HD
HETATM   25  H           1     -23.209  -7.305  -1.278  0.00  0.00     0.275 HD
ENDBRANCH  17  22
ENDBRANCH   3  17
TORSDOF 11
ENDMDL
MODEL 9
REMARK VINA RESULT:      -5.1      3.956      8.331
REMARK  11 active torsions:
REMARK  status: ('A' for Active; 'I' for Inactive)
REMARK    1  A    between atoms: N_2  and  C_3 
REMARK    2  A    between atoms: C_3  and  C_5 
REMARK    3  A    between atoms: C_4  and  C_12 
REMARK    4  A    between atoms: C_4  and  C_14 
REMARK    5  A    between atoms: C_4  and  N_8 
REMARK    6  A    between atoms: C_5  and  C_6 
REMARK    7  A    between atoms: C_6  and  C_12 
REMARK       I    between atoms: N_8  and  C_9 
REMARK    8  A    between atoms: C_9  and  C_10 
REMARK    9  A    between atoms: C_10  and  C_11 
REMARK   10  A    between atoms: C_10  and  N_19 
REMARK   11  A    between atoms: C_11  and  C_24 
ROOT
HETATM    1  H           1     -21.103  -9.134  -2.329  0.00  0.00     0.163 HD
HETATM    2  N           1     -21.561  -8.253  -2.521  0.00  0.00    -0.345 N 
HETATM    3  C           1     -22.135  -7.544  -1.499  0.00  0.00     0.249 C 
HETATM    4  O           1     -22.682  -6.492  -1.727  0.00  0.00    -0.271 OA
ENDROOT
BRANCH   2   5
HETATM    5  C           1     -21.611  -7.741  -3.876  0.00  0.00     0.185 C 
BRANCH   5   6
HETATM    6  C           1     -20.555  -6.657  -4.048  0.00  0.00     0.036 C 
BRANCH   6   7
HETATM    7  C           1     -21.130  -5.513  -4.873  0.00  0.00     0.004 C 
BRANCH   7   8
HETATM    8  C           1     -20.008  -4.822  -5.636  0.00  0.00     0.027 C 
BRANCH   8   9
HETATM    9  C           1     -19.693  -5.611  -6.901  0.00  0.00     0.229 C 
BRANCH   9  10
HETATM   10  N           1     -20.972  -6.080  -7.530  0.00  0.00    -0.079 N 
HETATM   11  H           1     -20.930  -5.925  -8.562  0.00  0.00     0.274 HD
HETATM   12  H           1     -21.102  -7.099  -7.336  0.00  0.00     0.274 HD
HETATM   13  H           1     -21.774  -5.544  -7.129  0.00  0.00     0.274 HD
ENDBRANCH   9  10
ENDBRANCH   8   9
ENDBRANCH   7   8
ENDBRANCH   6   7
ENDBRANCH   5   6
BRANCH   5  14
HETATM   14  C           1     -21.342  -8.865  -4.847  0.00  0.00     0.196 C 
HETATM   15  O           1     -21.208 -10.034  -4.427  0.00  0.00    -0.646 OA
HETATM   16  O           1     -21.255  -8.626  -6.071  0.00  0.00    -0.646 OA
ENDBRANCH   5  14
ENDBRANCH   2   5
BRANCH   3  17
HETATM   17  C           1     -22.083  -8.077  -0.088  0.00  0.00     0.278 C 
BRANCH  17  18
HETATM   18  C           1     -21.851  -9.581  -0.121  0.00  0.00     0.021 C 
HETATM   19  C           1     -20.907  -9.975   1.008  0.00  0.00     0.012 C 
BRANCH  18  20
HETATM   20  C           1     -23.179 -10.303   0.053  0.00  0.00     0.002 C 
HETATM   21  C           1     -23.537 -11.030  -1.236  0.00  0.00     0.005 C 
ENDBRANCH  18  20
ENDBRANCH  17  18
BRANCH  17  22
HETATM   22  N           1     -23.383  -7.787   0.603  0.00  0.00    -0.066 N 
HETATM   23  H           1     -23.207  -7.180   1.435  0.00  0.00     0.275 HD
HETATM   24  H           1     -23.820  -8.684   0.914  0.00  0.00     0.275 HD
HETATM   25  H           1     -24.026  -7.295  -0.057  0.00  0.00     0.275 HD
ENDBRANCH  17  22
ENDBRANCH   3  17
TORSDOF 11
ENDMDL
