MODEL 1
REMARK VINA RESULT:      -7.0      0.000      0.000
REMARK  11 active torsions:
REMARK  status: ('A' for Active; 'I' for Inactive)
REMARK    1  A    between atoms: N_6  and  C_26 
REMARK    2  A    between atoms: N_7  and  C_8 
REMARK    3  A    between atoms: C_8  and  C_17 
REMARK       I    between atoms: C_9  and  N_10 
REMARK    4  A    between atoms: C_9  and  C_15 
REMARK    5  A    between atoms: C_11  and  C_23 
REMARK    6  A    between atoms: C_13  and  C_26 
REMARK    7  A    between atoms: C_13  and  C_17 
REMARK    8  A    between atoms: C_15  and  C_27 
REMARK    9  A    between atoms: N_20  and  C_23 
REMARK       I    between atoms: N_20  and  C_25 
REMARK   10  A    between atoms: C_23  and  C_27 
REMARK   11  A    between atoms: C_25  and  C_26 
ROOT
HETATM    1  O           1     -33.747  -1.987 -11.270  0.00  0.00    -0.271 OA
HETATM    2  H           1     -35.419  -2.062 -13.923  0.00  0.00     0.163 HD
HETATM    3  N           1     -34.971  -1.661 -13.109  0.00  0.00    -0.345 N 
HETATM    4  C           1     -34.283  -2.466 -12.240  0.00  0.00     0.249 C 
ENDROOT
BRANCH   4   5
HETATM    5  C           1     -34.194  -3.950 -12.496  0.00  0.00     0.274 C 
BRANCH   5   6
HETATM    6  N           1     -33.559  -4.189 -13.833  0.00  0.00    -0.067 N 
HETATM    7  H           1     -32.733  -3.560 -13.945  0.00  0.00     0.275 HD
HETATM    8  H           1     -33.247  -5.185 -13.898  0.00  0.00     0.275 HD
HETATM    9  H           1     -34.252  -3.990 -14.589  0.00  0.00     0.275 HD
ENDBRANCH   5   6
BRANCH   5  10
HETATM   10  C           1     -33.350  -4.604 -11.409  0.00  0.00     0.044 C 
BRANCH  10  11
HETATM   11  C           1     -34.264  -5.263 -10.384  0.00  0.00     0.030 C 
BRANCH  11  12
HETATM   12  C           1     -34.398  -6.746 -10.702  0.00  0.00     0.230 C 
BRANCH  12  13
HETATM   13  N           1     -35.020  -7.455  -9.535  0.00  0.00    -0.079 N 
HETATM   14  H           1     -35.410  -6.750  -8.868  0.00  0.00     0.274 HD
HETATM   15  H           1     -35.789  -8.076  -9.873  0.00  0.00     0.274 HD
HETATM   16  H           1     -34.295  -8.030  -9.050  0.00  0.00     0.274 HD
ENDBRANCH  12  13
ENDBRANCH  11  12
ENDBRANCH  10  11
ENDBRANCH   5  10
ENDBRANCH   4   5
BRANCH   3  17
HETATM   17  C           1     -35.055  -0.234 -12.864  0.00  0.00     0.186 C 
BRANCH  17  18
HETATM   18  C           1     -36.291   0.062 -12.050  0.00  0.00     0.196 C 
HETATM   19  O           1     -36.186   0.366 -10.842  0.00  0.00    -0.646 OA
HETATM   20  O           1     -37.419   0.004 -12.584  0.00  0.00    -0.646 OA
ENDBRANCH  17  18
BRANCH  17  21
HETATM   21  C           1     -35.132   0.504 -14.193  0.00  0.00     0.045 C 
BRANCH  21  22
HETATM   22  C           1     -35.405  -0.492 -15.313  0.00  0.00     0.105 C 
BRANCH  22  23
HETATM   23  C           1     -36.690  -0.123 -16.013  0.00  0.00     0.215 C 
HETATM   24  O           1     -37.100  -0.806 -16.922  0.00  0.00    -0.274 OA
HETATM   25  N           1     -37.391   0.985 -15.620  0.00  0.00    -0.370 N 
HETATM   26  H           1     -37.048   1.557 -14.859  0.00  0.00     0.159 HD
HETATM   27  H           1     -38.252   1.232 -16.090  0.00  0.00     0.159 HD
ENDBRANCH  22  23
ENDBRANCH  21  22
ENDBRANCH  17  21
ENDBRANCH   3  17
TORSDOF 11
ENDMDL
MODEL 2
REMARK VINA RESULT:      -6.7     12.045     13.851
REMARK  11 active torsions:
REMARK  status: ('A' for Active; 'I' for Inactive)
REMARK    1  A    between atoms: N_6  and  C_26 
REMARK    2  A    between atoms: N_7  and  C_8 
REMARK    3  A    between atoms: C_8  and  C_17 
REMARK       I    between atoms: C_9  and  N_10 
REMARK    4  A    between atoms: C_9  and  C_15 
REMARK    5  A    between atoms: C_11  and  C_23 
REMARK    6  A    between atoms: C_13  and  C_26 
REMARK    7  A    between atoms: C_13  and  C_17 
REMARK    8  A    between atoms: C_15  and  C_27 
REMARK    9  A    between atoms: N_20  and  C_23 
REMARK       I    between atoms: N_20  and  C_25 
REMARK   10  A    between atoms: C_23  and  C_27 
REMARK   11  A    between atoms: C_25  and  C_26 
ROOT
HETATM    1  O           1     -21.668  -3.562  -7.274  0.00  0.00    -0.271 OA
HETATM    2  H           1     -22.237  -5.853  -9.340  0.00  0.00     0.163 HD
HETATM    3  N           1     -22.214  -4.912  -8.966  0.00  0.00    -0.345 N 
HETATM    4  C           1     -21.697  -4.684  -7.719  0.00  0.00     0.249 C 
ENDROOT
BRANCH   4   5
HETATM    5  C           1     -21.161  -5.834  -6.902  0.00  0.00     0.274 C 
BRANCH   5   6
HETATM    6  N           1     -19.788  -6.194  -7.386  0.00  0.00    -0.067 N 
HETATM    7  H           1     -19.439  -5.449  -8.030  0.00  0.00     0.275 HD
HETATM    8  H           1     -19.141  -6.276  -6.569  0.00  0.00     0.275 HD
HETATM    9  H           1     -19.825  -7.105  -7.896  0.00  0.00     0.275 HD
ENDBRANCH   5   6
BRANCH   5  10
HETATM   10  C           1     -21.092  -5.428  -5.436  0.00  0.00     0.044 C 
BRANCH  10  11
HETATM   11  C           1     -21.906  -6.406  -4.599  0.00  0.00     0.030 C 
BRANCH  11  12
HETATM   12  C           1     -21.371  -6.423  -3.173  0.00  0.00     0.230 C 
BRANCH  12  13
HETATM   13  N           1     -22.419  -5.895  -2.238  0.00  0.00    -0.079 N 
HETATM   14  H           1     -23.293  -6.460  -2.341  0.00  0.00     0.274 HD
HETATM   15  H           1     -22.075  -5.963  -1.254  0.00  0.00     0.274 HD
HETATM   16  H           1     -22.621  -4.896  -2.469  0.00  0.00     0.274 HD
ENDBRANCH  12  13
ENDBRANCH  11  12
ENDBRANCH  10  11
ENDBRANCH   5  10
ENDBRANCH   4   5
BRANCH   3  17
HETATM   17  C           1     -22.727  -3.807  -9.752  0.00  0.00     0.186 C 
BRANCH  17  18
HETATM   18  C           1     -24.236  -3.832  -9.725  0.00  0.00     0.196 C 
HETATM   19  O           1     -24.873  -2.786  -9.473  0.00  0.00    -0.646 OA
HETATM   20  O           1     -24.848  -4.896  -9.956  0.00  0.00    -0.646 OA
ENDBRANCH  17  18
BRANCH  17  21
HETATM   21  C           1     -22.243  -3.939 -11.190  0.00  0.00     0.045 C 
BRANCH  21  22
HETATM   22  C           1     -22.473  -2.626 -11.926  0.00  0.00     0.105 C 
BRANCH  22  23
HETATM   23  C           1     -23.242  -2.889 -13.197  0.00  0.00     0.215 C 
HETATM   24  O           1     -24.446  -2.983 -13.166  0.00  0.00    -0.274 OA
HETATM   25  N           1     -22.576  -3.022 -14.386  0.00  0.00    -0.370 N 
HETATM   26  H           1     -21.567  -2.944 -14.413  0.00  0.00     0.159 HD
HETATM   27  H           1     -23.092  -3.198 -15.238  0.00  0.00     0.159 HD
ENDBRANCH  22  23
ENDBRANCH  21  22
ENDBRANCH  17  21
ENDBRANCH   3  17
TORSDOF 11
ENDMDL
MODEL 3
REMARK VINA RESULT:      -6.2      9.302     10.844
REMARK  11 active torsions:
REMARK  status: ('A' for Active; 'I' for Inactive)
REMARK    1  A    between atoms: N_6  and  C_26 
REMARK    2  A    between atoms: N_7  and  C_8 
REMARK    3  A    between atoms: C_8  and  C_17 
REMARK       I    between atoms: C_9  and  N_10 
REMARK    4  A    between atoms: C_9  and  C_15 
REMARK    5  A    between atoms: C_11  and  C_23 
REMARK    6  A    between atoms: C_13  and  C_26 
REMARK    7  A    between atoms: C_13  and  C_17 
REMARK    8  A    between atoms: C_15  and  C_27 
REMARK    9  A    between atoms: N_20  and  C_23 
REMARK       I    between atoms: N_20  and  C_25 
REMARK   10  A    between atoms: C_23  and  C_27 
REMARK   11  A    between atoms: C_25  and  C_26 
ROOT
HETATM    1  O           1     -27.457  -6.501 -16.152  0.00  0.00    -0.271 OA
HETATM    2  H           1     -27.868  -6.836 -19.245  0.00  0.00     0.163 HD
HETATM    3  N           1     -28.119  -6.794 -18.265  0.00  0.00    -0.345 N 
HETATM    4  C           1     -27.157  -6.553 -17.321  0.00  0.00     0.249 C 
ENDROOT
BRANCH   4   5
HETATM    5  C           1     -25.722  -6.351 -17.742  0.00  0.00     0.274 C 
BRANCH   5   6
HETATM    6  N           1     -24.834  -7.252 -16.936  0.00  0.00    -0.067 N 
HETATM    7  H           1     -25.224  -8.222 -16.941  0.00  0.00     0.275 HD
HETATM    8  H           1     -23.877  -7.262 -17.354  0.00  0.00     0.275 HD
HETATM    9  H           1     -24.783  -6.903 -15.953  0.00  0.00     0.275 HD
ENDBRANCH   5   6
BRANCH   5  10
HETATM   10  C           1     -25.573  -6.683 -19.221  0.00  0.00     0.044 C 
BRANCH  10  11
HETATM   11  C           1     -24.207  -7.310 -19.466  0.00  0.00     0.030 C 
BRANCH  11  12
HETATM   12  C           1     -24.206  -8.013 -20.818  0.00  0.00     0.230 C 
BRANCH  12  13
HETATM   13  N           1     -22.953  -8.826 -20.958  0.00  0.00    -0.079 N 
HETATM   14  H           1     -22.733  -9.286 -20.045  0.00  0.00     0.274 HD
HETATM   15  H           1     -23.092  -9.557 -21.692  0.00  0.00     0.274 HD
HETATM   16  H           1     -22.161  -8.202 -21.233  0.00  0.00     0.274 HD
ENDBRANCH  12  13
ENDBRANCH  11  12
ENDBRANCH  10  11
ENDBRANCH   5  10
ENDBRANCH   4   5
BRANCH   3  17
HETATM   17  C           1     -29.499  -6.987 -17.861  0.00  0.00     0.186 C 
BRANCH  17  18
HETATM   18  C           1     -30.151  -7.998 -18.772  0.00  0.00     0.196 C 
HETATM   19  O           1     -31.391  -7.986 -18.933  0.00  0.00    -0.646 OA
HETATM   20  O           1     -29.452  -8.846 -19.366  0.00  0.00    -0.646 OA
ENDBRANCH  17  18
BRANCH  17  21
HETATM   21  C           1     -30.244  -5.662 -17.955  0.00  0.00     0.045 C 
BRANCH  21  22
HETATM   22  C           1     -30.946  -5.379 -16.633  0.00  0.00     0.105 C 
BRANCH  22  23
HETATM   23  C           1     -31.950  -4.269 -16.823  0.00  0.00     0.215 C 
HETATM   24  O           1     -31.632  -3.262 -17.410  0.00  0.00    -0.274 OA
HETATM   25  N           1     -33.220  -4.402 -16.331  0.00  0.00    -0.370 N 
HETATM   26  H           1     -33.486  -5.246 -15.839  0.00  0.00     0.159 HD
HETATM   27  H           1     -33.893  -3.657 -16.459  0.00  0.00     0.159 HD
ENDBRANCH  22  23
ENDBRANCH  21  22
ENDBRANCH  17  21
ENDBRANCH   3  17
TORSDOF 11
ENDMDL
MODEL 4
REMARK VINA RESULT:      -6.1      2.418      6.464
REMARK  11 active torsions:
REMARK  status: ('A' for Active; 'I' for Inactive)
REMARK    1  A    between atoms: N_6  and  C_26 
REMARK    2  A    between atoms: N_7  and  C_8 
REMARK    3  A    between atoms: C_8  and  C_17 
REMARK       I    between atoms: C_9  and  N_10 
REMARK    4  A    between atoms: C_9  and  C_15 
REMARK    5  A    between atoms: C_11  and  C_23 
REMARK    6  A    between atoms: C_13  and  C_26 
REMARK    7  A    between atoms: C_13  and  C_17 
REMARK    8  A    between atoms: C_15  and  C_27 
REMARK    9  A    between atoms: N_20  and  C_23 
REMARK       I    between atoms: N_20  and  C_25 
REMARK   10  A    between atoms: C_23  and  C_27 
REMARK   11  A    between atoms: C_25  and  C_26 
ROOT
HETATM    1  O           1     -34.197  -1.051 -11.576  0.00  0.00    -0.271 OA
HETATM    2  H           1     -35.966  -3.613 -11.189  0.00  0.00     0.163 HD
HETATM    3  N           1     -35.160  -3.062 -11.459  0.00  0.00    -0.345 N 
HETATM    4  C           1     -35.159  -1.708 -11.256  0.00  0.00     0.249 C 
ENDROOT
BRANCH   4   5
HETATM    5  C           1     -36.357  -1.036 -10.633  0.00  0.00     0.274 C 
BRANCH   5   6
HETATM    6  N           1     -35.983  -0.498  -9.284  0.00  0.00    -0.067 N 
HETATM    7  H           1     -35.365   0.337  -9.401  0.00  0.00     0.275 HD
HETATM    8  H           1     -36.847  -0.220  -8.767  0.00  0.00     0.275 HD
HETATM    9  H           1     -35.474  -1.234  -8.744  0.00  0.00     0.275 HD
ENDBRANCH   5   6
BRANCH   5  10
HETATM   10  C           1     -36.821   0.108 -11.525  0.00  0.00     0.044 C 
BRANCH  10  11
HETATM   11  C           1     -37.172  -0.433 -12.904  0.00  0.00     0.030 C 
BRANCH  11  12
HETATM   12  C           1     -36.287   0.231 -13.951  0.00  0.00     0.230 C 
BRANCH  12  13
HETATM   13  N           1     -35.314  -0.774 -14.494  0.00  0.00    -0.079 N 
HETATM   14  H           1     -34.479  -0.824 -13.867  0.00  0.00     0.274 HD
HETATM   15  H           1     -35.771  -1.713 -14.540  0.00  0.00     0.274 HD
HETATM   16  H           1     -35.013  -0.486 -15.452  0.00  0.00     0.274 HD
ENDBRANCH  12  13
ENDBRANCH  11  12
ENDBRANCH  10  11
ENDBRANCH   5  10
ENDBRANCH   4   5
BRANCH   3  17
HETATM   17  C           1     -34.008  -3.707 -12.057  0.00  0.00     0.186 C 
BRANCH  17  18
HETATM   18  C           1     -34.389  -4.263 -13.407  0.00  0.00     0.196 C 
HETATM   19  O           1     -34.061  -3.655 -14.449  0.00  0.00    -0.646 OA
HETATM   20  O           1     -35.032  -5.332 -13.484  0.00  0.00    -0.646 OA
ENDBRANCH  17  18
BRANCH  17  21
HETATM   21  C           1     -33.537  -4.841 -11.155  0.00  0.00     0.045 C 
BRANCH  21  22
HETATM   22  C           1     -34.674  -5.262 -10.233  0.00  0.00     0.105 C 
BRANCH  22  23
HETATM   23  C           1     -34.765  -6.768 -10.199  0.00  0.00     0.215 C 
HETATM   24  O           1     -34.663  -7.355  -9.149  0.00  0.00    -0.274 OA
HETATM   25  N           1     -34.963  -7.468 -11.359  0.00  0.00    -0.370 N 
HETATM   26  H           1     -35.048  -6.976 -12.239  0.00  0.00     0.159 HD
HETATM   27  H           1     -35.023  -8.478 -11.336  0.00  0.00     0.159 HD
ENDBRANCH  22  23
ENDBRANCH  21  22
ENDBRANCH  17  21
ENDBRANCH   3  17
TORSDOF 11
ENDMDL
MODEL 5
REMARK VINA RESULT:      -6.0      2.184      3.767
REMARK  11 active torsions:
REMARK  status: ('A' for Active; 'I' for Inactive)
REMARK    1  A    between atoms: N_6  and  C_26 
REMARK    2  A    between atoms: N_7  and  C_8 
REMARK    3  A    between atoms: C_8  and  C_17 
REMARK       I    between atoms: C_9  and  N_10 
REMARK    4  A    between atoms: C_9  and  C_15 
REMARK    5  A    between atoms: C_11  and  C_23 
REMARK    6  A    between atoms: C_13  and  C_26 
REMARK    7  A    between atoms: C_13  and  C_17 
REMARK    8  A    between atoms: C_15  and  C_27 
REMARK    9  A    between atoms: N_20  and  C_23 
REMARK       I    between atoms: N_20  and  C_25 
REMARK   10  A    between atoms: C_23  and  C_27 
REMARK   11  A    between atoms: C_25  and  C_26 
ROOT
HETATM    1  O           1     -34.674  -2.817 -13.411  0.00  0.00    -0.271 OA
HETATM    2  H           1     -34.887  -0.486 -11.322  0.00  0.00     0.163 HD
HETATM    3  N           1     -35.116  -1.033 -12.143  0.00  0.00    -0.345 N 
HETATM    4  C           1     -34.401  -2.164 -12.432  0.00  0.00     0.249 C 
ENDROOT
BRANCH   4   5
HETATM    5  C           1     -33.273  -2.596 -11.528  0.00  0.00     0.274 C 
BRANCH   5   6
HETATM    6  N           1     -33.592  -2.212 -10.114  0.00  0.00    -0.067 N 
HETATM    7  H           1     -33.386  -1.198  -9.972  0.00  0.00     0.275 HD
HETATM    8  H           1     -34.604  -2.390  -9.924  0.00  0.00     0.275 HD
HETATM    9  H           1     -33.009  -2.780  -9.458  0.00  0.00     0.275 HD
ENDBRANCH   5   6
BRANCH   5  10
HETATM   10  C           1     -33.099  -4.107 -11.617  0.00  0.00     0.044 C 
BRANCH  10  11
HETATM   11  C           1     -33.905  -4.777 -10.512  0.00  0.00     0.030 C 
BRANCH  11  12
HETATM   12  C           1     -35.025  -5.604 -11.130  0.00  0.00     0.230 C 
BRANCH  12  13
HETATM   13  N           1     -34.719  -5.857 -12.577  0.00  0.00    -0.079 N 
HETATM   14  H           1     -34.495  -6.870 -12.713  0.00  0.00     0.274 HD
HETATM   15  H           1     -35.550  -5.604 -13.158  0.00  0.00     0.274 HD
HETATM   16  H           1     -33.900  -5.277 -12.867  0.00  0.00     0.274 HD
ENDBRANCH  12  13
ENDBRANCH  11  12
ENDBRANCH  10  11
ENDBRANCH   5  10
ENDBRANCH   4   5
BRANCH   3  17
HETATM   17  C           1     -36.201  -0.619 -13.011  0.00  0.00     0.186 C 
BRANCH  17  18
HETATM   18  C           1     -35.681   0.369 -14.027  0.00  0.00     0.196 C 
HETATM   19  O           1     -36.128   0.360 -15.194  0.00  0.00    -0.646 OA
HETATM   20  O           1     -34.804   1.197 -13.701  0.00  0.00    -0.646 OA
ENDBRANCH  17  18
BRANCH  17  21
HETATM   21  C           1     -37.294   0.036 -12.178  0.00  0.00     0.045 C 
BRANCH  21  22
HETATM   22  C           1     -37.281  -0.548 -10.772  0.00  0.00     0.105 C 
BRANCH  22  23
HETATM   23  C           1     -37.229   0.571  -9.761  0.00  0.00     0.215 C 
HETATM   24  O           1     -38.075   1.433  -9.771  0.00  0.00    -0.274 OA
HETATM   25  N           1     -36.223   0.610  -8.833  0.00  0.00    -0.370 N 
HETATM   26  H           1     -35.514  -0.112  -8.825  0.00  0.00     0.159 HD
HETATM   27  H           1     -36.189   1.361  -8.156  0.00  0.00     0.159 HD
ENDBRANCH  22  23
ENDBRANCH  21  22
ENDBRANCH  17  21
ENDBRANCH   3  17
TORSDOF 11
ENDMDL
MODEL 6
REMARK VINA RESULT:      -5.9     11.985     13.562
REMARK  11 active torsions:
REMARK  status: ('A' for Active; 'I' for Inactive)
REMARK    1  A    between atoms: N_6  and  C_26 
REMARK    2  A    between atoms: N_7  and  C_8 
REMARK    3  A    between atoms: C_8  and  C_17 
REMARK       I    between atoms: C_9  and  N_10 
REMARK    4  A    between atoms: C_9  and  C_15 
REMARK    5  A    between atoms: C_11  and  C_23 
REMARK    6  A    between atoms: C_13  and  C_26 
REMARK    7  A    between atoms: C_13  and  C_17 
REMARK    8  A    between atoms: C_15  and  C_27 
REMARK    9  A    between atoms: N_20  and  C_23 
REMARK       I    between atoms: N_20  and  C_25 
REMARK   10  A    between atoms: C_23  and  C_27 
REMARK   11  A    between atoms: C_25  and  C_26 
ROOT
HETATM    1  O           1     -22.385  -3.393  -8.419  0.00  0.00    -0.271 OA
HETATM    2  H           1     -21.205  -4.497 -11.108  0.00  0.00     0.163 HD
HETATM    3  N           1     -21.819  -3.968 -10.501  0.00  0.00    -0.345 N 
HETATM    4  C           1     -21.654  -4.026  -9.143  0.00  0.00     0.249 C 
ENDROOT
BRANCH   4   5
HETATM    5  C           1     -20.558  -4.877  -8.551  0.00  0.00     0.274 C 
BRANCH   5   6
HETATM    6  N           1     -19.530  -5.171  -9.604  0.00  0.00    -0.067 N 
HETATM    7  H           1     -19.101  -4.276  -9.931  0.00  0.00     0.275 HD
HETATM    8  H           1     -18.786  -5.785  -9.202  0.00  0.00     0.275 HD
HETATM    9  H           1     -19.985  -5.654 -10.410  0.00  0.00     0.275 HD
ENDBRANCH   5   6
BRANCH   5  10
HETATM   10  C           1     -19.902  -4.132  -7.396  0.00  0.00     0.044 C 
BRANCH  10  11
HETATM   11  C           1     -20.125  -4.903  -6.102  0.00  0.00     0.030 C 
BRANCH  11  12
HETATM   12  C           1     -20.872  -6.196  -6.403  0.00  0.00     0.230 C 
BRANCH  12  13
HETATM   13  N           1     -20.001  -7.369  -6.059  0.00  0.00    -0.079 N 
HETATM   14  H           1     -20.257  -8.182  -6.666  0.00  0.00     0.274 HD
HETATM   15  H           1     -18.999  -7.118  -6.218  0.00  0.00     0.274 HD
HETATM   16  H           1     -20.142  -7.625  -5.056  0.00  0.00     0.274 HD
ENDBRANCH  12  13
ENDBRANCH  11  12
ENDBRANCH  10  11
ENDBRANCH   5  10
ENDBRANCH   4   5
BRANCH   3  17
HETATM   17  C           1     -22.871  -3.149 -11.070  0.00  0.00     0.186 C 
BRANCH  17  18
HETATM   18  C           1     -24.198  -3.847 -10.898  0.00  0.00     0.196 C 
HETATM   19  O           1     -25.196  -3.204 -10.506  0.00  0.00    -0.646 OA
HETATM   20  O           1     -24.299  -5.067 -11.148  0.00  0.00    -0.646 OA
ENDBRANCH  17  18
BRANCH  17  21
HETATM   21  C           1     -22.599  -2.933 -12.553  0.00  0.00     0.045 C 
BRANCH  21  22
HETATM   22  C           1     -23.847  -2.372 -13.222  0.00  0.00     0.105 C 
BRANCH  22  23
HETATM   23  C           1     -23.494  -1.857 -14.596  0.00  0.00     0.215 C 
HETATM   24  O           1     -22.752  -2.492 -15.306  0.00  0.00    -0.274 OA
HETATM   25  N           1     -24.015  -0.671 -15.038  0.00  0.00    -0.370 N 
HETATM   26  H           1     -24.637  -0.139 -14.443  0.00  0.00     0.159 HD
HETATM   27  H           1     -23.779  -0.326 -15.959  0.00  0.00     0.159 HD
ENDBRANCH  22  23
ENDBRANCH  21  22
ENDBRANCH  17  21
ENDBRANCH   3  17
TORSDOF 11
ENDMDL
MODEL 7
REMARK VINA RESULT:      -5.8     15.067     17.450
REMARK  11 active torsions:
REMARK  status: ('A' for Active; 'I' for Inactive)
REMARK    1  A    between atoms: N_6  and  C_26 
REMARK    2  A    between atoms: N_7  and  C_8 
REMARK    3  A    between atoms: C_8  and  C_17 
REMARK       I    between atoms: C_9  and  N_10 
REMARK    4  A    between atoms: C_9  and  C_15 
REMARK    5  A    between atoms: C_11  and  C_23 
REMARK    6  A    between atoms: C_13  and  C_26 
REMARK    7  A    between atoms: C_13  and  C_17 
REMARK    8  A    between atoms: C_15  and  C_27 
REMARK    9  A    between atoms: N_20  and  C_23 
REMARK       I    between atoms: N_20  and  C_25 
REMARK   10  A    between atoms: C_23  and  C_27 
REMARK   11  A    between atoms: C_25  and  C_26 
ROOT
HETATM    1  O           1     -20.370  -4.327  -6.200  0.00  0.00    -0.271 OA
HETATM    2  H           1     -21.844  -6.989  -6.963  0.00  0.00     0.163 HD
HETATM    3  N           1     -21.305  -6.345  -6.397  0.00  0.00    -0.345 N 
HETATM    4  C           1     -21.011  -5.096  -6.875  0.00  0.00     0.249 C 
ENDROOT
BRANCH   4   5
HETATM    5  C           1     -21.489  -4.680  -8.245  0.00  0.00     0.274 C 
BRANCH   5   6
HETATM    6  N           1     -22.569  -3.649  -8.104  0.00  0.00    -0.067 N 
HETATM    7  H           1     -22.933  -3.394  -9.050  0.00  0.00     0.275 HD
HETATM    8  H           1     -23.348  -4.036  -7.526  0.00  0.00     0.275 HD
HETATM    9  H           1     -22.180  -2.797  -7.641  0.00  0.00     0.275 HD
ENDBRANCH   5   6
BRANCH   5  10
HETATM   10  C           1     -20.326  -4.093  -9.033  0.00  0.00     0.044 C 
BRANCH  10  11
HETATM   11  C           1     -20.455  -4.486 -10.499  0.00  0.00     0.030 C 
BRANCH  11  12
HETATM   12  C           1     -20.950  -3.291 -11.303  0.00  0.00     0.230 C 
BRANCH  12  13
HETATM   13  N           1     -21.637  -3.774 -12.546  0.00  0.00    -0.079 N 
HETATM   14  H           1     -21.507  -3.072 -13.311  0.00  0.00     0.274 HD
HETATM   15  H           1     -21.225  -4.688 -12.840  0.00  0.00     0.274 HD
HETATM   16  H           1     -22.657  -3.897 -12.356  0.00  0.00     0.274 HD
ENDBRANCH  12  13
ENDBRANCH  11  12
ENDBRANCH  10  11
ENDBRANCH   5  10
ENDBRANCH   4   5
BRANCH   3  17
HETATM   17  C           1     -20.847  -6.744  -5.081  0.00  0.00     0.186 C 
BRANCH  17  18
HETATM   18  C           1     -20.340  -8.165  -5.136  0.00  0.00     0.196 C 
HETATM   19  O           1     -19.297  -8.432  -5.771  0.00  0.00    -0.646 OA
HETATM   20  O           1     -20.963  -9.074  -4.547  0.00  0.00    -0.646 OA
ENDBRANCH  17  18
BRANCH  17  21
HETATM   21  C           1     -22.003  -6.656  -4.093  0.00  0.00     0.045 C 
BRANCH  21  22
HETATM   22  C           1     -21.497  -6.107  -2.766  0.00  0.00     0.105 C 
BRANCH  22  23
HETATM   23  C           1     -21.852  -7.065  -1.656  0.00  0.00     0.215 C 
HETATM   24  O           1     -22.709  -6.771  -0.856  0.00  0.00    -0.274 OA
HETATM   25  N           1     -21.204  -8.266  -1.554  0.00  0.00    -0.370 N 
HETATM   26  H           1     -20.487  -8.513  -2.224  0.00  0.00     0.159 HD
HETATM   27  H           1     -21.443  -8.908  -0.809  0.00  0.00     0.159 HD
ENDBRANCH  22  23
ENDBRANCH  21  22
ENDBRANCH  17  21
ENDBRANCH   3  17
TORSDOF 11
ENDMDL
MODEL 8
REMARK VINA RESULT:      -5.7     12.445     15.540
REMARK  11 active torsions:
REMARK  status: ('A' for Active; 'I' for Inactive)
REMARK    1  A    between atoms: N_6  and  C_26 
REMARK    2  A    between atoms: N_7  and  C_8 
REMARK    3  A    between atoms: C_8  and  C_17 
REMARK       I    between atoms: C_9  and  N_10 
REMARK    4  A    between atoms: C_9  and  C_15 
REMARK    5  A    between atoms: C_11  and  C_23 
REMARK    6  A    between atoms: C_13  and  C_26 
REMARK    7  A    between atoms: C_13  and  C_17 
REMARK    8  A    between atoms: C_15  and  C_27 
REMARK    9  A    between atoms: N_20  and  C_23 
REMARK       I    between atoms: N_20  and  C_25 
REMARK   10  A    between atoms: C_23  and  C_27 
REMARK   11  A    between atoms: C_25  and  C_26 
ROOT
HETATM    1  O           1     -23.216  -3.195  -8.445  0.00  0.00    -0.271 OA
HETATM    2  H           1     -22.251  -6.112  -9.078  0.00  0.00     0.163 HD
HETATM    3  N           1     -22.244  -5.194  -8.650  0.00  0.00    -0.345 N 
HETATM    4  C           1     -23.223  -4.289  -8.957  0.00  0.00     0.249 C 
ENDROOT
BRANCH   4   5
HETATM    5  C           1     -24.312  -4.657  -9.934  0.00  0.00     0.274 C 
BRANCH   5   6
HETATM    6  N           1     -25.418  -3.647  -9.854  0.00  0.00    -0.067 N 
HETATM    7  H           1     -25.293  -2.932 -10.606  0.00  0.00     0.275 HD
HETATM    8  H           1     -26.338  -4.126  -9.982  0.00  0.00     0.275 HD
HETATM    9  H           1     -25.394  -3.178  -8.921  0.00  0.00     0.275 HD
ENDBRANCH   5   6
BRANCH   5  10
HETATM   10  C           1     -23.743  -4.675 -11.347  0.00  0.00     0.044 C 
BRANCH  10  11
HETATM   11  C           1     -23.841  -3.280 -11.952  0.00  0.00     0.030 C 
BRANCH  11  12
HETATM   12  C           1     -22.442  -2.707 -12.137  0.00  0.00     0.230 C 
BRANCH  12  13
HETATM   13  N           1     -21.462  -3.829 -12.319  0.00  0.00    -0.079 N 
HETATM   14  H           1     -21.602  -4.539 -11.564  0.00  0.00     0.274 HD
HETATM   15  H           1     -21.614  -4.278 -13.250  0.00  0.00     0.274 HD
HETATM   16  H           1     -20.489  -3.453 -12.268  0.00  0.00     0.274 HD
ENDBRANCH  12  13
ENDBRANCH  11  12
ENDBRANCH  10  11
ENDBRANCH   5  10
ENDBRANCH   4   5
BRANCH   3  17
HETATM   17  C           1     -21.198  -4.841  -7.709  0.00  0.00     0.186 C 
BRANCH  17  18
HETATM   18  C           1     -19.916  -4.577  -8.461  0.00  0.00     0.196 C 
HETATM   19  O           1     -19.897  -4.654  -9.709  0.00  0.00    -0.646 OA
HETATM   20  O           1     -18.875  -4.282  -7.837  0.00  0.00    -0.646 OA
ENDBRANCH  17  18
BRANCH  17  21
HETATM   21  C           1     -20.986  -5.989  -6.732  0.00  0.00     0.045 C 
BRANCH  21  22
HETATM   22  C           1     -22.072  -5.954  -5.664  0.00  0.00     0.105 C 
BRANCH  22  23
HETATM   23  C           1     -21.524  -6.504  -4.370  0.00  0.00     0.215 C 
HETATM   24  O           1     -20.598  -7.279  -4.387  0.00  0.00    -0.274 OA
HETATM   25  N           1     -22.076  -6.124  -3.176  0.00  0.00    -0.370 N 
HETATM   26  H           1     -22.852  -5.475  -3.162  0.00  0.00     0.159 HD
HETATM   27  H           1     -21.709  -6.493  -2.309  0.00  0.00     0.159 HD
ENDBRANCH  22  23
ENDBRANCH  21  22
ENDBRANCH  17  21
ENDBRANCH   3  17
TORSDOF 11
ENDMDL
MODEL 9
REMARK VINA RESULT:      -5.7     13.948     17.142
REMARK  11 active torsions:
REMARK  status: ('A' for Active; 'I' for Inactive)
REMARK    1  A    between atoms: N_6  and  C_26 
REMARK    2  A    between atoms: N_7  and  C_8 
REMARK    3  A    between atoms: C_8  and  C_17 
REMARK       I    between atoms: C_9  and  N_10 
REMARK    4  A    between atoms: C_9  and  C_15 
REMARK    5  A    between atoms: C_11  and  C_23 
REMARK    6  A    between atoms: C_13  and  C_26 
REMARK    7  A    between atoms: C_13  and  C_17 
REMARK    8  A    between atoms: C_15  and  C_27 
REMARK    9  A    between atoms: N_20  and  C_23 
REMARK       I    between atoms: N_20  and  C_25 
REMARK   10  A    between atoms: C_23  and  C_27 
REMARK   11  A    between atoms: C_25  and  C_26 
ROOT
HETATM    1  O           1     -19.703  -4.414  -5.648  0.00  0.00    -0.271 OA
HETATM    2  H           1     -22.241  -6.108  -6.378  0.00  0.00     0.163 HD
HETATM    3  N           1     -21.428  -5.819  -5.849  0.00  0.00    -0.345 N 
HETATM    4  C           1     -20.673  -4.760  -6.279  0.00  0.00     0.249 C 
ENDROOT
BRANCH   4   5
HETATM    5  C           1     -21.054  -4.026  -7.541  0.00  0.00     0.274 C 
BRANCH   5   6
HETATM    6  N           1     -20.236  -4.544  -8.687  0.00  0.00    -0.067 N 
HETATM    7  H           1     -20.652  -5.436  -9.037  0.00  0.00     0.275 HD
HETATM    8  H           1     -20.229  -3.839  -9.457  0.00  0.00     0.275 HD
HETATM    9  H           1     -19.257  -4.719  -8.365  0.00  0.00     0.275 HD
ENDBRANCH   5   6
BRANCH   5  10
HETATM   10  C           1     -22.532  -4.247  -7.833  0.00  0.00     0.044 C 
BRANCH  10  11
HETATM   11  C           1     -22.863  -3.708  -9.219  0.00  0.00     0.030 C 
BRANCH  11  12
HETATM   12  C           1     -24.082  -4.437  -9.769  0.00  0.00     0.230 C 
BRANCH  12  13
HETATM   13  N           1     -25.298  -3.574  -9.603  0.00  0.00    -0.079 N 
HETATM   14  H           1     -25.971  -3.767 -10.380  0.00  0.00     0.274 HD
HETATM   15  H           1     -25.754  -3.786  -8.687  0.00  0.00     0.274 HD
HETATM   16  H           1     -25.018  -2.568  -9.627  0.00  0.00     0.274 HD
ENDBRANCH  12  13
ENDBRANCH  11  12
ENDBRANCH  10  11
ENDBRANCH   5  10
ENDBRANCH   4   5
BRANCH   3  17
HETATM   17  C           1     -21.063  -6.524  -4.636  0.00  0.00     0.186 C 
BRANCH  17  18
HETATM   18  C           1     -20.642  -7.932  -4.982  0.00  0.00     0.196 C 
HETATM   19  O           1     -19.853  -8.550  -4.234  0.00  0.00    -0.646 OA
HETATM   20  O           1     -21.082  -8.479  -6.015  0.00  0.00    -0.646 OA
ENDBRANCH  17  18
BRANCH  17  21
HETATM   21  C           1     -22.260  -6.569  -3.696  0.00  0.00     0.045 C 
BRANCH  21  22
HETATM   22  C           1     -21.843  -6.073  -2.318  0.00  0.00     0.105 C 
BRANCH  22  23
HETATM   23  C           1     -22.028  -7.178  -1.308  0.00  0.00     0.215 C 
HETATM   24  O           1     -22.857  -7.067  -0.436  0.00  0.00    -0.274 OA
HETATM   25  N           1     -21.257  -8.308  -1.378  0.00  0.00    -0.370 N 
HETATM   26  H           1     -20.563  -8.401  -2.108  0.00  0.00     0.159 HD
HETATM   27  H           1     -21.382  -9.049  -0.700  0.00  0.00     0.159 HD
ENDBRANCH  22  23
ENDBRANCH  21  22
ENDBRANCH  17  21
ENDBRANCH   3  17
TORSDOF 11
ENDMDL
