MODEL 1
REMARK VINA RESULT:      -6.1      0.000      0.000
REMARK  7 active torsions:
REMARK  status: ('A' for Active; 'I' for Inactive)
REMARK    1  A    between atoms: N_5  and  C_11 
REMARK    2  A    between atoms: C_9  and  C_15 
REMARK    3  A    between atoms: C_11  and  C_17 
REMARK    4  A    between atoms: C_11  and  C_12 
REMARK    5  A    between atoms: C_12  and  C_13 
REMARK    6  A    between atoms: C_13  and  C_14 
REMARK    7  A    between atoms: C_15  and  N_18 
REMARK       I    between atoms: C_17  and  N_18 
ROOT
HETATM    1  C           1     -23.112  -3.558  -9.286  0.00  0.00     0.275 C 
ENDROOT
BRANCH   1   2
HETATM    2  N           1     -23.881  -4.077  -8.107  0.00  0.00    -0.066 N 
HETATM    3  H           1     -23.246  -4.145  -7.279  0.00  0.00     0.275 HD
HETATM    4  H           1     -24.666  -3.424  -7.891  0.00  0.00     0.275 HD
HETATM    5  H           1     -24.263  -5.024  -8.330  0.00  0.00     0.275 HD
ENDBRANCH   1   2
BRANCH   1   6
HETATM    6  C           1     -24.059  -3.308 -10.433  0.00  0.00     0.248 C 
HETATM    7  O           1     -25.250  -3.267 -10.235  0.00  0.00    -0.271 OA
HETATM    8  N           1     -23.569  -3.129 -11.698  0.00  0.00    -0.349 N 
HETATM    9  H           1     -22.572  -3.164 -11.865  0.00  0.00     0.163 HD
BRANCH   8  10
HETATM   10  C           1     -24.480  -2.888 -12.801  0.00  0.00     0.235 C 
BRANCH  10  11
HETATM   11  C           1     -23.709  -2.364 -13.987  0.00  0.00     0.191 C 
HETATM   12  O           1     -24.166  -1.414 -14.659  0.00  0.00    -0.647 OA
HETATM   13  O           1     -22.613  -2.878 -14.297  0.00  0.00    -0.647 OA
ENDBRANCH  10  11
ENDBRANCH   8  10
ENDBRANCH   1   6
BRANCH   1  14
HETATM   14  C           1     -22.069  -4.588  -9.704  0.00  0.00     0.053 C 
BRANCH  14  15
HETATM   15  C           1     -20.706  -4.182  -9.159  0.00  0.00     0.115 C 
BRANCH  15  16
HETATM   16  C           1     -20.379  -5.018  -7.946  0.00  0.00     0.172 C 
HETATM   17  O           1     -19.278  -4.879  -7.370  0.00  0.00    -0.648 OA
HETATM   18  O           1     -21.207  -5.851  -7.518  0.00  0.00    -0.648 OA
ENDBRANCH  15  16
ENDBRANCH  14  15
ENDBRANCH   1  14
TORSDOF 7
ENDMDL
MODEL 2
REMARK VINA RESULT:      -5.9      1.790      2.109
REMARK  7 active torsions:
REMARK  status: ('A' for Active; 'I' for Inactive)
REMARK    1  A    between atoms: N_5  and  C_11 
REMARK    2  A    between atoms: C_9  and  C_15 
REMARK    3  A    between atoms: C_11  and  C_17 
REMARK    4  A    between atoms: C_11  and  C_12 
REMARK    5  A    between atoms: C_12  and  C_13 
REMARK    6  A    between atoms: C_13  and  C_14 
REMARK    7  A    between atoms: C_15  and  N_18 
REMARK       I    between atoms: C_17  and  N_18 
ROOT
HETATM    1  C           1     -21.330  -4.349 -11.054  0.00  0.00     0.275 C 
ENDROOT
BRANCH   1   2
HETATM    2  N           1     -20.287  -3.355 -11.471  0.00  0.00    -0.066 N 
HETATM    3  H           1     -19.527  -3.326 -10.753  0.00  0.00     0.275 HD
HETATM    4  H           1     -19.885  -3.639 -12.392  0.00  0.00     0.275 HD
HETATM    5  H           1     -20.722  -2.409 -11.554  0.00  0.00     0.275 HD
ENDBRANCH   1   2
BRANCH   1   6
HETATM    6  C           1     -22.647  -3.996 -11.701  0.00  0.00     0.248 C 
HETATM    7  O           1     -23.648  -4.603 -11.405  0.00  0.00    -0.271 OA
HETATM    8  N           1     -22.706  -2.987 -12.624  0.00  0.00    -0.349 N 
HETATM    9  H           1     -21.868  -2.478 -12.873  0.00  0.00     0.163 HD
BRANCH   8  10
HETATM   10  C           1     -23.972  -2.648 -13.247  0.00  0.00     0.235 C 
BRANCH  10  11
HETATM   11  C           1     -23.717  -1.982 -14.576  0.00  0.00     0.191 C 
HETATM   12  O           1     -22.761  -2.356 -15.289  0.00  0.00    -0.647 OA
HETATM   13  O           1     -24.462  -1.057 -14.965  0.00  0.00    -0.647 OA
ENDBRANCH  10  11
ENDBRANCH   8  10
ENDBRANCH   1   6
BRANCH   1  14
HETATM   14  C           1     -21.485  -4.317  -9.539  0.00  0.00     0.053 C 
BRANCH  14  15
HETATM   15  C           1     -20.110  -4.235  -8.889  0.00  0.00     0.115 C 
BRANCH  15  16
HETATM   16  C           1     -20.128  -4.978  -7.575  0.00  0.00     0.172 C 
HETATM   17  O           1     -20.028  -6.224  -7.561  0.00  0.00    -0.648 OA
HETATM   18  O           1     -20.244  -4.348  -6.502  0.00  0.00    -0.648 OA
ENDBRANCH  15  16
ENDBRANCH  14  15
ENDBRANCH   1  14
TORSDOF 7
ENDMDL
MODEL 3
REMARK VINA RESULT:      -5.7      1.699      6.218
REMARK  7 active torsions:
REMARK  status: ('A' for Active; 'I' for Inactive)
REMARK    1  A    between atoms: N_5  and  C_11 
REMARK    2  A    between atoms: C_9  and  C_15 
REMARK    3  A    between atoms: C_11  and  C_17 
REMARK    4  A    between atoms: C_11  and  C_12 
REMARK    5  A    between atoms: C_12  and  C_13 
REMARK    6  A    between atoms: C_13  and  C_14 
REMARK    7  A    between atoms: C_15  and  N_18 
REMARK       I    between atoms: C_17  and  N_18 
ROOT
HETATM    1  C           1     -22.982  -3.729 -10.632  0.00  0.00     0.275 C 
ENDROOT
BRANCH   1   2
HETATM    2  N           1     -24.312  -3.273 -10.109  0.00  0.00    -0.066 N 
HETATM    3  H           1     -24.349  -3.423  -9.074  0.00  0.00     0.275 HD
HETATM    4  H           1     -24.438  -2.258 -10.318  0.00  0.00     0.275 HD
HETATM    5  H           1     -25.073  -3.823 -10.567  0.00  0.00     0.275 HD
ENDBRANCH   1   2
BRANCH   1   6
HETATM    6  C           1     -22.018  -3.888  -9.482  0.00  0.00     0.248 C 
HETATM    7  O           1     -20.842  -4.065  -9.699  0.00  0.00    -0.271 OA
HETATM    8  N           1     -22.475  -3.832  -8.194  0.00  0.00    -0.349 N 
HETATM    9  H           1     -23.459  -3.684  -8.011  0.00  0.00     0.163 HD
BRANCH   8  10
HETATM   10  C           1     -21.548  -3.985  -7.088  0.00  0.00     0.235 C 
BRANCH  10  11
HETATM   11  C           1     -21.616  -5.399  -6.566  0.00  0.00     0.191 C 
HETATM   12  O           1     -22.344  -5.669  -5.586  0.00  0.00    -0.647 OA
HETATM   13  O           1     -20.944  -6.300  -7.112  0.00  0.00    -0.647 OA
ENDBRANCH  10  11
ENDBRANCH   8  10
ENDBRANCH   1   6
BRANCH   1  14
HETATM   14  C           1     -22.440  -2.693 -11.609  0.00  0.00     0.053 C 
BRANCH  14  15
HETATM   15  C           1     -22.457  -3.267 -13.020  0.00  0.00     0.115 C 
BRANCH  15  16
HETATM   16  C           1     -23.627  -2.694 -13.783  0.00  0.00     0.172 C 
HETATM   17  O           1     -23.481  -2.333 -14.971  0.00  0.00    -0.648 OA
HETATM   18  O           1     -24.740  -2.579 -13.227  0.00  0.00    -0.648 OA
ENDBRANCH  15  16
ENDBRANCH  14  15
ENDBRANCH   1  14
TORSDOF 7
ENDMDL
MODEL 4
REMARK VINA RESULT:      -5.6      2.139      6.765
REMARK  7 active torsions:
REMARK  status: ('A' for Active; 'I' for Inactive)
REMARK    1  A    between atoms: N_5  and  C_11 
REMARK    2  A    between atoms: C_9  and  C_15 
REMARK    3  A    between atoms: C_11  and  C_17 
REMARK    4  A    between atoms: C_11  and  C_12 
REMARK    5  A    between atoms: C_12  and  C_13 
REMARK    6  A    between atoms: C_13  and  C_14 
REMARK    7  A    between atoms: C_15  and  N_18 
REMARK       I    between atoms: C_17  and  N_18 
ROOT
HETATM    1  C           1     -22.871  -4.484  -9.132  0.00  0.00     0.275 C 
ENDROOT
BRANCH   1   2
HETATM    2  N           1     -24.002  -3.743  -8.482  0.00  0.00    -0.066 N 
HETATM    3  H           1     -23.848  -3.708  -7.449  0.00  0.00     0.275 HD
HETATM    4  H           1     -24.044  -2.771  -8.861  0.00  0.00     0.275 HD
HETATM    5  H           1     -24.901  -4.236  -8.683  0.00  0.00     0.275 HD
ENDBRANCH   1   2
BRANCH   1   6
HETATM    6  C           1     -21.805  -4.774  -8.104  0.00  0.00     0.248 C 
HETATM    7  O           1     -20.641  -4.791  -8.429  0.00  0.00    -0.271 OA
HETATM    8  N           1     -22.157  -5.019  -6.805  0.00  0.00    -0.349 N 
HETATM    9  H           1     -23.132  -5.005  -6.533  0.00  0.00     0.163 HD
BRANCH   8  10
HETATM   10  C           1     -21.133  -5.299  -5.816  0.00  0.00     0.235 C 
BRANCH  10  11
HETATM   11  C           1     -21.668  -6.274  -4.798  0.00  0.00     0.191 C 
HETATM   12  O           1     -22.002  -7.426  -5.151  0.00  0.00    -0.647 OA
HETATM   13  O           1     -21.778  -5.931  -3.601  0.00  0.00    -0.647 OA
ENDBRANCH  10  11
ENDBRANCH   8  10
ENDBRANCH   1   6
BRANCH   1  14
HETATM   14  C           1     -22.281  -3.630 -10.248  0.00  0.00     0.053 C 
BRANCH  14  15
HETATM   15  C           1     -22.824  -4.100 -11.590  0.00  0.00     0.115 C 
BRANCH  15  16
HETATM   16  C           1     -23.924  -3.171 -12.043  0.00  0.00     0.172 C 
HETATM   17  O           1     -24.991  -3.103 -11.395  0.00  0.00    -0.648 OA
HETATM   18  O           1     -23.768  -2.470 -13.066  0.00  0.00    -0.648 OA
ENDBRANCH  15  16
ENDBRANCH  14  15
ENDBRANCH   1  14
TORSDOF 7
ENDMDL
MODEL 5
REMARK VINA RESULT:      -5.6      2.109      2.753
REMARK  7 active torsions:
REMARK  status: ('A' for Active; 'I' for Inactive)
REMARK    1  A    between atoms: N_5  and  C_11 
REMARK    2  A    between atoms: C_9  and  C_15 
REMARK    3  A    between atoms: C_11  and  C_17 
REMARK    4  A    between atoms: C_11  and  C_12 
REMARK    5  A    between atoms: C_12  and  C_13 
REMARK    6  A    between atoms: C_13  and  C_14 
REMARK    7  A    between atoms: C_15  and  N_18 
REMARK       I    between atoms: C_17  and  N_18 
ROOT
HETATM    1  C           1     -22.173  -4.097  -8.032  0.00  0.00     0.275 C 
ENDROOT
BRANCH   1   2
HETATM    2  N           1     -23.557  -4.285  -7.485  0.00  0.00    -0.066 N 
HETATM    3  H           1     -24.111  -4.886  -8.137  0.00  0.00     0.275 HD
HETATM    4  H           1     -23.500  -4.748  -6.550  0.00  0.00     0.275 HD
HETATM    5  H           1     -24.023  -3.355  -7.388  0.00  0.00     0.275 HD
ENDBRANCH   1   2
BRANCH   1   6
HETATM    6  C           1     -22.218  -4.148  -9.539  0.00  0.00     0.248 C 
HETATM    7  O           1     -21.230  -3.886 -10.183  0.00  0.00    -0.271 OA
HETATM    8  N           1     -23.379  -4.492 -10.177  0.00  0.00    -0.349 N 
HETATM    9  H           1     -24.207  -4.712  -9.639  0.00  0.00     0.163 HD
BRANCH   8  10
HETATM   10  C           1     -23.423  -4.542 -11.626  0.00  0.00     0.235 C 
BRANCH  10  11
HETATM   11  C           1     -23.972  -3.242 -12.159  0.00  0.00     0.191 C 
HETATM   12  O           1     -25.192  -2.991 -12.059  0.00  0.00    -0.647 OA
HETATM   13  O           1     -23.207  -2.415 -12.700  0.00  0.00    -0.647 OA
ENDBRANCH  10  11
ENDBRANCH   8  10
ENDBRANCH   1   6
BRANCH   1  14
HETATM   14  C           1     -21.267  -5.206  -7.513  0.00  0.00     0.053 C 
BRANCH  14  15
HETATM   15  C           1     -20.923  -4.940  -6.053  0.00  0.00     0.115 C 
BRANCH  15  16
HETATM   16  C           1     -21.493  -6.041  -5.193  0.00  0.00     0.172 C 
HETATM   17  O           1     -22.725  -6.100  -4.988  0.00  0.00    -0.648 OA
HETATM   18  O           1     -20.734  -6.894  -4.684  0.00  0.00    -0.648 OA
ENDBRANCH  15  16
ENDBRANCH  14  15
ENDBRANCH   1  14
TORSDOF 7
ENDMDL
MODEL 6
REMARK VINA RESULT:      -5.0      3.130      4.341
REMARK  7 active torsions:
REMARK  status: ('A' for Active; 'I' for Inactive)
REMARK    1  A    between atoms: N_5  and  C_11 
REMARK    2  A    between atoms: C_9  and  C_15 
REMARK    3  A    between atoms: C_11  and  C_17 
REMARK    4  A    between atoms: C_11  and  C_12 
REMARK    5  A    between atoms: C_12  and  C_13 
REMARK    6  A    between atoms: C_13  and  C_14 
REMARK    7  A    between atoms: C_15  and  N_18 
REMARK       I    between atoms: C_17  and  N_18 
ROOT
HETATM    1  C           1     -21.386  -5.870  -7.079  0.00  0.00     0.275 C 
ENDROOT
BRANCH   1   2
HETATM    2  N           1     -19.941  -6.133  -7.384  0.00  0.00    -0.066 N 
HETATM    3  H           1     -19.492  -6.605  -6.566  0.00  0.00     0.275 HD
HETATM    4  H           1     -19.871  -6.752  -8.223  0.00  0.00     0.275 HD
HETATM    5  H           1     -19.455  -5.228  -7.574  0.00  0.00     0.275 HD
ENDBRANCH   1   2
BRANCH   1   6
HETATM    6  C           1     -21.829  -4.615  -7.789  0.00  0.00     0.248 C 
HETATM    7  O           1     -21.624  -3.534  -7.290  0.00  0.00    -0.271 OA
HETATM    8  N           1     -22.463  -4.701  -8.998  0.00  0.00    -0.349 N 
HETATM    9  H           1     -22.635  -5.606  -9.417  0.00  0.00     0.163 HD
BRANCH   8  10
HETATM   10  C           1     -22.889  -3.494  -9.681  0.00  0.00     0.235 C 
BRANCH  10  11
HETATM   11  C           1     -23.978  -3.832 -10.669  0.00  0.00     0.191 C 
HETATM   12  O           1     -25.068  -3.221 -10.630  0.00  0.00    -0.647 OA
HETATM   13  O           1     -23.791  -4.722 -11.526  0.00  0.00    -0.647 OA
ENDBRANCH  10  11
ENDBRANCH   8  10
ENDBRANCH   1   6
BRANCH   1  14
HETATM   14  C           1     -21.562  -5.693  -5.576  0.00  0.00     0.053 C 
BRANCH  14  15
HETATM   15  C           1     -21.385  -7.036  -4.880  0.00  0.00     0.115 C 
BRANCH  15  16
HETATM   16  C           1     -21.485  -6.847  -3.386  0.00  0.00     0.172 C 
HETATM   17  O           1     -20.796  -7.555  -2.620  0.00  0.00    -0.648 OA
HETATM   18  O           1     -22.257  -5.984  -2.915  0.00  0.00    -0.648 OA
ENDBRANCH  15  16
ENDBRANCH  14  15
ENDBRANCH   1  14
TORSDOF 7
ENDMDL
MODEL 7
REMARK VINA RESULT:      -5.0      2.765      6.974
REMARK  7 active torsions:
REMARK  status: ('A' for Active; 'I' for Inactive)
REMARK    1  A    between atoms: N_5  and  C_11 
REMARK    2  A    between atoms: C_9  and  C_15 
REMARK    3  A    between atoms: C_11  and  C_17 
REMARK    4  A    between atoms: C_11  and  C_12 
REMARK    5  A    between atoms: C_12  and  C_13 
REMARK    6  A    between atoms: C_13  and  C_14 
REMARK    7  A    between atoms: C_15  and  N_18 
REMARK       I    between atoms: C_17  and  N_18 
ROOT
HETATM    1  C           1     -21.391  -4.604  -8.308  0.00  0.00     0.275 C 
ENDROOT
BRANCH   1   2
HETATM    2  N           1     -22.363  -3.525  -7.934  0.00  0.00    -0.066 N 
HETATM    3  H           1     -22.044  -2.613  -8.335  0.00  0.00     0.275 HD
HETATM    4  H           1     -23.307  -3.761  -8.315  0.00  0.00     0.275 HD
HETATM    5  H           1     -22.414  -3.448  -6.893  0.00  0.00     0.275 HD
ENDBRANCH   1   2
BRANCH   1   6
HETATM    6  C           1     -20.800  -5.204  -7.056  0.00  0.00     0.248 C 
HETATM    7  O           1     -20.141  -4.518  -6.310  0.00  0.00    -0.271 OA
HETATM    8  N           1     -21.011  -6.524  -6.764  0.00  0.00    -0.349 N 
HETATM    9  H           1     -21.564  -7.098  -7.388  0.00  0.00     0.163 HD
BRANCH   8  10
HETATM   10  C           1     -20.444  -7.101  -5.560  0.00  0.00     0.235 C 
BRANCH  10  11
HETATM   11  C           1     -21.523  -7.254  -4.517  0.00  0.00     0.191 C 
HETATM   12  O           1     -21.705  -8.360  -3.964  0.00  0.00    -0.647 OA
HETATM   13  O           1     -22.235  -6.275  -4.206  0.00  0.00    -0.647 OA
ENDBRANCH  10  11
ENDBRANCH   8  10
ENDBRANCH   1   6
BRANCH   1  14
HETATM   14  C           1     -20.277  -4.010  -9.160  0.00  0.00     0.053 C 
BRANCH  14  15
HETATM   15  C           1     -20.352  -4.584 -10.569  0.00  0.00     0.115 C 
BRANCH  15  16
HETATM   16  C           1     -21.486  -3.932 -11.320  0.00  0.00     0.172 C 
HETATM   17  O           1     -22.468  -4.614 -11.685  0.00  0.00    -0.648 OA
HETATM   18  O           1     -21.444  -2.709 -11.578  0.00  0.00    -0.648 OA
ENDBRANCH  15  16
ENDBRANCH  14  15
ENDBRANCH   1  14
TORSDOF 7
ENDMDL
MODEL 8
REMARK VINA RESULT:      -5.0      4.827      8.834
REMARK  7 active torsions:
REMARK  status: ('A' for Active; 'I' for Inactive)
REMARK    1  A    between atoms: N_5  and  C_11 
REMARK    2  A    between atoms: C_9  and  C_15 
REMARK    3  A    between atoms: C_11  and  C_17 
REMARK    4  A    between atoms: C_11  and  C_12 
REMARK    5  A    between atoms: C_12  and  C_13 
REMARK    6  A    between atoms: C_13  and  C_14 
REMARK    7  A    between atoms: C_15  and  N_18 
REMARK       I    between atoms: C_17  and  N_18 
ROOT
HETATM    1  C           1     -20.479  -6.230  -5.231  0.00  0.00     0.275 C 
ENDROOT
BRANCH   1   2
HETATM    2  N           1     -20.896  -7.111  -6.372  0.00  0.00    -0.066 N 
HETATM    3  H           1     -21.315  -6.525  -7.130  0.00  0.00     0.275 HD
HETATM    4  H           1     -20.060  -7.615  -6.744  0.00  0.00     0.275 HD
HETATM    5  H           1     -21.603  -7.803  -6.036  0.00  0.00     0.275 HD
ENDBRANCH   1   2
BRANCH   1   6
HETATM    6  C           1     -21.564  -6.217  -4.184  0.00  0.00     0.248 C 
HETATM    7  O           1     -22.725  -6.186  -4.517  0.00  0.00    -0.271 OA
HETATM    8  N           1     -21.234  -6.239  -2.856  0.00  0.00    -0.349 N 
HETATM    9  H           1     -20.262  -6.264  -2.576  0.00  0.00     0.163 HD
BRANCH   8  10
HETATM   10  C           1     -22.277  -6.226  -1.849  0.00  0.00     0.235 C 
BRANCH  10  11
HETATM   11  C           1     -22.042  -7.346  -0.865  0.00  0.00     0.191 C 
HETATM   12  O           1     -20.958  -7.968  -0.874  0.00  0.00    -0.647 OA
HETATM   13  O           1     -22.931  -7.652  -0.042  0.00  0.00    -0.647 OA
ENDBRANCH  10  11
ENDBRANCH   8  10
ENDBRANCH   1   6
BRANCH   1  14
HETATM   14  C           1     -20.249  -4.813  -5.743  0.00  0.00     0.053 C 
BRANCH  14  15
HETATM   15  C           1     -20.084  -4.839  -7.257  0.00  0.00     0.115 C 
BRANCH  15  16
HETATM   16  C           1     -21.336  -4.307  -7.910  0.00  0.00     0.172 C 
HETATM   17  O           1     -22.401  -4.240  -7.258  0.00  0.00    -0.648 OA
HETATM   18  O           1     -21.310  -3.935  -9.103  0.00  0.00    -0.648 OA
ENDBRANCH  15  16
ENDBRANCH  14  15
ENDBRANCH   1  14
TORSDOF 7
ENDMDL
MODEL 9
REMARK VINA RESULT:      -4.8      5.585      7.817
REMARK  7 active torsions:
REMARK  status: ('A' for Active; 'I' for Inactive)
REMARK    1  A    between atoms: N_5  and  C_11 
REMARK    2  A    between atoms: C_9  and  C_15 
REMARK    3  A    between atoms: C_11  and  C_17 
REMARK    4  A    between atoms: C_11  and  C_12 
REMARK    5  A    between atoms: C_12  and  C_13 
REMARK    6  A    between atoms: C_13  and  C_14 
REMARK    7  A    between atoms: C_15  and  N_18 
REMARK       I    between atoms: C_17  and  N_18 
ROOT
HETATM    1  C           1     -21.603  -7.377  -3.600  0.00  0.00     0.275 C 
ENDROOT
BRANCH   1   2
HETATM    2  N           1     -20.589  -8.399  -4.019  0.00  0.00    -0.066 N 
HETATM    3  H           1     -20.378  -8.283  -5.037  0.00  0.00     0.275 HD
HETATM    4  H           1     -19.714  -8.267  -3.465  0.00  0.00     0.275 HD
HETATM    5  H           1     -20.970  -9.357  -3.850  0.00  0.00     0.275 HD
ENDBRANCH   1   2
BRANCH   1   6
HETATM    6  C           1     -21.704  -6.305  -4.657  0.00  0.00     0.248 C 
HETATM    7  O           1     -22.773  -6.049  -5.158  0.00  0.00    -0.271 OA
HETATM    8  N           1     -20.583  -5.624  -5.049  0.00  0.00    -0.349 N 
HETATM    9  H           1     -19.688  -5.838  -4.629  0.00  0.00     0.163 HD
BRANCH   8  10
HETATM   10  C           1     -20.679  -4.594  -6.065  0.00  0.00     0.235 C 
BRANCH  10  11
HETATM   11  C           1     -19.921  -5.028  -7.296  0.00  0.00     0.191 C 
HETATM   12  O           1     -19.904  -6.233  -7.626  0.00  0.00    -0.647 OA
HETATM   13  O           1     -19.312  -4.182  -7.985  0.00  0.00    -0.647 OA
ENDBRANCH  10  11
ENDBRANCH   8  10
ENDBRANCH   1   6
BRANCH   1  14
HETATM   14  C           1     -21.174  -6.749  -2.280  0.00  0.00     0.053 C 
BRANCH  14  15
HETATM   15  C           1     -22.379  -6.631  -1.356  0.00  0.00     0.115 C 
BRANCH  15  16
HETATM   16  C           1     -22.261  -7.641  -0.242  0.00  0.00     0.172 C 
HETATM   17  O           1     -21.166  -8.200  -0.019  0.00  0.00    -0.648 OA
HETATM   18  O           1     -23.259  -7.920   0.457  0.00  0.00    -0.648 OA
ENDBRANCH  15  16
ENDBRANCH  14  15
ENDBRANCH   1  14
TORSDOF 7
ENDMDL
