MODEL 1
REMARK VINA RESULT:      -6.3      0.000      0.000
REMARK  8 active torsions:
REMARK  status: ('A' for Active; 'I' for Inactive)
REMARK    1  A    between atoms: C_4  and  C_10 
REMARK    2  A    between atoms: C_4  and  C_20 
REMARK    3  A    between atoms: C_4  and  N_19 
REMARK    4  A    between atoms: Se_9  and  C_10 
REMARK    5  A    between atoms: C_11  and  C_18 
REMARK    6  A    between atoms: C_11  and  C_12 
REMARK    7  A    between atoms: C_11  and  N_16 
REMARK    8  A    between atoms: C_12  and  C_14 
REMARK       I    between atoms: C_18  and  N_19 
ROOT
HETATM    1  H           1     -34.968  -0.699 -11.501  0.00  0.00     0.163 HD
HETATM    2  O           1     -34.457  -3.094 -13.460  0.00  0.00    -0.271 OA
HETATM    3  C           1     -34.356  -2.428 -12.457  0.00  0.00     0.249 C 
HETATM    4  N           1     -35.053  -1.256 -12.341  0.00  0.00    -0.345 N 
ENDROOT
BRANCH   3   5
HETATM    5  C           1     -33.463  -2.891 -11.332  0.00  0.00     0.278 C 
BRANCH   5   6
HETATM    6  C           1     -34.112  -4.069 -10.618  0.00  0.00     0.021 C 
HETATM    7  C           1     -35.620  -4.018 -10.822  0.00  0.00     0.012 C 
BRANCH   6   8
HETATM    8  C           1     -33.567  -5.372 -11.191  0.00  0.00     0.002 C 
HETATM    9  C           1     -34.306  -6.548 -10.567  0.00  0.00     0.005 C 
ENDBRANCH   6   8
ENDBRANCH   5   6
BRANCH   5  10
HETATM   10  N           1     -33.261  -1.768 -10.360  0.00  0.00    -0.066 N 
HETATM   11  H           1     -33.893  -0.973 -10.609  0.00  0.00     0.275 HD
HETATM   12  H           1     -32.267  -1.448 -10.399  0.00  0.00     0.275 HD
HETATM   13  H           1     -33.483  -2.099  -9.394  0.00  0.00     0.275 HD
ENDBRANCH   5  10
ENDBRANCH   3   5
BRANCH   4  14
HETATM   14  C           1     -35.911  -0.812 -13.422  0.00  0.00     0.185 C 
BRANCH  14  15
HETATM   15  C           1     -37.147  -0.136 -12.843  0.00  0.00     0.039 C 
BRANCH  15  16
HETATM   16 Se           1     -37.028  -0.123 -10.897  0.00  0.00     0.000 Se
HETATM   17  H           1     -36.028  -1.200 -10.834  0.00  0.00     0.000 HD
ENDBRANCH  15  16
ENDBRANCH  14  15
BRANCH  14  18
HETATM   18  C           1     -35.161   0.167 -14.290  0.00  0.00     0.196 C 
HETATM   19  O           1     -34.829   1.282 -13.832  0.00  0.00    -0.646 OA
HETATM   20  O           1     -34.870  -0.135 -15.468  0.00  0.00    -0.646 OA
ENDBRANCH  14  18
ENDBRANCH   4  14
TORSDOF 8
ENDMDL
MODEL 2
REMARK VINA RESULT:      -6.2      1.984      2.432
REMARK  8 active torsions:
REMARK  status: ('A' for Active; 'I' for Inactive)
REMARK    1  A    between atoms: C_4  and  C_10 
REMARK    2  A    between atoms: C_4  and  C_20 
REMARK    3  A    between atoms: C_4  and  N_19 
REMARK    4  A    between atoms: Se_9  and  C_10 
REMARK    5  A    between atoms: C_11  and  C_18 
REMARK    6  A    between atoms: C_11  and  C_12 
REMARK    7  A    between atoms: C_11  and  N_16 
REMARK    8  A    between atoms: C_12  and  C_14 
REMARK       I    between atoms: C_18  and  N_19 
ROOT
HETATM    1  H           1     -33.942  -1.201 -14.377  0.00  0.00     0.163 HD
HETATM    2  O           1     -36.419  -1.511 -12.478  0.00  0.00    -0.271 OA
HETATM    3  C           1     -35.266  -1.576 -12.832  0.00  0.00     0.249 C 
HETATM    4  N           1     -34.908  -1.146 -14.081  0.00  0.00    -0.345 N 
ENDROOT
BRANCH   3   5
HETATM    5  C           1     -34.220  -2.131 -11.895  0.00  0.00     0.278 C 
BRANCH   5   6
HETATM    6  C           1     -34.167  -3.647 -12.032  0.00  0.00     0.021 C 
HETATM    7  C           1     -32.722  -4.116 -11.930  0.00  0.00     0.012 C 
BRANCH   6   8
HETATM    8  C           1     -34.986  -4.286 -10.918  0.00  0.00     0.002 C 
HETATM    9  C           1     -34.290  -5.552 -10.438  0.00  0.00     0.005 C 
ENDBRANCH   6   8
ENDBRANCH   5   6
BRANCH   5  10
HETATM   10  N           1     -34.571  -1.769 -10.484  0.00  0.00    -0.066 N 
HETATM   11  H           1     -34.272  -2.537  -9.841  0.00  0.00     0.275 HD
HETATM   12  H           1     -35.604  -1.633 -10.406  0.00  0.00     0.275 HD
HETATM   13  H           1     -34.082  -0.885 -10.219  0.00  0.00     0.275 HD
ENDBRANCH   5  10
ENDBRANCH   3   5
BRANCH   4  14
HETATM   14  C           1     -35.913  -0.613 -14.980  0.00  0.00     0.185 C 
BRANCH  14  15
HETATM   15  C           1     -35.799   0.905 -15.024  0.00  0.00     0.039 C 
BRANCH  15  16
HETATM   16 Se           1     -34.546   1.503 -13.656  0.00  0.00     0.000 Se
HETATM   17  H           1     -35.252   0.835 -12.551  0.00  0.00     0.000 HD
ENDBRANCH  15  16
ENDBRANCH  14  15
BRANCH  14  18
HETATM   18  C           1     -35.700  -1.174 -16.363  0.00  0.00     0.196 C 
HETATM   19  O           1     -34.727  -1.927 -16.590  0.00  0.00    -0.646 OA
HETATM   20  O           1     -36.496  -0.889 -17.284  0.00  0.00    -0.646 OA
ENDBRANCH  14  18
ENDBRANCH   4  14
TORSDOF 8
ENDMDL
MODEL 3
REMARK VINA RESULT:      -5.7     12.237     13.454
REMARK  8 active torsions:
REMARK  status: ('A' for Active; 'I' for Inactive)
REMARK    1  A    between atoms: C_4  and  C_10 
REMARK    2  A    between atoms: C_4  and  C_20 
REMARK    3  A    between atoms: C_4  and  N_19 
REMARK    4  A    between atoms: Se_9  and  C_10 
REMARK    5  A    between atoms: C_11  and  C_18 
REMARK    6  A    between atoms: C_11  and  C_12 
REMARK    7  A    between atoms: C_11  and  N_16 
REMARK    8  A    between atoms: C_12  and  C_14 
REMARK       I    between atoms: C_18  and  N_19 
ROOT
HETATM    1  H           1     -23.987  -5.005  -8.601  0.00  0.00     0.163 HD
HETATM    2  O           1     -21.472  -3.241  -7.968  0.00  0.00    -0.271 OA
HETATM    3  C           1     -22.344  -4.055  -7.777  0.00  0.00     0.249 C 
HETATM    4  N           1     -23.258  -4.323  -8.761  0.00  0.00    -0.345 N 
ENDROOT
BRANCH   3   5
HETATM    5  C           1     -22.424  -4.778  -6.455  0.00  0.00     0.278 C 
BRANCH   5   6
HETATM    6  C           1     -21.525  -6.006  -6.491  0.00  0.00     0.021 C 
HETATM    7  C           1     -20.070  -5.575  -6.372  0.00  0.00     0.012 C 
BRANCH   6   8
HETATM    8  C           1     -21.876  -6.926  -5.329  0.00  0.00     0.002 C 
HETATM    9  C           1     -21.263  -6.381  -4.046  0.00  0.00     0.005 C 
ENDBRANCH   6   8
ENDBRANCH   5   6
BRANCH   5  10
HETATM   10  N           1     -23.840  -5.203  -6.203  0.00  0.00    -0.066 N 
HETATM   11  H           1     -24.386  -4.394  -5.830  0.00  0.00     0.275 HD
HETATM   12  H           1     -23.850  -5.981  -5.506  0.00  0.00     0.275 HD
HETATM   13  H           1     -24.270  -5.529  -7.098  0.00  0.00     0.275 HD
ENDBRANCH   5  10
ENDBRANCH   3   5
BRANCH   4  14
HETATM   14  C           1     -23.180  -3.628 -10.031  0.00  0.00     0.185 C 
BRANCH  14  15
HETATM   15  C           1     -22.495  -4.523 -11.057  0.00  0.00     0.039 C 
BRANCH  15  16
HETATM   16 Se           1     -20.628  -3.995 -11.236  0.00  0.00     0.000 Se
HETATM   17  H           1     -20.266  -4.381  -9.863  0.00  0.00     0.000 HD
ENDBRANCH  15  16
ENDBRANCH  14  15
BRANCH  14  18
HETATM   18  C           1     -24.571  -3.291 -10.506  0.00  0.00     0.196 C 
HETATM   19  O           1     -25.500  -3.160  -9.680  0.00  0.00    -0.646 OA
HETATM   20  O           1     -24.797  -3.141 -11.727  0.00  0.00    -0.646 OA
ENDBRANCH  14  18
ENDBRANCH   4  14
TORSDOF 8
ENDMDL
MODEL 4
REMARK VINA RESULT:      -5.6      2.238      2.633
REMARK  8 active torsions:
REMARK  status: ('A' for Active; 'I' for Inactive)
REMARK    1  A    between atoms: C_4  and  C_10 
REMARK    2  A    between atoms: C_4  and  C_20 
REMARK    3  A    between atoms: C_4  and  N_19 
REMARK    4  A    between atoms: Se_9  and  C_10 
REMARK    5  A    between atoms: C_11  and  C_18 
REMARK    6  A    between atoms: C_11  and  C_12 
REMARK    7  A    between atoms: C_11  and  N_16 
REMARK    8  A    between atoms: C_12  and  C_14 
REMARK       I    between atoms: C_18  and  N_19 
ROOT
HETATM    1  H           1     -34.369  -1.441 -14.042  0.00  0.00     0.163 HD
HETATM    2  O           1     -35.759  -2.464 -11.423  0.00  0.00    -0.271 OA
HETATM    3  C           1     -35.080  -2.513 -12.421  0.00  0.00     0.249 C 
HETATM    4  N           1     -34.937  -1.400 -13.207  0.00  0.00    -0.345 N 
ENDROOT
BRANCH   3   5
HETATM    5  C           1     -34.388  -3.799 -12.801  0.00  0.00     0.278 C 
BRANCH   5   6
HETATM    6  C           1     -33.103  -3.942 -11.997  0.00  0.00     0.021 C 
HETATM    7  C           1     -33.060  -2.874 -10.912  0.00  0.00     0.012 C 
BRANCH   6   8
HETATM    8  C           1     -33.059  -5.321 -11.351  0.00  0.00     0.002 C 
HETATM    9  C           1     -34.282  -5.505 -10.462  0.00  0.00     0.005 C 
ENDBRANCH   6   8
ENDBRANCH   5   6
BRANCH   5  10
HETATM   10  N           1     -34.062  -3.778 -14.264  0.00  0.00    -0.066 N 
HETATM   11  H           1     -34.717  -4.411 -14.777  0.00  0.00     0.275 HD
HETATM   12  H           1     -33.080  -4.104 -14.406  0.00  0.00     0.275 HD
HETATM   13  H           1     -34.163  -2.804 -14.629  0.00  0.00     0.275 HD
ENDBRANCH   5  10
ENDBRANCH   3   5
BRANCH   4  14
HETATM   14  C           1     -35.602  -0.165 -12.841  0.00  0.00     0.185 C 
BRANCH  14  15
HETATM   15  C           1     -35.024   0.982 -13.660  0.00  0.00     0.039 C 
BRANCH  15  16
HETATM   16 Se           1     -35.087   0.525 -15.554  0.00  0.00     0.000 Se
HETATM   17  H           1     -36.369  -0.192 -15.458  0.00  0.00     0.000 HD
ENDBRANCH  15  16
ENDBRANCH  14  15
BRANCH  14  18
HETATM   18  C           1     -37.079  -0.288 -13.118  0.00  0.00     0.196 C 
HETATM   19  O           1     -37.909   0.167 -12.301  0.00  0.00    -0.646 OA
HETATM   20  O           1     -37.475  -0.844 -14.166  0.00  0.00    -0.646 OA
ENDBRANCH  14  18
ENDBRANCH   4  14
TORSDOF 8
ENDMDL
MODEL 5
REMARK VINA RESULT:      -5.5     13.180     14.895
REMARK  8 active torsions:
REMARK  status: ('A' for Active; 'I' for Inactive)
REMARK    1  A    between atoms: C_4  and  C_10 
REMARK    2  A    between atoms: C_4  and  C_20 
REMARK    3  A    between atoms: C_4  and  N_19 
REMARK    4  A    between atoms: Se_9  and  C_10 
REMARK    5  A    between atoms: C_11  and  C_18 
REMARK    6  A    between atoms: C_11  and  C_12 
REMARK    7  A    between atoms: C_11  and  N_16 
REMARK    8  A    between atoms: C_12  and  C_14 
REMARK       I    between atoms: C_18  and  N_19 
ROOT
HETATM    1  H           1     -22.722  -6.204  -7.693  0.00  0.00     0.163 HD
HETATM    2  O           1     -21.868  -3.188  -7.600  0.00  0.00    -0.271 OA
HETATM    3  C           1     -22.403  -4.187  -8.020  0.00  0.00     0.249 C 
HETATM    4  N           1     -22.275  -5.369  -7.341  0.00  0.00    -0.345 N 
ENDROOT
BRANCH   3   5
HETATM    5  C           1     -23.213  -4.130  -9.292  0.00  0.00     0.278 C 
BRANCH   5   6
HETATM    6  C           1     -22.403  -3.442 -10.382  0.00  0.00     0.021 C 
HETATM    7  C           1     -21.360  -4.407 -10.927  0.00  0.00     0.012 C 
BRANCH   6   8
HETATM    8  C           1     -23.333  -3.012 -11.509  0.00  0.00     0.002 C 
HETATM    9  C           1     -22.584  -3.068 -12.834  0.00  0.00     0.005 C 
ENDBRANCH   6   8
ENDBRANCH   5   6
BRANCH   5  10
HETATM   10  N           1     -24.476  -3.360  -9.046  0.00  0.00    -0.066 N 
HETATM   11  H           1     -24.390  -2.406  -9.463  0.00  0.00     0.275 HD
HETATM   12  H           1     -24.637  -3.276  -8.017  0.00  0.00     0.275 HD
HETATM   13  H           1     -25.281  -3.861  -9.485  0.00  0.00     0.275 HD
ENDBRANCH   5  10
ENDBRANCH   3   5
BRANCH   4  14
HETATM   14  C           1     -21.495  -5.422  -6.119  0.00  0.00     0.185 C 
BRANCH  14  15
HETATM   15  C           1     -22.003  -6.560  -5.244  0.00  0.00     0.039 C 
BRANCH  15  16
HETATM   16 Se           1     -21.395  -6.293  -3.412  0.00  0.00     0.000 Se
HETATM   17  H           1     -22.641  -6.787  -2.803  0.00  0.00     0.000 HD
ENDBRANCH  15  16
ENDBRANCH  14  15
BRANCH  14  18
HETATM   18  C           1     -20.045  -5.655  -6.458  0.00  0.00     0.196 C 
HETATM   19  O           1     -19.682  -6.752  -6.935  0.00  0.00    -0.646 OA
HETATM   20  O           1     -19.203  -4.751  -6.262  0.00  0.00    -0.646 OA
ENDBRANCH  14  18
ENDBRANCH   4  14
TORSDOF 8
ENDMDL
MODEL 6
REMARK VINA RESULT:      -5.3     15.244     16.525
REMARK  8 active torsions:
REMARK  status: ('A' for Active; 'I' for Inactive)
REMARK    1  A    between atoms: C_4  and  C_10 
REMARK    2  A    between atoms: C_4  and  C_20 
REMARK    3  A    between atoms: C_4  and  N_19 
REMARK    4  A    between atoms: Se_9  and  C_10 
REMARK    5  A    between atoms: C_11  and  C_18 
REMARK    6  A    between atoms: C_11  and  C_12 
REMARK    7  A    between atoms: C_11  and  N_16 
REMARK    8  A    between atoms: C_12  and  C_14 
REMARK       I    between atoms: C_18  and  N_19 
ROOT
HETATM    1  H           1     -20.546  -4.688  -4.436  0.00  0.00     0.163 HD
HETATM    2  O           1     -22.033  -7.430  -4.762  0.00  0.00    -0.271 OA
HETATM    3  C           1     -21.481  -6.517  -4.194  0.00  0.00     0.249 C 
HETATM    4  N           1     -21.007  -5.452  -4.911  0.00  0.00    -0.345 N 
ENDROOT
BRANCH   3   5
HETATM    5  C           1     -21.317  -6.551  -2.694  0.00  0.00     0.278 C 
BRANCH   5   6
HETATM    6  C           1     -21.432  -7.987  -2.202  0.00  0.00     0.021 C 
HETATM    7  C           1     -20.042  -8.595  -2.080  0.00  0.00     0.012 C 
BRANCH   6   8
HETATM    8  C           1     -22.113  -8.003  -0.839  0.00  0.00     0.002 C 
HETATM    9  C           1     -22.602  -9.412  -0.532  0.00  0.00     0.005 C 
ENDBRANCH   6   8
ENDBRANCH   5   6
BRANCH   5  10
HETATM   10  N           1     -22.387  -5.717  -2.056  0.00  0.00    -0.066 N 
HETATM   11  H           1     -23.060  -6.338  -1.552  0.00  0.00     0.275 HD
HETATM   12  H           1     -22.896  -5.179  -2.794  0.00  0.00     0.275 HD
HETATM   13  H           1     -21.952  -5.052  -1.377  0.00  0.00     0.275 HD
ENDBRANCH   5  10
ENDBRANCH   3   5
BRANCH   4  14
HETATM   14  C           1     -21.165  -5.420  -6.352  0.00  0.00     0.185 C 
BRANCH  14  15
HETATM   15  C           1     -21.641  -4.038  -6.779  0.00  0.00     0.039 C 
BRANCH  15  16
HETATM   16 Se           1     -22.666  -4.184  -8.430  0.00  0.00     0.000 Se
HETATM   17  H           1     -23.284  -2.854  -8.301  0.00  0.00     0.000 HD
ENDBRANCH  15  16
ENDBRANCH  14  15
BRANCH  14  18
HETATM   18  C           1     -19.843  -5.724  -7.010  0.00  0.00     0.196 C 
HETATM   19  O           1     -19.183  -4.804  -7.542  0.00  0.00    -0.646 OA
HETATM   20  O           1     -19.404  -6.895  -7.023  0.00  0.00    -0.646 OA
ENDBRANCH  14  18
ENDBRANCH   4  14
TORSDOF 8
ENDMDL
MODEL 7
REMARK VINA RESULT:      -5.3     14.684     16.487
REMARK  8 active torsions:
REMARK  status: ('A' for Active; 'I' for Inactive)
REMARK    1  A    between atoms: C_4  and  C_10 
REMARK    2  A    between atoms: C_4  and  C_20 
REMARK    3  A    between atoms: C_4  and  N_19 
REMARK    4  A    between atoms: Se_9  and  C_10 
REMARK    5  A    between atoms: C_11  and  C_18 
REMARK    6  A    between atoms: C_11  and  C_12 
REMARK    7  A    between atoms: C_11  and  N_16 
REMARK    8  A    between atoms: C_12  and  C_14 
REMARK       I    between atoms: C_18  and  N_19 
ROOT
HETATM    1  H           1     -19.887  -6.347  -5.138  0.00  0.00     0.163 HD
HETATM    2  O           1     -22.869  -5.626  -5.791  0.00  0.00    -0.271 OA
HETATM    3  C           1     -21.664  -5.559  -5.847  0.00  0.00     0.249 C 
HETATM    4  N           1     -20.895  -6.404  -5.092  0.00  0.00    -0.345 N 
ENDROOT
BRANCH   3   5
HETATM    5  C           1     -21.006  -4.544  -6.750  0.00  0.00     0.278 C 
BRANCH   5   6
HETATM    6  C           1     -21.385  -4.830  -8.197  0.00  0.00     0.021 C 
HETATM    7  C           1     -22.404  -3.802  -8.668  0.00  0.00     0.012 C 
BRANCH   6   8
HETATM    8  C           1     -20.140  -4.748  -9.072  0.00  0.00     0.002 C 
HETATM    9  C           1     -20.525  -4.238 -10.455  0.00  0.00     0.005 C 
ENDBRANCH   6   8
ENDBRANCH   5   6
BRANCH   5  10
HETATM   10  N           1     -19.517  -4.630  -6.597  0.00  0.00    -0.066 N 
HETATM   11  H           1     -19.078  -3.752  -6.954  0.00  0.00     0.275 HD
HETATM   12  H           1     -19.158  -5.446  -7.143  0.00  0.00     0.275 HD
HETATM   13  H           1     -19.277  -4.754  -5.588  0.00  0.00     0.275 HD
ENDBRANCH   5  10
ENDBRANCH   3   5
BRANCH   4  14
HETATM   14  C           1     -21.528  -7.378  -4.224  0.00  0.00     0.185 C 
BRANCH  14  15
HETATM   15  C           1     -20.737  -8.679  -4.262  0.00  0.00     0.039 C 
BRANCH  15  16
HETATM   16 Se           1     -21.903 -10.164  -3.778  0.00  0.00     0.000 Se
HETATM   17  H           1     -23.116  -9.545  -4.336  0.00  0.00     0.000 HD
ENDBRANCH  15  16
ENDBRANCH  14  15
BRANCH  14  18
HETATM   18  C           1     -21.559  -6.849  -2.812  0.00  0.00     0.196 C 
HETATM   19  O           1     -22.409  -5.993  -2.483  0.00  0.00    -0.646 OA
HETATM   20  O           1     -20.735  -7.266  -1.969  0.00  0.00    -0.646 OA
ENDBRANCH  14  18
ENDBRANCH   4  14
TORSDOF 8
ENDMDL
MODEL 8
REMARK VINA RESULT:      -5.0     16.861     18.053
REMARK  8 active torsions:
REMARK  status: ('A' for Active; 'I' for Inactive)
REMARK    1  A    between atoms: C_4  and  C_10 
REMARK    2  A    between atoms: C_4  and  C_20 
REMARK    3  A    between atoms: C_4  and  N_19 
REMARK    4  A    between atoms: Se_9  and  C_10 
REMARK    5  A    between atoms: C_11  and  C_18 
REMARK    6  A    between atoms: C_11  and  C_12 
REMARK    7  A    between atoms: C_11  and  N_16 
REMARK    8  A    between atoms: C_12  and  C_14 
REMARK       I    between atoms: C_18  and  N_19 
ROOT
HETATM    1  H           1     -22.037  -7.113  -3.248  0.00  0.00     0.163 HD
HETATM    2  O           1     -19.555  -8.660  -2.115  0.00  0.00    -0.271 OA
HETATM    3  C           1     -20.594  -8.044  -2.094  0.00  0.00     0.249 C 
HETATM    4  N           1     -21.167  -7.628  -3.266  0.00  0.00    -0.345 N 
ENDROOT
BRANCH   3   5
HETATM    5  C           1     -21.263  -7.738  -0.776  0.00  0.00     0.278 C 
BRANCH   5   6
HETATM    6  C           1     -21.664  -9.039  -0.094  0.00  0.00     0.021 C 
HETATM    7  C           1     -21.012  -9.114   1.279  0.00  0.00     0.012 C 
BRANCH   6   8
HETATM    8  C           1     -23.179  -9.084   0.061  0.00  0.00     0.002 C 
HETATM    9  C           1     -23.678 -10.493  -0.229  0.00  0.00     0.005 C 
ENDBRANCH   6   8
ENDBRANCH   5   6
BRANCH   5  10
HETATM   10  N           1     -22.485  -6.904  -1.018  0.00  0.00    -0.066 N 
HETATM   11  H           1     -22.218  -6.035  -1.535  0.00  0.00     0.275 HD
HETATM   12  H           1     -22.917  -6.646  -0.103  0.00  0.00     0.275 HD
HETATM   13  H           1     -23.171  -7.449  -1.587  0.00  0.00     0.275 HD
ENDBRANCH   5  10
ENDBRANCH   3   5
BRANCH   4  14
HETATM   14  C           1     -20.524  -7.923  -4.532  0.00  0.00     0.185 C 
BRANCH  14  15
HETATM   15  C           1     -21.190  -9.136  -5.167  0.00  0.00     0.039 C 
BRANCH  15  16
HETATM   16 Se           1     -19.934 -10.625  -5.200  0.00  0.00     0.000 Se
HETATM   17  H           1     -19.175 -10.112  -6.352  0.00  0.00     0.000 HD
ENDBRANCH  15  16
ENDBRANCH  14  15
BRANCH  14  18
HETATM   18  C           1     -20.656  -6.735  -5.452  0.00  0.00     0.196 C 
HETATM   19  O           1     -20.674  -6.903  -6.691  0.00  0.00    -0.646 OA
HETATM   20  O           1     -20.749  -5.582  -4.977  0.00  0.00    -0.646 OA
ENDBRANCH  14  18
ENDBRANCH   4  14
TORSDOF 8
ENDMDL
MODEL 9
REMARK VINA RESULT:      -5.0     16.727     18.008
REMARK  8 active torsions:
REMARK  status: ('A' for Active; 'I' for Inactive)
REMARK    1  A    between atoms: C_4  and  C_10 
REMARK    2  A    between atoms: C_4  and  C_20 
REMARK    3  A    between atoms: C_4  and  N_19 
REMARK    4  A    between atoms: Se_9  and  C_10 
REMARK    5  A    between atoms: C_11  and  C_18 
REMARK    6  A    between atoms: C_11  and  C_12 
REMARK    7  A    between atoms: C_11  and  N_16 
REMARK    8  A    between atoms: C_12  and  C_14 
REMARK       I    between atoms: C_18  and  N_19 
ROOT
HETATM    1  H           1     -20.975  -8.353  -2.363  0.00  0.00     0.163 HD
HETATM    2  O           1     -22.392 -10.645  -3.968  0.00  0.00    -0.271 OA
HETATM    3  C           1     -21.921 -10.074  -3.013  0.00  0.00     0.249 C 
HETATM    4  N           1     -21.369  -8.830  -3.163  0.00  0.00    -0.345 N 
ENDROOT
BRANCH   3   5
HETATM    5  C           1     -21.943 -10.733  -1.655  0.00  0.00     0.278 C 
BRANCH   5   6
HETATM    6  C           1     -22.990 -10.059  -0.780  0.00  0.00     0.021 C 
HETATM    7  C           1     -23.866 -11.120  -0.128  0.00  0.00     0.012 C 
BRANCH   6   8
HETATM    8  C           1     -22.297  -9.241   0.302  0.00  0.00     0.002 C 
HETATM    9  C           1     -23.146  -8.022   0.640  0.00  0.00     0.005 C 
ENDBRANCH   6   8
ENDBRANCH   5   6
BRANCH   5  10
HETATM   10  N           1     -20.595 -10.599  -1.014  0.00  0.00    -0.066 N 
HETATM   11  H           1     -20.709 -10.484   0.019  0.00  0.00     0.275 HD
HETATM   12  H           1     -20.104  -9.763  -1.405  0.00  0.00     0.275 HD
HETATM   13  H           1     -20.030 -11.456  -1.207  0.00  0.00     0.275 HD
ENDBRANCH   5  10
ENDBRANCH   3   5
BRANCH   4  14
HETATM   14  C           1     -21.349  -8.198  -4.467  0.00  0.00     0.185 C 
BRANCH  14  15
HETATM   15  C           1     -21.831  -6.759  -4.340  0.00  0.00     0.039 C 
BRANCH  15  16
HETATM   16 Se           1     -21.884  -6.255  -2.458  0.00  0.00     0.000 Se
HETATM   17  H           1     -20.423  -6.137  -2.329  0.00  0.00     0.000 HD
ENDBRANCH  15  16
ENDBRANCH  14  15
BRANCH  14  18
HETATM   18  C           1     -19.942  -8.212  -5.011  0.00  0.00     0.196 C 
HETATM   19  O           1     -19.692  -7.677  -6.113  0.00  0.00    -0.646 OA
HETATM   20  O           1     -19.025  -8.759  -4.360  0.00  0.00    -0.646 OA
ENDBRANCH  14  18
ENDBRANCH   4  14
TORSDOF 8
ENDMDL
