MODEL 1
REMARK VINA RESULT:      -6.1      0.000      0.000
REMARK  8 active torsions:
REMARK  status: ('A' for Active; 'I' for Inactive)
REMARK    1  A    between atoms: C_1  and  C_2 
REMARK    2  A    between atoms: C_1  and  C_13 
REMARK    3  A    between atoms: C_1  and  N_10 
REMARK    4  A    between atoms: C_2  and  C_15 
REMARK    5  A    between atoms: N_5  and  C_8 
REMARK    6  A    between atoms: Se_6  and  C_7 
REMARK    7  A    between atoms: C_7  and  C_8 
REMARK    8  A    between atoms: C_8  and  C_9 
REMARK       I    between atoms: C_9  and  N_10 
ROOT
HETATM    1  O           1     -36.987  -1.084 -13.208  0.00  0.00    -0.271 OA
HETATM    2  C           1     -36.003  -0.387 -13.134  0.00  0.00     0.249 C 
HETATM    3  N           1     -35.138  -0.533 -12.084  0.00  0.00    -0.345 N 
HETATM    4  H           1     -34.313   0.051 -12.023  0.00  0.00     0.163 HD
ENDROOT
BRANCH   2   5
HETATM    5  C           1     -35.728   0.645 -14.201  0.00  0.00     0.274 C 
BRANCH   5   6
HETATM    6  N           1     -34.300   0.535 -14.644  0.00  0.00    -0.067 N 
HETATM    7  H           1     -34.139   1.168 -15.461  0.00  0.00     0.275 HD
HETATM    8  H           1     -33.669   0.813 -13.860  0.00  0.00     0.275 HD
HETATM    9  H           1     -34.097  -0.451 -14.924  0.00  0.00     0.275 HD
ENDBRANCH   5   6
BRANCH   5  10
HETATM   10  C           1     -36.649   0.404 -15.390  0.00  0.00     0.045 C 
BRANCH  10  11
HETATM   11 Se           1     -35.868  -0.949 -16.555  0.00  0.00     0.000 Se
HETATM   12  H           1     -34.597  -0.227 -16.734  0.00  0.00     0.000 HD
ENDBRANCH  10  11
ENDBRANCH   5  10
ENDBRANCH   2   5
BRANCH   3  13
HETATM   13  C           1     -35.401  -1.524 -11.059  0.00  0.00     0.185 C 
BRANCH  13  14
HETATM   14  C           1     -34.085  -1.995 -10.457  0.00  0.00     0.040 C 
BRANCH  14  15
HETATM   15  C           1     -33.940  -3.497 -10.659  0.00  0.00    -0.020 C 
HETATM   16  C           1     -32.849  -3.768 -11.686  0.00  0.00     0.009 C 
HETATM   17  C           1     -35.260  -4.071 -11.157  0.00  0.00     0.009 C 
ENDBRANCH  14  15
ENDBRANCH  13  14
BRANCH  13  18
HETATM   18  C           1     -36.260  -0.913  -9.979  0.00  0.00     0.196 C 
HETATM   19  O           1     -37.506  -0.939 -10.082  0.00  0.00    -0.646 OA
HETATM   20  O           1     -35.726  -0.380  -8.983  0.00  0.00    -0.646 OA
ENDBRANCH  13  18
ENDBRANCH   3  13
TORSDOF 8
ENDMDL
MODEL 2
REMARK VINA RESULT:      -5.5     12.869     14.845
REMARK  8 active torsions:
REMARK  status: ('A' for Active; 'I' for Inactive)
REMARK    1  A    between atoms: C_1  and  C_2 
REMARK    2  A    between atoms: C_1  and  C_13 
REMARK    3  A    between atoms: C_1  and  N_10 
REMARK    4  A    between atoms: C_2  and  C_15 
REMARK    5  A    between atoms: N_5  and  C_8 
REMARK    6  A    between atoms: Se_6  and  C_7 
REMARK    7  A    between atoms: C_7  and  C_8 
REMARK    8  A    between atoms: C_8  and  C_9 
REMARK       I    between atoms: C_9  and  N_10 
ROOT
HETATM    1  O           1     -21.511  -3.512  -7.672  0.00  0.00    -0.271 OA
HETATM    2  C           1     -21.656  -4.690  -7.897  0.00  0.00     0.249 C 
HETATM    3  N           1     -22.320  -5.096  -9.023  0.00  0.00    -0.345 N 
HETATM    4  H           1     -22.441  -6.083  -9.212  0.00  0.00     0.163 HD
ENDROOT
BRANCH   2   5
HETATM    5  C           1     -21.106  -5.715  -6.936  0.00  0.00     0.274 C 
BRANCH   5   6
HETATM    6  N           1     -19.799  -6.235  -7.456  0.00  0.00    -0.067 N 
HETATM    7  H           1     -19.196  -5.432  -7.747  0.00  0.00     0.275 HD
HETATM    8  H           1     -19.316  -6.778  -6.705  0.00  0.00     0.275 HD
HETATM    9  H           1     -19.973  -6.855  -8.278  0.00  0.00     0.275 HD
ENDBRANCH   5   6
BRANCH   5  10
HETATM   10  C           1     -20.889  -5.068  -5.574  0.00  0.00     0.045 C 
BRANCH  10  11
HETATM   11 Se           1     -21.457  -6.296  -4.171  0.00  0.00     0.000 Se
HETATM   12  H           1     -21.904  -7.341  -5.107  0.00  0.00     0.000 HD
ENDBRANCH  10  11
ENDBRANCH   5  10
ENDBRANCH   2   5
BRANCH   3  13
HETATM   13  C           1     -22.849  -4.112  -9.948  0.00  0.00     0.185 C 
BRANCH  13  14
HETATM   14  C           1     -22.634  -4.590 -11.377  0.00  0.00     0.040 C 
BRANCH  14  15
HETATM   15  C           1     -21.912  -3.511 -12.172  0.00  0.00    -0.020 C 
HETATM   16  C           1     -20.876  -2.834 -11.284  0.00  0.00     0.009 C 
HETATM   17  C           1     -22.921  -2.476 -12.654  0.00  0.00     0.009 C 
ENDBRANCH  14  15
ENDBRANCH  13  14
BRANCH  13  18
HETATM   18  C           1     -24.325  -3.928  -9.694  0.00  0.00     0.196 C 
HETATM   19  O           1     -24.788  -2.783  -9.496  0.00  0.00    -0.646 OA
HETATM   20  O           1     -25.086  -4.920  -9.680  0.00  0.00    -0.646 OA
ENDBRANCH  13  18
ENDBRANCH   3  13
TORSDOF 8
ENDMDL
MODEL 3
REMARK VINA RESULT:      -5.1     15.657     17.217
REMARK  8 active torsions:
REMARK  status: ('A' for Active; 'I' for Inactive)
REMARK    1  A    between atoms: C_1  and  C_2 
REMARK    2  A    between atoms: C_1  and  C_13 
REMARK    3  A    between atoms: C_1  and  N_10 
REMARK    4  A    between atoms: C_2  and  C_15 
REMARK    5  A    between atoms: N_5  and  C_8 
REMARK    6  A    between atoms: Se_6  and  C_7 
REMARK    7  A    between atoms: C_7  and  C_8 
REMARK    8  A    between atoms: C_8  and  C_9 
REMARK       I    between atoms: C_9  and  N_10 
ROOT
HETATM    1  O           1     -20.237  -4.780  -5.764  0.00  0.00    -0.271 OA
HETATM    2  C           1     -20.781  -5.508  -6.559  0.00  0.00     0.249 C 
HETATM    3  N           1     -20.933  -6.839  -6.276  0.00  0.00    -0.345 N 
HETATM    4  H           1     -21.389  -7.449  -6.943  0.00  0.00     0.163 HD
ENDROOT
BRANCH   2   5
HETATM    5  C           1     -21.295  -4.951  -7.864  0.00  0.00     0.274 C 
BRANCH   5   6
HETATM    6  N           1     -22.179  -3.771  -7.589  0.00  0.00    -0.067 N 
HETATM    7  H           1     -23.058  -3.857  -8.149  0.00  0.00     0.275 HD
HETATM    8  H           1     -22.416  -3.743  -6.572  0.00  0.00     0.275 HD
HETATM    9  H           1     -21.681  -2.893  -7.857  0.00  0.00     0.275 HD
ENDBRANCH   5   6
BRANCH   5  10
HETATM   10  C           1     -20.118  -4.513  -8.727  0.00  0.00     0.045 C 
BRANCH  10  11
HETATM   11 Se           1     -20.723  -4.229 -10.558  0.00  0.00     0.000 Se
HETATM   12  H           1     -19.913  -3.017 -10.759  0.00  0.00     0.000 HD
ENDBRANCH  10  11
ENDBRANCH   5  10
ENDBRANCH   2   5
BRANCH   3  13
HETATM   13  C           1     -20.440  -7.375  -5.023  0.00  0.00     0.185 C 
BRANCH  13  14
HETATM   14  C           1     -21.573  -7.414  -4.006  0.00  0.00     0.040 C 
BRANCH  14  15
HETATM   15  C           1     -21.078  -6.872  -2.672  0.00  0.00    -0.020 C 
HETATM   16  C           1     -20.560  -8.022  -1.818  0.00  0.00     0.009 C 
HETATM   17  C           1     -22.226  -6.179  -1.949  0.00  0.00     0.009 C 
ENDBRANCH  14  15
ENDBRANCH  13  14
BRANCH  13  18
HETATM   18  C           1     -19.915  -8.772  -5.247  0.00  0.00     0.196 C 
HETATM   19  O           1     -18.721  -9.041  -4.990  0.00  0.00    -0.646 OA
HETATM   20  O           1     -20.674  -9.662  -5.689  0.00  0.00    -0.646 OA
ENDBRANCH  13  18
ENDBRANCH   3  13
TORSDOF 8
ENDMDL
MODEL 4
REMARK VINA RESULT:      -4.9      1.766      2.178
REMARK  8 active torsions:
REMARK  status: ('A' for Active; 'I' for Inactive)
REMARK    1  A    between atoms: C_1  and  C_2 
REMARK    2  A    between atoms: C_1  and  C_13 
REMARK    3  A    between atoms: C_1  and  N_10 
REMARK    4  A    between atoms: C_2  and  C_15 
REMARK    5  A    between atoms: N_5  and  C_8 
REMARK    6  A    between atoms: Se_6  and  C_7 
REMARK    7  A    between atoms: C_7  and  C_8 
REMARK    8  A    between atoms: C_8  and  C_9 
REMARK       I    between atoms: C_9  and  N_10 
ROOT
HETATM    1  O           1     -34.968  -2.096 -14.727  0.00  0.00    -0.271 OA
HETATM    2  C           1     -35.353  -0.952 -14.690  0.00  0.00     0.249 C 
HETATM    3  N           1     -35.767  -0.408 -13.504  0.00  0.00    -0.345 N 
HETATM    4  H           1     -36.090   0.552 -13.472  0.00  0.00     0.163 HD
ENDROOT
BRANCH   2   5
HETATM    5  C           1     -35.378  -0.122 -15.950  0.00  0.00     0.274 C 
BRANCH   5   6
HETATM    6  N           1     -36.032  -0.904 -17.050  0.00  0.00    -0.067 N 
HETATM    7  H           1     -35.320  -1.145 -17.777  0.00  0.00     0.275 HD
HETATM    8  H           1     -36.439  -1.783 -16.658  0.00  0.00     0.275 HD
HETATM    9  H           1     -36.790  -0.331 -17.482  0.00  0.00     0.275 HD
ENDBRANCH   5   6
BRANCH   5  10
HETATM   10  C           1     -36.166   1.157 -15.699  0.00  0.00     0.045 C 
BRANCH  10  11
HETATM   11 Se           1     -38.075   0.765 -15.737  0.00  0.00     0.000 Se
HETATM   12  H           1     -38.474   2.088 -15.231  0.00  0.00     0.000 HD
ENDBRANCH  10  11
ENDBRANCH   5  10
ENDBRANCH   2   5
BRANCH   3  13
HETATM   13  C           1     -35.744  -1.204 -12.292  0.00  0.00     0.185 C 
BRANCH  13  14
HETATM   14  C           1     -34.328  -1.235 -11.732  0.00  0.00     0.040 C 
BRANCH  14  15
HETATM   15  C           1     -34.189  -2.406 -10.768  0.00  0.00    -0.020 C 
HETATM   16  C           1     -33.696  -1.895  -9.419  0.00  0.00     0.009 C 
HETATM   17  C           1     -33.188  -3.408 -11.328  0.00  0.00     0.009 C 
ENDBRANCH  14  15
ENDBRANCH  13  14
BRANCH  13  18
HETATM   18  C           1     -36.676  -0.595 -11.274  0.00  0.00     0.196 C 
HETATM   19  O           1     -36.311   0.398 -10.608  0.00  0.00    -0.646 OA
HETATM   20  O           1     -37.812  -1.084 -11.095  0.00  0.00    -0.646 OA
ENDBRANCH  13  18
ENDBRANCH   3  13
TORSDOF 8
ENDMDL
MODEL 5
REMARK VINA RESULT:      -4.8     17.826     19.057
REMARK  8 active torsions:
REMARK  status: ('A' for Active; 'I' for Inactive)
REMARK    1  A    between atoms: C_1  and  C_2 
REMARK    2  A    between atoms: C_1  and  C_13 
REMARK    3  A    between atoms: C_1  and  N_10 
REMARK    4  A    between atoms: C_2  and  C_15 
REMARK    5  A    between atoms: N_5  and  C_8 
REMARK    6  A    between atoms: Se_6  and  C_7 
REMARK    7  A    between atoms: C_7  and  C_8 
REMARK    8  A    between atoms: C_8  and  C_9 
REMARK       I    between atoms: C_9  and  N_10 
ROOT
HETATM    1  O           1     -22.138 -10.178  -3.592  0.00  0.00    -0.271 OA
HETATM    2  C           1     -21.077  -9.647  -3.817  0.00  0.00     0.249 C 
HETATM    3  N           1     -20.747  -8.481  -3.180  0.00  0.00    -0.345 N 
HETATM    4  H           1     -19.857  -8.036  -3.369  0.00  0.00     0.163 HD
ENDROOT
BRANCH   2   5
HETATM    5  C           1     -20.116 -10.268  -4.801  0.00  0.00     0.274 C 
BRANCH   5   6
HETATM    6  N           1     -20.836 -10.565  -6.082  0.00  0.00    -0.067 N 
HETATM    7  H           1     -20.656  -9.797  -6.769  0.00  0.00     0.275 HD
HETATM    8  H           1     -20.491 -11.469  -6.474  0.00  0.00     0.275 HD
HETATM    9  H           1     -21.862 -10.632  -5.898  0.00  0.00     0.275 HD
ENDBRANCH   5   6
BRANCH   5  10
HETATM   10  C           1     -18.973  -9.299  -5.074  0.00  0.00     0.045 C 
BRANCH  10  11
HETATM   11 Se           1     -17.379  -9.885  -4.118  0.00  0.00     0.000 Se
HETATM   12  H           1     -17.949  -9.638  -2.783  0.00  0.00     0.000 HD
ENDBRANCH  10  11
ENDBRANCH   5  10
ENDBRANCH   2   5
BRANCH   3  13
HETATM   13  C           1     -21.670  -7.884  -2.235  0.00  0.00     0.185 C 
BRANCH  13  14
HETATM   14  C           1     -21.023  -7.831  -0.857  0.00  0.00     0.040 C 
BRANCH  14  15
HETATM   15  C           1     -21.798  -8.723   0.103  0.00  0.00    -0.020 C 
HETATM   16  C           1     -23.146  -8.085   0.411  0.00  0.00     0.009 C 
HETATM   17  C           1     -21.006  -8.886   1.394  0.00  0.00     0.009 C 
ENDBRANCH  14  15
ENDBRANCH  13  14
BRANCH  13  18
HETATM   18  C           1     -22.012  -6.485  -2.685  0.00  0.00     0.196 C 
HETATM   19  O           1     -22.240  -6.254  -3.893  0.00  0.00    -0.646 OA
HETATM   20  O           1     -22.068  -5.555  -1.850  0.00  0.00    -0.646 OA
ENDBRANCH  13  18
ENDBRANCH   3  13
TORSDOF 8
ENDMDL
MODEL 6
REMARK VINA RESULT:      -4.8     16.372     18.307
REMARK  8 active torsions:
REMARK  status: ('A' for Active; 'I' for Inactive)
REMARK    1  A    between atoms: C_1  and  C_2 
REMARK    2  A    between atoms: C_1  and  C_13 
REMARK    3  A    between atoms: C_1  and  N_10 
REMARK    4  A    between atoms: C_2  and  C_15 
REMARK    5  A    between atoms: N_5  and  C_8 
REMARK    6  A    between atoms: Se_6  and  C_7 
REMARK    7  A    between atoms: C_7  and  C_8 
REMARK    8  A    between atoms: C_8  and  C_9 
REMARK       I    between atoms: C_9  and  N_10 
ROOT
HETATM    1  O           1     -19.275  -8.628  -4.180  0.00  0.00    -0.271 OA
HETATM    2  C           1     -20.060  -9.055  -4.993  0.00  0.00     0.249 C 
HETATM    3  N           1     -20.839  -8.190  -5.712  0.00  0.00    -0.345 N 
HETATM    4  H           1     -21.497  -8.548  -6.394  0.00  0.00     0.163 HD
ENDROOT
BRANCH   2   5
HETATM    5  C           1     -20.181 -10.543  -5.216  0.00  0.00     0.274 C 
BRANCH   5   6
HETATM    6  N           1     -21.120 -10.801  -6.357  0.00  0.00    -0.067 N 
HETATM    7  H           1     -21.588  -9.908  -6.632  0.00  0.00     0.275 HD
HETATM    8  H           1     -20.584 -11.178  -7.170  0.00  0.00     0.275 HD
HETATM    9  H           1     -21.843 -11.495  -6.063  0.00  0.00     0.275 HD
ENDBRANCH   5   6
BRANCH   5  10
HETATM   10  C           1     -18.810 -11.120  -5.546  0.00  0.00     0.045 C 
BRANCH  10  11
HETATM   11 Se           1     -18.201 -12.238  -4.071  0.00  0.00     0.000 Se
HETATM   12  H           1     -16.791 -11.833  -4.196  0.00  0.00     0.000 HD
ENDBRANCH  10  11
ENDBRANCH   5  10
ENDBRANCH   2   5
BRANCH   3  13
HETATM   13  C           1     -20.723  -6.760  -5.499  0.00  0.00     0.185 C 
BRANCH  13  14
HETATM   14  C           1     -20.803  -6.039  -6.837  0.00  0.00     0.040 C 
BRANCH  14  15
HETATM   15  C           1     -20.278  -4.618  -6.681  0.00  0.00    -0.020 C 
HETATM   16  C           1     -21.321  -3.633  -7.195  0.00  0.00     0.009 C 
HETATM   17  C           1     -18.993  -4.461  -7.482  0.00  0.00     0.009 C 
ENDBRANCH  14  15
ENDBRANCH  13  14
BRANCH  13  18
HETATM   18  C           1     -21.848  -6.294  -4.607  0.00  0.00     0.196 C 
HETATM   19  O           1     -21.612  -5.966  -3.424  0.00  0.00    -0.646 OA
HETATM   20  O           1     -23.015  -6.236  -5.051  0.00  0.00    -0.646 OA
ENDBRANCH  13  18
ENDBRANCH   3  13
TORSDOF 8
ENDMDL
MODEL 7
REMARK VINA RESULT:      -4.7      1.871      2.152
REMARK  8 active torsions:
REMARK  status: ('A' for Active; 'I' for Inactive)
REMARK    1  A    between atoms: C_1  and  C_2 
REMARK    2  A    between atoms: C_1  and  C_13 
REMARK    3  A    between atoms: C_1  and  N_10 
REMARK    4  A    between atoms: C_2  and  C_15 
REMARK    5  A    between atoms: N_5  and  C_8 
REMARK    6  A    between atoms: Se_6  and  C_7 
REMARK    7  A    between atoms: C_7  and  C_8 
REMARK    8  A    between atoms: C_8  and  C_9 
REMARK       I    between atoms: C_9  and  N_10 
ROOT
HETATM    1  O           1     -37.008  -0.863 -13.706  0.00  0.00    -0.271 OA
HETATM    2  C           1     -35.904  -0.782 -14.189  0.00  0.00     0.249 C 
HETATM    3  N           1     -34.851  -1.430 -13.602  0.00  0.00    -0.345 N 
HETATM    4  H           1     -33.925  -1.362 -14.007  0.00  0.00     0.163 HD
ENDROOT
BRANCH   2   5
HETATM    5  C           1     -35.686   0.032 -15.441  0.00  0.00     0.274 C 
BRANCH   5   6
HETATM    6  N           1     -36.917  -0.026 -16.295  0.00  0.00    -0.067 N 
HETATM    7  H           1     -37.759  -0.140 -15.685  0.00  0.00     0.275 HD
HETATM    8  H           1     -37.003   0.859 -16.843  0.00  0.00     0.275 HD
HETATM    9  H           1     -36.850  -0.837 -16.949  0.00  0.00     0.275 HD
ENDBRANCH   5   6
BRANCH   5  10
HETATM   10  C           1     -35.400   1.479 -15.061  0.00  0.00     0.045 C 
BRANCH  10  11
HETATM   11 Se           1     -36.349   2.672 -16.275  0.00  0.00     0.000 Se
HETATM   12  H           1     -35.880   1.992 -17.494  0.00  0.00     0.000 HD
ENDBRANCH  10  11
ENDBRANCH   5  10
ENDBRANCH   2   5
BRANCH   3  13
HETATM   13  C           1     -35.060  -2.213 -12.400  0.00  0.00     0.185 C 
BRANCH  13  14
HETATM   14  C           1     -34.190  -3.462 -12.450  0.00  0.00     0.040 C 
BRANCH  14  15
HETATM   15  C           1     -34.228  -4.162 -11.098  0.00  0.00    -0.020 C 
HETATM   16  C           1     -33.345  -5.403 -11.145  0.00  0.00     0.009 C 
HETATM   17  C           1     -35.660  -4.569 -10.777  0.00  0.00     0.009 C 
ENDBRANCH  14  15
ENDBRANCH  13  14
BRANCH  13  18
HETATM   18  C           1     -34.687  -1.388 -11.193  0.00  0.00     0.196 C 
HETATM   19  O           1     -33.512  -1.400 -10.765  0.00  0.00    -0.646 OA
HETATM   20  O           1     -35.553  -0.692 -10.619  0.00  0.00    -0.646 OA
ENDBRANCH  13  18
ENDBRANCH   3  13
TORSDOF 8
ENDMDL
MODEL 8
REMARK VINA RESULT:      -4.6     18.228     18.952
REMARK  8 active torsions:
REMARK  status: ('A' for Active; 'I' for Inactive)
REMARK    1  A    between atoms: C_1  and  C_2 
REMARK    2  A    between atoms: C_1  and  C_13 
REMARK    3  A    between atoms: C_1  and  N_10 
REMARK    4  A    between atoms: C_2  and  C_15 
REMARK    5  A    between atoms: N_5  and  C_8 
REMARK    6  A    between atoms: Se_6  and  C_7 
REMARK    7  A    between atoms: C_7  and  C_8 
REMARK    8  A    between atoms: C_8  and  C_9 
REMARK       I    between atoms: C_9  and  N_10 
ROOT
HETATM    1  O           1     -22.449 -10.112  -3.550  0.00  0.00    -0.271 OA
HETATM    2  C           1     -21.423  -9.510  -3.339  0.00  0.00     0.249 C 
HETATM    3  N           1     -21.186  -8.976  -2.101  0.00  0.00    -0.345 N 
HETATM    4  H           1     -20.326  -8.471  -1.924  0.00  0.00     0.163 HD
ENDROOT
BRANCH   2   5
HETATM    5  C           1     -20.403  -9.348  -4.439  0.00  0.00     0.274 C 
BRANCH   5   6
HETATM    6  N           1     -20.946  -9.925  -5.712  0.00  0.00    -0.067 N 
HETATM    7  H           1     -21.970 -10.106  -5.604  0.00  0.00     0.275 HD
HETATM    8  H           1     -20.793  -9.249  -6.493  0.00  0.00     0.275 HD
HETATM    9  H           1     -20.455 -10.822  -5.925  0.00  0.00     0.275 HD
ENDBRANCH   5   6
BRANCH   5  10
HETATM   10  C           1     -20.104  -7.868  -4.639  0.00  0.00     0.045 C 
BRANCH  10  11
HETATM   11 Se           1     -21.734  -6.940  -5.167  0.00  0.00     0.000 Se
HETATM   12  H           1     -21.219  -5.602  -4.829  0.00  0.00     0.000 HD
ENDBRANCH  10  11
ENDBRANCH   5  10
ENDBRANCH   2   5
BRANCH   3  13
HETATM   13  C           1     -22.166  -9.131  -1.044  0.00  0.00     0.185 C 
BRANCH  13  14
HETATM   14  C           1     -21.709 -10.222  -0.084  0.00  0.00     0.040 C 
BRANCH  14  15
HETATM   15  C           1     -22.575 -11.460  -0.272  0.00  0.00    -0.020 C 
HETATM   16  C           1     -24.044 -11.071  -0.181  0.00  0.00     0.009 C 
HETATM   17  C           1     -22.250 -12.476   0.815  0.00  0.00     0.009 C 
ENDBRANCH  14  15
ENDBRANCH  13  14
BRANCH  13  18
HETATM   18  C           1     -22.307  -7.829  -0.296  0.00  0.00     0.196 C 
HETATM   19  O           1     -22.686  -6.800  -0.898  0.00  0.00    -0.646 OA
HETATM   20  O           1     -22.046  -7.777   0.926  0.00  0.00    -0.646 OA
ENDBRANCH  13  18
ENDBRANCH   3  13
TORSDOF 8
ENDMDL
MODEL 9
REMARK VINA RESULT:      -4.5     16.236     18.285
REMARK  8 active torsions:
REMARK  status: ('A' for Active; 'I' for Inactive)
REMARK    1  A    between atoms: C_1  and  C_2 
REMARK    2  A    between atoms: C_1  and  C_13 
REMARK    3  A    between atoms: C_1  and  N_10 
REMARK    4  A    between atoms: C_2  and  C_15 
REMARK    5  A    between atoms: N_5  and  C_8 
REMARK    6  A    between atoms: Se_6  and  C_7 
REMARK    7  A    between atoms: C_7  and  C_8 
REMARK    8  A    between atoms: C_8  and  C_9 
REMARK       I    between atoms: C_9  and  N_10 
ROOT
HETATM    1  O           1     -19.140  -8.774  -4.676  0.00  0.00    -0.271 OA
HETATM    2  C           1     -20.249  -9.247  -4.755  0.00  0.00     0.249 C 
HETATM    3  N           1     -21.347  -8.450  -4.579  0.00  0.00    -0.345 N 
HETATM    4  H           1     -22.276  -8.846  -4.646  0.00  0.00     0.163 HD
ENDROOT
BRANCH   2   5
HETATM    5  C           1     -20.423 -10.717  -5.049  0.00  0.00     0.274 C 
BRANCH   5   6
HETATM    6  N           1     -21.029 -10.885  -6.411  0.00  0.00    -0.067 N 
HETATM    7  H           1     -21.369 -11.867  -6.523  0.00  0.00     0.275 HD
HETATM    8  H           1     -21.831 -10.225  -6.519  0.00  0.00     0.275 HD
HETATM    9  H           1     -20.309 -10.682  -7.140  0.00  0.00     0.275 HD
ENDBRANCH   5   6
BRANCH   5  10
HETATM   10  C           1     -19.066 -11.407  -5.009  0.00  0.00     0.045 C 
BRANCH  10  11
HETATM   11 Se           1     -18.469 -11.777  -6.827  0.00  0.00     0.000 Se
HETATM   12  H           1     -17.101 -12.144  -6.426  0.00  0.00     0.000 HD
ENDBRANCH  10  11
ENDBRANCH   5  10
ENDBRANCH   2   5
BRANCH   3  13
HETATM   13  C           1     -21.180  -7.037  -4.297  0.00  0.00     0.185 C 
BRANCH  13  14
HETATM   14  C           1     -22.084  -6.225  -5.215  0.00  0.00     0.040 C 
BRANCH  14  15
HETATM   15  C           1     -21.246  -5.569  -6.303  0.00  0.00    -0.020 C 
HETATM   16  C           1     -20.124  -4.763  -5.662  0.00  0.00     0.009 C 
HETATM   17  C           1     -22.126  -4.643  -7.132  0.00  0.00     0.009 C 
ENDBRANCH  14  15
ENDBRANCH  13  14
BRANCH  13  18
HETATM   18  C           1     -21.549  -6.766  -2.859  0.00  0.00     0.196 C 
HETATM   19  O           1     -22.452  -5.945  -2.589  0.00  0.00    -0.646 OA
HETATM   20  O           1     -20.951  -7.362  -1.937  0.00  0.00    -0.646 OA
ENDBRANCH  13  18
ENDBRANCH   3  13
TORSDOF 8
ENDMDL
