MODEL 1
REMARK VINA RESULT:      -6.4      0.000      0.000
REMARK  6 active torsions:
REMARK  status: ('A' for Active; 'I' for Inactive)
REMARK    1  A    between atoms: C_1  and  C_2 
REMARK    2  A    between atoms: C_1  and  C_17 
REMARK    3  A    between atoms: C_1  and  N_10 
REMARK       I    between atoms: C_2  and  N_3 
REMARK    4  A    between atoms: N_3  and  C_19 
REMARK    5  A    between atoms: C_12  and  C_19 
REMARK       I    between atoms: N_15  and  C_16 
REMARK    6  A    between atoms: C_16  and  C_17 
ROOT
HETATM    1  C           1     -23.106  -2.680 -12.348  0.00  0.00     0.283 C 
ENDROOT
BRANCH   1   2
HETATM    2  C           1     -23.760  -3.175 -11.081  0.00  0.00     0.249 C 
HETATM    3  N           1     -22.987  -3.573 -10.023  0.00  0.00    -0.349 N 
HETATM    4  H           1     -21.978  -3.536 -10.090  0.00  0.00     0.163 HD
HETATM    5  O           1     -24.964  -3.219 -11.000  0.00  0.00    -0.271 OA
BRANCH   3   6
HETATM    6  C           1     -23.616  -4.048  -8.805  0.00  0.00     0.235 C 
BRANCH   6   7
HETATM    7  C           1     -22.574  -4.184  -7.721  0.00  0.00     0.191 C 
HETATM    8  O           1     -22.869  -4.727  -6.635  0.00  0.00    -0.647 OA
HETATM    9  O           1     -21.416  -3.755  -7.911  0.00  0.00    -0.647 OA
ENDBRANCH   6   7
ENDBRANCH   3   6
ENDBRANCH   1   2
BRANCH   1  10
HETATM   10  C           1     -24.143  -2.609 -13.461  0.00  0.00     0.145 C 
BRANCH  10  11
HETATM   11  C           1     -23.563  -1.872 -14.643  0.00  0.00     0.217 C 
HETATM   12  O           1     -22.669  -2.369 -15.287  0.00  0.00    -0.274 OA
HETATM   13  N           1     -24.049  -0.639 -14.987  0.00  0.00    -0.370 N 
HETATM   14  H           1     -24.798  -0.223 -14.449  0.00  0.00     0.159 HD
HETATM   15  H           1     -23.659  -0.144 -15.780  0.00  0.00     0.159 HD
ENDBRANCH  10  11
ENDBRANCH   1  10
BRANCH   1  16
HETATM   16  N           1     -22.010  -3.625 -12.747  0.00  0.00    -0.066 N 
HETATM   17  H           1     -21.816  -4.285 -11.959  0.00  0.00     0.275 HD
HETATM   18  H           1     -21.145  -3.081 -12.968  0.00  0.00     0.275 HD
HETATM   19  H           1     -22.306  -4.167 -13.590  0.00  0.00     0.275 HD
ENDBRANCH   1  16
TORSDOF 6
ENDMDL
MODEL 2
REMARK VINA RESULT:      -6.0      8.053      9.498
REMARK  6 active torsions:
REMARK  status: ('A' for Active; 'I' for Inactive)
REMARK    1  A    between atoms: C_1  and  C_2 
REMARK    2  A    between atoms: C_1  and  C_17 
REMARK    3  A    between atoms: C_1  and  N_10 
REMARK       I    between atoms: C_2  and  N_3 
REMARK    4  A    between atoms: N_3  and  C_19 
REMARK    5  A    between atoms: C_12  and  C_19 
REMARK       I    between atoms: N_15  and  C_16 
REMARK    6  A    between atoms: C_16  and  C_17 
ROOT
HETATM    1  C           1     -30.960  -6.128 -17.425  0.00  0.00     0.283 C 
ENDROOT
BRANCH   1   2
HETATM    2  C           1     -29.837  -6.994 -16.909  0.00  0.00     0.249 C 
HETATM    3  N           1     -28.928  -6.481 -16.025  0.00  0.00    -0.349 N 
HETATM    4  H           1     -29.008  -5.520 -15.716  0.00  0.00     0.163 HD
HETATM    5  O           1     -29.741  -8.141 -17.277  0.00  0.00    -0.271 OA
BRANCH   3   6
HETATM    6  C           1     -27.849  -7.313 -15.529  0.00  0.00     0.235 C 
BRANCH   6   7
HETATM    7  C           1     -26.524  -6.709 -15.926  0.00  0.00     0.191 C 
HETATM    8  O           1     -25.466  -7.122 -15.402  0.00  0.00    -0.647 OA
HETATM    9  O           1     -26.484  -5.796 -16.777  0.00  0.00    -0.647 OA
ENDBRANCH   6   7
ENDBRANCH   3   6
ENDBRANCH   1   2
BRANCH   1  10
HETATM   10  C           1     -31.114  -4.906 -16.530  0.00  0.00     0.145 C 
BRANCH  10  11
HETATM   11  C           1     -31.878  -3.834 -17.268  0.00  0.00     0.217 C 
HETATM   12  O           1     -31.307  -3.116 -18.054  0.00  0.00    -0.274 OA
HETATM   13  N           1     -33.220  -3.676 -17.047  0.00  0.00    -0.370 N 
HETATM   14  H           1     -33.699  -4.278 -16.390  0.00  0.00     0.159 HD
HETATM   15  H           1     -33.733  -2.957 -17.542  0.00  0.00     0.159 HD
ENDBRANCH  10  11
ENDBRANCH   1  10
BRANCH   1  16
HETATM   16  N           1     -32.239  -6.914 -17.421  0.00  0.00    -0.066 N 
HETATM   17  H           1     -32.941  -6.440 -18.035  0.00  0.00     0.275 HD
HETATM   18  H           1     -32.610  -6.969 -16.446  0.00  0.00     0.275 HD
HETATM   19  H           1     -32.058  -7.878 -17.779  0.00  0.00     0.275 HD
ENDBRANCH   1  16
TORSDOF 6
ENDMDL
MODEL 3
REMARK VINA RESULT:      -6.0      2.240      5.369
REMARK  6 active torsions:
REMARK  status: ('A' for Active; 'I' for Inactive)
REMARK    1  A    between atoms: C_1  and  C_2 
REMARK    2  A    between atoms: C_1  and  C_17 
REMARK    3  A    between atoms: C_1  and  N_10 
REMARK       I    between atoms: C_2  and  N_3 
REMARK    4  A    between atoms: N_3  and  C_19 
REMARK    5  A    between atoms: C_12  and  C_19 
REMARK       I    between atoms: N_15  and  C_16 
REMARK    6  A    between atoms: C_16  and  C_17 
ROOT
HETATM    1  C           1     -23.202  -3.595  -9.266  0.00  0.00     0.283 C 
ENDROOT
BRANCH   1   2
HETATM    2  C           1     -24.128  -3.315 -10.426  0.00  0.00     0.249 C 
HETATM    3  N           1     -23.617  -3.144 -11.684  0.00  0.00    -0.349 N 
HETATM    4  H           1     -22.618  -3.206 -11.837  0.00  0.00     0.163 HD
HETATM    5  O           1     -25.320  -3.240 -10.243  0.00  0.00    -0.271 OA
BRANCH   3   6
HETATM    6  C           1     -24.506  -2.874 -12.797  0.00  0.00     0.235 C 
BRANCH   6   7
HETATM    7  C           1     -23.704  -2.365 -13.970  0.00  0.00     0.191 C 
HETATM    8  O           1     -22.598  -2.880 -14.242  0.00  0.00    -0.647 OA
HETATM    9  O           1     -24.146  -1.428 -14.669  0.00  0.00    -0.647 OA
ENDBRANCH   6   7
ENDBRANCH   3   6
ENDBRANCH   1   2
BRANCH   1  10
HETATM   10  C           1     -22.230  -4.703  -9.648  0.00  0.00     0.145 C 
BRANCH  10  11
HETATM   11  C           1     -20.844  -4.125  -9.803  0.00  0.00     0.217 C 
HETATM   12  O           1     -20.501  -3.650 -10.859  0.00  0.00    -0.274 OA
HETATM   13  N           1     -19.976  -4.138  -8.744  0.00  0.00    -0.370 N 
HETATM   14  H           1     -20.263  -4.534  -7.859  0.00  0.00     0.159 HD
HETATM   15  H           1     -19.046  -3.750  -8.847  0.00  0.00     0.159 HD
ENDBRANCH  10  11
ENDBRANCH   1  10
BRANCH   1  16
HETATM   16  N           1     -24.009  -4.028  -8.077  0.00  0.00    -0.066 N 
HETATM   17  H           1     -24.773  -4.669  -8.389  0.00  0.00     0.275 HD
HETATM   18  H           1     -24.425  -3.188  -7.615  0.00  0.00     0.275 HD
HETATM   19  H           1     -23.390  -4.526  -7.399  0.00  0.00     0.275 HD
ENDBRANCH   1  16
TORSDOF 6
ENDMDL
MODEL 4
REMARK VINA RESULT:      -5.9     11.358     13.292
REMARK  6 active torsions:
REMARK  status: ('A' for Active; 'I' for Inactive)
REMARK    1  A    between atoms: C_1  and  C_2 
REMARK    2  A    between atoms: C_1  and  C_17 
REMARK    3  A    between atoms: C_1  and  N_10 
REMARK       I    between atoms: C_2  and  N_3 
REMARK    4  A    between atoms: N_3  and  C_19 
REMARK    5  A    between atoms: C_12  and  C_19 
REMARK       I    between atoms: N_15  and  C_16 
REMARK    6  A    between atoms: C_16  and  C_17 
ROOT
HETATM    1  C           1     -34.703  -1.733 -11.922  0.00  0.00     0.283 C 
ENDROOT
BRANCH   1   2
HETATM    2  C           1     -35.558  -1.088 -12.986  0.00  0.00     0.249 C 
HETATM    3  N           1     -34.974  -0.553 -14.102  0.00  0.00    -0.349 N 
HETATM    4  H           1     -33.969  -0.590 -14.215  0.00  0.00     0.163 HD
HETATM    5  O           1     -36.758  -1.045 -12.852  0.00  0.00    -0.271 OA
BRANCH   3   6
HETATM    6  C           1     -35.797   0.066 -15.124  0.00  0.00     0.235 C 
BRANCH   6   7
HETATM    7  C           1     -35.844  -0.826 -16.341  0.00  0.00     0.191 C 
HETATM    8  O           1     -36.841  -0.801 -17.096  0.00  0.00    -0.647 OA
HETATM    9  O           1     -34.888  -1.589 -16.594  0.00  0.00    -0.647 OA
ENDBRANCH   6   7
ENDBRANCH   3   6
ENDBRANCH   1   2
BRANCH   1  10
HETATM   10  C           1     -34.895  -3.243 -11.960  0.00  0.00     0.145 C 
BRANCH  10  11
HETATM   11  C           1     -33.953  -3.845 -12.975  0.00  0.00     0.217 C 
HETATM   12  O           1     -34.195  -3.750 -14.155  0.00  0.00    -0.274 OA
HETATM   13  N           1     -32.825  -4.499 -12.557  0.00  0.00    -0.370 N 
HETATM   14  H           1     -32.622  -4.578 -11.570  0.00  0.00     0.159 HD
HETATM   15  H           1     -32.193  -4.903 -13.238  0.00  0.00     0.159 HD
ENDBRANCH  10  11
ENDBRANCH   1  10
BRANCH   1  16
HETATM   16  N           1     -35.106  -1.212 -10.574  0.00  0.00    -0.066 N 
HETATM   17  H           1     -34.439  -0.464 -10.276  0.00  0.00     0.275 HD
HETATM   18  H           1     -35.087  -1.993  -9.879  0.00  0.00     0.275 HD
HETATM   19  H           1     -36.071  -0.817 -10.626  0.00  0.00     0.275 HD
ENDBRANCH   1  16
TORSDOF 6
ENDMDL
MODEL 5
REMARK VINA RESULT:      -5.9      2.018      2.806
REMARK  6 active torsions:
REMARK  status: ('A' for Active; 'I' for Inactive)
REMARK    1  A    between atoms: C_1  and  C_2 
REMARK    2  A    between atoms: C_1  and  C_17 
REMARK    3  A    between atoms: C_1  and  N_10 
REMARK       I    between atoms: C_2  and  N_3 
REMARK    4  A    between atoms: N_3  and  C_19 
REMARK    5  A    between atoms: C_12  and  C_19 
REMARK       I    between atoms: N_15  and  C_16 
REMARK    6  A    between atoms: C_16  and  C_17 
ROOT
HETATM    1  C           1     -23.963  -4.235 -10.429  0.00  0.00     0.283 C 
ENDROOT
BRANCH   1   2
HETATM    2  C           1     -22.755  -4.256  -9.524  0.00  0.00     0.249 C 
HETATM    3  N           1     -22.899  -4.021  -8.184  0.00  0.00    -0.349 N 
HETATM    4  H           1     -23.816  -3.832  -7.798  0.00  0.00     0.163 HD
HETATM    5  O           1     -21.661  -4.482  -9.984  0.00  0.00    -0.271 OA
BRANCH   3   6
HETATM    6  C           1     -21.738  -4.042  -7.315  0.00  0.00     0.235 C 
BRANCH   6   7
HETATM    7  C           1     -21.628  -5.394  -6.653  0.00  0.00     0.191 C 
HETATM    8  O           1     -22.209  -5.607  -5.567  0.00  0.00    -0.647 OA
HETATM    9  O           1     -20.957  -6.300  -7.192  0.00  0.00    -0.647 OA
ENDBRANCH   6   7
ENDBRANCH   3   6
ENDBRANCH   1   2
BRANCH   1  10
HETATM   10  C           1     -23.890  -3.022 -11.346  0.00  0.00     0.145 C 
BRANCH  10  11
HETATM   11  C           1     -23.447  -3.457 -12.722  0.00  0.00     0.217 C 
HETATM   12  O           1     -24.268  -3.701 -13.573  0.00  0.00    -0.274 OA
HETATM   13  N           1     -22.112  -3.577 -13.004  0.00  0.00    -0.370 N 
HETATM   14  H           1     -21.424  -3.372 -12.292  0.00  0.00     0.159 HD
HETATM   15  H           1     -21.814  -3.869 -13.926  0.00  0.00     0.159 HD
ENDBRANCH  10  11
ENDBRANCH   1  10
BRANCH   1  16
HETATM   16  N           1     -25.209  -4.157  -9.596  0.00  0.00    -0.066 N 
HETATM   17  H           1     -24.973  -4.353  -8.597  0.00  0.00     0.275 HD
HETATM   18  H           1     -25.900  -4.863  -9.936  0.00  0.00     0.275 HD
HETATM   19  H           1     -25.623  -3.200  -9.675  0.00  0.00     0.275 HD
ENDBRANCH   1  16
TORSDOF 6
ENDMDL
MODEL 6
REMARK VINA RESULT:      -5.8      7.626      9.169
REMARK  6 active torsions:
REMARK  status: ('A' for Active; 'I' for Inactive)
REMARK    1  A    between atoms: C_1  and  C_2 
REMARK    2  A    between atoms: C_1  and  C_17 
REMARK    3  A    between atoms: C_1  and  N_10 
REMARK       I    between atoms: C_2  and  N_3 
REMARK    4  A    between atoms: N_3  and  C_19 
REMARK    5  A    between atoms: C_12  and  C_19 
REMARK       I    between atoms: N_15  and  C_16 
REMARK    6  A    between atoms: C_16  and  C_17 
ROOT
HETATM    1  C           1     -29.640  -6.733 -17.873  0.00  0.00     0.283 C 
ENDROOT
BRANCH   1   2
HETATM    2  C           1     -28.186  -6.332 -17.945  0.00  0.00     0.249 C 
HETATM    3  N           1     -27.290  -6.846 -17.048  0.00  0.00    -0.349 N 
HETATM    4  H           1     -27.600  -7.495 -16.337  0.00  0.00     0.163 HD
HETATM    5  O           1     -27.815  -5.556 -18.794  0.00  0.00    -0.271 OA
BRANCH   3   6
HETATM    6  C           1     -25.893  -6.460 -17.117  0.00  0.00     0.235 C 
BRANCH   6   7
HETATM    7  C           1     -25.114  -7.196 -16.054  0.00  0.00     0.191 C 
HETATM    8  O           1     -24.345  -8.128 -16.375  0.00  0.00    -0.647 OA
HETATM    9  O           1     -25.239  -6.874 -14.853  0.00  0.00    -0.647 OA
ENDBRANCH   6   7
ENDBRANCH   3   6
ENDBRANCH   1   2
BRANCH   1  10
HETATM   10  C           1     -30.266  -6.155 -16.611  0.00  0.00     0.145 C 
BRANCH  10  11
HETATM   11  C           1     -31.390  -5.221 -16.988  0.00  0.00     0.217 C 
HETATM   12  O           1     -31.146  -4.087 -17.326  0.00  0.00    -0.274 OA
HETATM   13  N           1     -32.686  -5.660 -16.948  0.00  0.00    -0.370 N 
HETATM   14  H           1     -32.891  -6.610 -16.665  0.00  0.00     0.159 HD
HETATM   15  H           1     -33.441  -5.034 -17.200  0.00  0.00     0.159 HD
ENDBRANCH  10  11
ENDBRANCH   1  10
BRANCH   1  16
HETATM   16  N           1     -29.744  -8.229 -17.842  0.00  0.00    -0.066 N 
HETATM   17  H           1     -28.995  -8.643 -18.443  0.00  0.00     0.275 HD
HETATM   18  H           1     -30.681  -8.521 -18.203  0.00  0.00     0.275 HD
HETATM   19  H           1     -29.630  -8.567 -16.860  0.00  0.00     0.275 HD
ENDBRANCH   1  16
TORSDOF 6
ENDMDL
MODEL 7
REMARK VINA RESULT:      -5.7      2.845      3.921
REMARK  6 active torsions:
REMARK  status: ('A' for Active; 'I' for Inactive)
REMARK    1  A    between atoms: C_1  and  C_2 
REMARK    2  A    between atoms: C_1  and  C_17 
REMARK    3  A    between atoms: C_1  and  N_10 
REMARK       I    between atoms: C_2  and  N_3 
REMARK    4  A    between atoms: N_3  and  C_19 
REMARK    5  A    between atoms: C_12  and  C_19 
REMARK       I    between atoms: N_15  and  C_16 
REMARK    6  A    between atoms: C_16  and  C_17 
ROOT
HETATM    1  C           1     -22.058  -3.681 -11.161  0.00  0.00     0.283 C 
ENDROOT
BRANCH   1   2
HETATM    2  C           1     -20.831  -4.123 -10.401  0.00  0.00     0.249 C 
HETATM    3  N           1     -20.814  -4.061  -9.034  0.00  0.00    -0.349 N 
HETATM    4  H           1     -21.623  -3.719  -8.532  0.00  0.00     0.163 HD
HETATM    5  O           1     -19.865  -4.532 -11.000  0.00  0.00    -0.271 OA
BRANCH   3   6
HETATM    6  C           1     -19.635  -4.487  -8.304  0.00  0.00     0.235 C 
BRANCH   6   7
HETATM    7  C           1     -20.054  -5.261  -7.078  0.00  0.00     0.191 C 
HETATM    8  O           1     -19.886  -6.499  -7.032  0.00  0.00    -0.647 OA
HETATM    9  O           1     -20.569  -4.664  -6.108  0.00  0.00    -0.647 OA
ENDBRANCH   6   7
ENDBRANCH   3   6
ENDBRANCH   1   2
BRANCH   1  10
HETATM   10  C           1     -23.233  -4.578 -10.798  0.00  0.00     0.145 C 
BRANCH  10  11
HETATM   11  C           1     -24.302  -3.757 -10.119  0.00  0.00     0.217 C 
HETATM   12  O           1     -25.139  -3.188 -10.780  0.00  0.00    -0.274 OA
HETATM   13  N           1     -24.323  -3.655  -8.754  0.00  0.00    -0.370 N 
HETATM   14  H           1     -23.623  -4.131  -8.200  0.00  0.00     0.159 HD
HETATM   15  H           1     -25.040  -3.104  -8.298  0.00  0.00     0.159 HD
ENDBRANCH  10  11
ENDBRANCH   1  10
BRANCH   1  16
HETATM   16  N           1     -21.794  -3.777 -12.636  0.00  0.00    -0.066 N 
HETATM   17  H           1     -20.928  -3.240 -12.870  0.00  0.00     0.275 HD
HETATM   18  H           1     -22.604  -3.378 -13.161  0.00  0.00     0.275 HD
HETATM   19  H           1     -21.665  -4.779 -12.903  0.00  0.00     0.275 HD
ENDBRANCH   1  16
TORSDOF 6
ENDMDL
MODEL 8
REMARK VINA RESULT:      -5.4     11.297     12.737
REMARK  6 active torsions:
REMARK  status: ('A' for Active; 'I' for Inactive)
REMARK    1  A    between atoms: C_1  and  C_2 
REMARK    2  A    between atoms: C_1  and  C_17 
REMARK    3  A    between atoms: C_1  and  N_10 
REMARK       I    between atoms: C_2  and  N_3 
REMARK    4  A    between atoms: N_3  and  C_19 
REMARK    5  A    between atoms: C_12  and  C_19 
REMARK       I    between atoms: N_15  and  C_16 
REMARK    6  A    between atoms: C_16  and  C_17 
ROOT
HETATM    1  C           1     -33.864  -4.778 -12.002  0.00  0.00     0.283 C 
ENDROOT
BRANCH   1   2
HETATM    2  C           1     -34.457  -3.439 -12.365  0.00  0.00     0.249 C 
HETATM    3  N           1     -34.942  -2.616 -11.384  0.00  0.00    -0.349 N 
HETATM    4  H           1     -34.903  -2.905 -10.415  0.00  0.00     0.163 HD
HETATM    5  O           1     -34.504  -3.093 -13.522  0.00  0.00    -0.271 OA
BRANCH   3   6
HETATM    6  C           1     -35.512  -1.329 -11.734  0.00  0.00     0.235 C 
BRANCH   6   7
HETATM    7  C           1     -36.560  -0.949 -10.716  0.00  0.00     0.191 C 
HETATM    8  O           1     -36.217  -0.461  -9.618  0.00  0.00    -0.647 OA
HETATM    9  O           1     -37.771  -1.123 -10.972  0.00  0.00    -0.647 OA
ENDBRANCH   6   7
ENDBRANCH   3   6
ENDBRANCH   1   2
BRANCH   1  10
HETATM   10  C           1     -34.199  -5.107 -10.553  0.00  0.00     0.145 C 
BRANCH  10  11
HETATM   11  C           1     -34.706  -6.526 -10.464  0.00  0.00     0.217 C 
HETATM   12  O           1     -34.832  -7.057  -9.386  0.00  0.00    -0.274 OA
HETATM   13  N           1     -35.024  -7.212 -11.606  0.00  0.00    -0.370 N 
HETATM   14  H           1     -34.920  -6.768 -12.508  0.00  0.00     0.159 HD
HETATM   15  H           1     -35.364  -8.164 -11.546  0.00  0.00     0.159 HD
ENDBRANCH  10  11
ENDBRANCH   1  10
BRANCH   1  16
HETATM   16  N           1     -32.373  -4.727 -12.170  0.00  0.00    -0.066 N 
HETATM   17  H           1     -31.934  -4.393 -11.282  0.00  0.00     0.275 HD
HETATM   18  H           1     -32.133  -4.069 -12.946  0.00  0.00     0.275 HD
HETATM   19  H           1     -32.015  -5.681 -12.399  0.00  0.00     0.275 HD
ENDBRANCH   1  16
TORSDOF 6
ENDMDL
MODEL 9
REMARK VINA RESULT:      -5.4      2.199      5.669
REMARK  6 active torsions:
REMARK  status: ('A' for Active; 'I' for Inactive)
REMARK    1  A    between atoms: C_1  and  C_2 
REMARK    2  A    between atoms: C_1  and  C_17 
REMARK    3  A    between atoms: C_1  and  N_10 
REMARK       I    between atoms: C_2  and  N_3 
REMARK    4  A    between atoms: N_3  and  C_19 
REMARK    5  A    between atoms: C_12  and  C_19 
REMARK       I    between atoms: N_15  and  C_16 
REMARK    6  A    between atoms: C_16  and  C_17 
ROOT
HETATM    1  C           1     -21.383  -4.550  -9.496  0.00  0.00     0.283 C 
ENDROOT
BRANCH   1   2
HETATM    2  C           1     -21.315  -3.941 -10.875  0.00  0.00     0.249 C 
HETATM    3  N           1     -22.462  -3.531 -11.500  0.00  0.00    -0.349 N 
HETATM    4  H           1     -23.356  -3.635 -11.037  0.00  0.00     0.163 HD
HETATM    5  O           1     -20.248  -3.816 -11.428  0.00  0.00    -0.271 OA
BRANCH   3   6
HETATM    6  C           1     -22.396  -2.946 -12.825  0.00  0.00     0.235 C 
BRANCH   6   7
HETATM    7  C           1     -23.738  -3.082 -13.503  0.00  0.00     0.191 C 
HETATM    8  O           1     -24.787  -3.053 -12.824  0.00  0.00    -0.647 OA
HETATM    9  O           1     -23.800  -3.223 -14.743  0.00  0.00    -0.647 OA
ENDBRANCH   6   7
ENDBRANCH   3   6
ENDBRANCH   1   2
BRANCH   1  10
HETATM   10  C           1     -22.081  -3.585  -8.547  0.00  0.00     0.145 C 
BRANCH  10  11
HETATM   11  C           1     -23.459  -4.107  -8.222  0.00  0.00     0.217 C 
HETATM   12  O           1     -24.296  -4.188  -9.090  0.00  0.00    -0.274 OA
HETATM   13  N           1     -23.761  -4.489  -6.942  0.00  0.00    -0.370 N 
HETATM   14  H           1     -23.061  -4.422  -6.215  0.00  0.00     0.159 HD
HETATM   15  H           1     -24.686  -4.839  -6.724  0.00  0.00     0.159 HD
ENDBRANCH  10  11
ENDBRANCH   1  10
BRANCH   1  16
HETATM   16  N           1     -19.993  -4.820  -9.000  0.00  0.00    -0.066 N 
HETATM   17  H           1     -20.018  -5.595  -8.299  0.00  0.00     0.275 HD
HETATM   18  H           1     -19.609  -3.957  -8.552  0.00  0.00     0.275 HD
HETATM   19  H           1     -19.383  -5.096  -9.802  0.00  0.00     0.275 HD
ENDBRANCH   1  16
TORSDOF 6
ENDMDL
