MODEL 1
REMARK VINA RESULT:      -4.9      0.000      0.000
REMARK  8 active torsions:
REMARK  status: ('A' for Active; 'I' for Inactive)
REMARK    1  A    between atoms: C_4  and  C_5 
REMARK    2  A    between atoms: C_5  and  C_6 
REMARK    3  A    between atoms: C_5  and  N_16 
REMARK    4  A    between atoms: C_6  and  Se_7 
REMARK    5  A    between atoms: N_9  and  C_14 
REMARK    6  A    between atoms: S_12  and  C_13 
REMARK    7  A    between atoms: C_13  and  C_14 
REMARK    8  A    between atoms: C_14  and  C_15 
REMARK       I    between atoms: C_15  and  N_16 
ROOT
HETATM    1  H           1     -22.159  -5.828  -9.226  0.00  0.00     0.163 HD
HETATM    2  O           1     -21.619  -3.439  -7.266  0.00  0.00    -0.271 OA
HETATM    3  C           1     -21.637  -4.582  -7.659  0.00  0.00     0.249 C 
HETATM    4  N           1     -22.145  -4.872  -8.897  0.00  0.00    -0.345 N 
ENDROOT
BRANCH   3   5
HETATM    5  C           1     -21.099  -5.689  -6.786  0.00  0.00     0.283 C 
BRANCH   5   6
HETATM    6  N           1     -19.885  -6.288  -7.432  0.00  0.00    -0.066 N 
HETATM    7  H           1     -19.325  -6.800  -6.713  0.00  0.00     0.275 HD
HETATM    8  H           1     -19.302  -5.529  -7.850  0.00  0.00     0.275 HD
HETATM    9  H           1     -20.181  -6.952  -8.182  0.00  0.00     0.275 HD
ENDBRANCH   5   6
BRANCH   5  10
HETATM   10  C           1     -20.721  -5.123  -5.422  0.00  0.00     0.113 C 
BRANCH  10  11
HETATM   11  S           1     -21.350  -6.217  -4.118  0.00  0.00    -0.180 SA
HETATM   12  H           1     -22.174  -5.311  -3.561  0.00  0.00     0.101 HD
ENDBRANCH  10  11
ENDBRANCH   5  10
ENDBRANCH   3   5
BRANCH   4  13
HETATM   13  C           1     -22.662  -3.808  -9.735  0.00  0.00     0.185 C 
BRANCH  13  14
HETATM   14  C           1     -24.171  -3.853  -9.730  0.00  0.00     0.196 C 
HETATM   15  O           1     -24.825  -2.825  -9.452  0.00  0.00    -0.646 OA
HETATM   16  O           1     -24.765  -4.918 -10.004  0.00  0.00    -0.646 OA
ENDBRANCH  13  14
BRANCH  13  17
HETATM   17  C           1     -22.153  -3.993 -11.159  0.00  0.00     0.039 C 
BRANCH  17  18
HETATM   18 Se           1     -23.001  -2.684 -12.328  0.00  0.00     0.000 Se
HETATM   19  H           1     -21.797  -1.845 -12.454  0.00  0.00     0.000 HD
ENDBRANCH  17  18
ENDBRANCH  13  17
ENDBRANCH   4  13
TORSDOF 8
ENDMDL
MODEL 2
REMARK VINA RESULT:      -4.6      1.880      5.492
REMARK  8 active torsions:
REMARK  status: ('A' for Active; 'I' for Inactive)
REMARK    1  A    between atoms: C_4  and  C_5 
REMARK    2  A    between atoms: C_5  and  C_6 
REMARK    3  A    between atoms: C_5  and  N_16 
REMARK    4  A    between atoms: C_6  and  Se_7 
REMARK    5  A    between atoms: N_9  and  C_14 
REMARK    6  A    between atoms: S_12  and  C_13 
REMARK    7  A    between atoms: C_13  and  C_14 
REMARK    8  A    between atoms: C_14  and  C_15 
REMARK       I    between atoms: C_15  and  N_16 
ROOT
HETATM    1  H           1     -20.603  -3.512  -9.751  0.00  0.00     0.163 HD
HETATM    2  O           1     -23.442  -4.714 -10.335  0.00  0.00    -0.271 OA
HETATM    3  C           1     -22.458  -4.035 -10.507  0.00  0.00     0.249 C 
HETATM    4  N           1     -21.428  -4.080  -9.605  0.00  0.00    -0.345 N 
ENDROOT
BRANCH   3   5
HETATM    5  C           1     -22.362  -3.138 -11.717  0.00  0.00     0.283 C 
BRANCH   5   6
HETATM    6  N           1     -21.481  -3.781 -12.747  0.00  0.00    -0.066 N 
HETATM    7  H           1     -21.232  -4.748 -12.438  0.00  0.00     0.275 HD
HETATM    8  H           1     -20.609  -3.217 -12.861  0.00  0.00     0.275 HD
HETATM    9  H           1     -21.987  -3.825 -13.660  0.00  0.00     0.275 HD
ENDBRANCH   5   6
BRANCH   5  10
HETATM   10  C           1     -23.753  -2.924 -12.302  0.00  0.00     0.113 C 
BRANCH  10  11
HETATM   11  S           1     -23.605  -2.324 -14.009  0.00  0.00    -0.180 SA
HETATM   12  H           1     -22.964  -1.182 -13.700  0.00  0.00     0.101 HD
ENDBRANCH  10  11
ENDBRANCH   5  10
ENDBRANCH   3   5
BRANCH   4  13
HETATM   13  C           1     -21.520  -4.942  -8.443  0.00  0.00     0.185 C 
BRANCH  13  14
HETATM   14  C           1     -22.115  -4.170  -7.291  0.00  0.00     0.196 C 
HETATM   15  O           1     -21.530  -3.158  -6.850  0.00  0.00    -0.646 OA
HETATM   16  O           1     -23.193  -4.543  -6.779  0.00  0.00    -0.646 OA
ENDBRANCH  13  14
BRANCH  13  17
HETATM   17  C           1     -20.128  -5.430  -8.064  0.00  0.00     0.039 C 
BRANCH  17  18
HETATM   18 Se           1     -20.208  -6.353  -6.349  0.00  0.00     0.000 Se
HETATM   19  H           1     -20.530  -5.140  -5.579  0.00  0.00     0.000 HD
ENDBRANCH  17  18
ENDBRANCH  13  17
ENDBRANCH   4  13
TORSDOF 8
ENDMDL
MODEL 3
REMARK VINA RESULT:      -4.4     10.523     11.823
REMARK  8 active torsions:
REMARK  status: ('A' for Active; 'I' for Inactive)
REMARK    1  A    between atoms: C_4  and  C_5 
REMARK    2  A    between atoms: C_5  and  C_6 
REMARK    3  A    between atoms: C_5  and  N_16 
REMARK    4  A    between atoms: C_6  and  Se_7 
REMARK    5  A    between atoms: N_9  and  C_14 
REMARK    6  A    between atoms: S_12  and  C_13 
REMARK    7  A    between atoms: C_13  and  C_14 
REMARK    8  A    between atoms: C_14  and  C_15 
REMARK       I    between atoms: C_15  and  N_16 
ROOT
HETATM    1  H           1     -26.276  -7.096 -17.069  0.00  0.00     0.163 HD
HETATM    2  O           1     -27.542  -5.925 -19.691  0.00  0.00    -0.271 OA
HETATM    3  C           1     -26.695  -6.405 -18.975  0.00  0.00     0.249 C 
HETATM    4  N           1     -26.986  -6.694 -17.669  0.00  0.00    -0.345 N 
ENDROOT
BRANCH   3   5
HETATM    5  C           1     -25.316  -6.686 -19.521  0.00  0.00     0.283 C 
BRANCH   5   6
HETATM    6  N           1     -24.502  -7.395 -18.480  0.00  0.00    -0.066 N 
HETATM    7  H           1     -23.631  -6.851 -18.289  0.00  0.00     0.275 HD
HETATM    8  H           1     -24.249  -8.349 -18.825  0.00  0.00     0.275 HD
HETATM    9  H           1     -25.061  -7.482 -17.601  0.00  0.00     0.275 HD
ENDBRANCH   5   6
BRANCH   5  10
HETATM   10  C           1     -25.430  -7.563 -20.761  0.00  0.00     0.113 C 
BRANCH  10  11
HETATM   11  S           1     -23.783  -8.170 -21.226  0.00  0.00    -0.180 SA
HETATM   12  H           1     -23.379  -7.032 -21.820  0.00  0.00     0.101 HD
ENDBRANCH  10  11
ENDBRANCH   5  10
ENDBRANCH   3   5
BRANCH   4  13
HETATM   13  C           1     -28.310  -6.424 -17.144  0.00  0.00     0.185 C 
BRANCH  13  14
HETATM   14  C           1     -28.273  -6.471 -15.637  0.00  0.00     0.196 C 
HETATM   15  O           1     -27.829  -7.484 -15.055  0.00  0.00    -0.646 OA
HETATM   16  O           1     -28.686  -5.498 -14.970  0.00  0.00    -0.646 OA
ENDBRANCH  13  14
BRANCH  13  17
HETATM   17  C           1     -29.283  -7.475 -17.662  0.00  0.00     0.039 C 
BRANCH  17  18
HETATM   18 Se           1     -31.107  -6.804 -17.511  0.00  0.00     0.000 Se
HETATM   19  H           1     -31.442  -7.640 -16.347  0.00  0.00     0.000 HD
ENDBRANCH  17  18
ENDBRANCH  13  17
ENDBRANCH   4  13
TORSDOF 8
ENDMDL
MODEL 4
REMARK VINA RESULT:      -4.3      1.826      5.543
REMARK  8 active torsions:
REMARK  status: ('A' for Active; 'I' for Inactive)
REMARK    1  A    between atoms: C_4  and  C_5 
REMARK    2  A    between atoms: C_5  and  C_6 
REMARK    3  A    between atoms: C_5  and  N_16 
REMARK    4  A    between atoms: C_6  and  Se_7 
REMARK    5  A    between atoms: N_9  and  C_14 
REMARK    6  A    between atoms: S_12  and  C_13 
REMARK    7  A    between atoms: C_13  and  C_14 
REMARK    8  A    between atoms: C_14  and  C_15 
REMARK       I    between atoms: C_15  and  N_16 
ROOT
HETATM    1  H           1     -21.416  -5.115  -9.514  0.00  0.00     0.163 HD
HETATM    2  O           1     -23.746  -4.108  -7.670  0.00  0.00    -0.271 OA
HETATM    3  C           1     -23.190  -4.436  -8.691  0.00  0.00     0.249 C 
HETATM    4  N           1     -21.882  -4.839  -8.658  0.00  0.00    -0.345 N 
ENDROOT
BRANCH   3   5
HETATM    5  C           1     -23.936  -4.400 -10.002  0.00  0.00     0.283 C 
BRANCH   5   6
HETATM    6  N           1     -25.305  -3.828  -9.782  0.00  0.00    -0.066 N 
HETATM    7  H           1     -25.225  -2.923  -9.265  0.00  0.00     0.275 HD
HETATM    8  H           1     -25.878  -4.499  -9.222  0.00  0.00     0.275 HD
HETATM    9  H           1     -25.767  -3.664 -10.705  0.00  0.00     0.275 HD
ENDBRANCH   5   6
BRANCH   5  10
HETATM   10  C           1     -23.177  -3.531 -10.996  0.00  0.00     0.113 C 
BRANCH  10  11
HETATM   11  S           1     -24.270  -3.097 -12.379  0.00  0.00    -0.180 SA
HETATM   12  H           1     -25.318  -3.829 -11.961  0.00  0.00     0.101 HD
ENDBRANCH  10  11
ENDBRANCH   5  10
ENDBRANCH   3   5
BRANCH   4  13
HETATM   13  C           1     -21.165  -4.873  -7.399  0.00  0.00     0.185 C 
BRANCH  13  14
HETATM   14  C           1     -19.760  -4.361  -7.606  0.00  0.00     0.196 C 
HETATM   15  O           1     -18.854  -4.683  -6.809  0.00  0.00    -0.646 OA
HETATM   16  O           1     -19.504  -3.616  -8.577  0.00  0.00    -0.646 OA
ENDBRANCH  13  14
BRANCH  13  17
HETATM   17  C           1     -21.113  -6.306  -6.884  0.00  0.00     0.039 C 
BRANCH  17  18
HETATM   18 Se           1     -21.732  -6.355  -5.037  0.00  0.00     0.000 Se
HETATM   19  H           1     -22.948  -5.568  -5.301  0.00  0.00     0.000 HD
ENDBRANCH  17  18
ENDBRANCH  13  17
ENDBRANCH   4  13
TORSDOF 8
ENDMDL
MODEL 5
REMARK VINA RESULT:      -4.2      9.276     11.731
REMARK  8 active torsions:
REMARK  status: ('A' for Active; 'I' for Inactive)
REMARK    1  A    between atoms: C_4  and  C_5 
REMARK    2  A    between atoms: C_5  and  C_6 
REMARK    3  A    between atoms: C_5  and  N_16 
REMARK    4  A    between atoms: C_6  and  Se_7 
REMARK    5  A    between atoms: N_9  and  C_14 
REMARK    6  A    between atoms: S_12  and  C_13 
REMARK    7  A    between atoms: C_13  and  C_14 
REMARK    8  A    between atoms: C_14  and  C_15 
REMARK       I    between atoms: C_15  and  N_16 
ROOT
HETATM    1  H           1     -25.504  -7.103 -18.270  0.00  0.00     0.163 HD
HETATM    2  O           1     -28.100  -5.487 -18.972  0.00  0.00    -0.271 OA
HETATM    3  C           1     -27.100  -6.137 -19.167  0.00  0.00     0.249 C 
HETATM    4  N           1     -26.341  -6.558 -18.108  0.00  0.00    -0.345 N 
ENDROOT
BRANCH   3   5
HETATM    5  C           1     -26.687  -6.484 -20.576  0.00  0.00     0.283 C 
BRANCH   5   6
HETATM    6  N           1     -25.556  -5.594 -20.998  0.00  0.00    -0.066 N 
HETATM    7  H           1     -25.205  -5.898 -21.934  0.00  0.00     0.275 HD
HETATM    8  H           1     -24.782  -5.658 -20.299  0.00  0.00     0.275 HD
HETATM    9  H           1     -25.892  -4.606 -21.054  0.00  0.00     0.275 HD
ENDBRANCH   5   6
BRANCH   5  10
HETATM   10  C           1     -26.236  -7.938 -20.629  0.00  0.00     0.113 C 
BRANCH  10  11
HETATM   11  S           1     -24.486  -8.012 -21.107  0.00  0.00    -0.180 SA
HETATM   12  H           1     -24.302  -6.680 -21.163  0.00  0.00     0.101 HD
ENDBRANCH  10  11
ENDBRANCH   5  10
ENDBRANCH   3   5
BRANCH   4  13
HETATM   13  C           1     -26.738  -6.224 -16.753  0.00  0.00     0.185 C 
BRANCH  13  14
HETATM   14  C           1     -25.570  -6.435 -15.822  0.00  0.00     0.196 C 
HETATM   15  O           1     -24.968  -5.451 -15.342  0.00  0.00    -0.646 OA
HETATM   16  O           1     -25.205  -7.595 -15.530  0.00  0.00    -0.646 OA
ENDBRANCH  13  14
BRANCH  13  17
HETATM   17  C           1     -27.895  -7.120 -16.330  0.00  0.00     0.039 C 
BRANCH  17  18
HETATM   18 Se           1     -29.221  -6.060 -15.373  0.00  0.00     0.000 Se
HETATM   19  H           1     -30.133  -5.948 -16.524  0.00  0.00     0.000 HD
ENDBRANCH  17  18
ENDBRANCH  13  17
ENDBRANCH   4  13
TORSDOF 8
ENDMDL
MODEL 6
REMARK VINA RESULT:      -4.1      3.512      6.356
REMARK  8 active torsions:
REMARK  status: ('A' for Active; 'I' for Inactive)
REMARK    1  A    between atoms: C_4  and  C_5 
REMARK    2  A    between atoms: C_5  and  C_6 
REMARK    3  A    between atoms: C_5  and  N_16 
REMARK    4  A    between atoms: C_6  and  Se_7 
REMARK    5  A    between atoms: N_9  and  C_14 
REMARK    6  A    between atoms: S_12  and  C_13 
REMARK    7  A    between atoms: C_13  and  C_14 
REMARK    8  A    between atoms: C_14  and  C_15 
REMARK       I    between atoms: C_15  and  N_16 
ROOT
HETATM    1  H           1     -19.866  -6.822  -4.913  0.00  0.00     0.163 HD
HETATM    2  O           1     -22.637  -5.582  -5.703  0.00  0.00    -0.271 OA
HETATM    3  C           1     -21.441  -5.752  -5.723  0.00  0.00     0.249 C 
HETATM    4  N           1     -20.867  -6.680  -4.896  0.00  0.00    -0.345 N 
ENDROOT
BRANCH   3   5
HETATM    5  C           1     -20.580  -4.941  -6.659  0.00  0.00     0.283 C 
BRANCH   5   6
HETATM    6  N           1     -20.021  -5.836  -7.725  0.00  0.00    -0.066 N 
HETATM    7  H           1     -20.022  -6.824  -7.385  0.00  0.00     0.275 HD
HETATM    8  H           1     -19.041  -5.546  -7.946  0.00  0.00     0.275 HD
HETATM    9  H           1     -20.608  -5.762  -8.586  0.00  0.00     0.275 HD
ENDBRANCH   5   6
BRANCH   5  10
HETATM   10  C           1     -21.422  -3.848  -7.306  0.00  0.00     0.113 C 
BRANCH  10  11
HETATM   11  S           1     -21.768  -4.292  -9.032  0.00  0.00    -0.180 SA
HETATM   12  H           1     -21.221  -5.520  -8.971  0.00  0.00     0.101 HD
ENDBRANCH  10  11
ENDBRANCH   5  10
ENDBRANCH   3   5
BRANCH   4  13
HETATM   13  C           1     -21.695  -7.459  -3.996  0.00  0.00     0.185 C 
BRANCH  13  14
HETATM   14  C           1     -21.588  -6.896  -2.600  0.00  0.00     0.196 C 
HETATM   15  O           1     -22.286  -5.914  -2.268  0.00  0.00    -0.646 OA
HETATM   16  O           1     -20.802  -7.412  -1.777  0.00  0.00    -0.646 OA
ENDBRANCH  13  14
BRANCH  13  17
HETATM   17  C           1     -21.221  -8.907  -3.998  0.00  0.00     0.039 C 
BRANCH  17  18
HETATM   18 Se           1     -19.465  -9.014  -4.836  0.00  0.00     0.000 Se
HETATM   19  H           1     -19.993  -9.018  -6.211  0.00  0.00     0.000 HD
ENDBRANCH  17  18
ENDBRANCH  13  17
ENDBRANCH   4  13
TORSDOF 8
ENDMDL
MODEL 7
REMARK VINA RESULT:      -4.1      3.755      4.809
REMARK  8 active torsions:
REMARK  status: ('A' for Active; 'I' for Inactive)
REMARK    1  A    between atoms: C_4  and  C_5 
REMARK    2  A    between atoms: C_5  and  C_6 
REMARK    3  A    between atoms: C_5  and  N_16 
REMARK    4  A    between atoms: C_6  and  Se_7 
REMARK    5  A    between atoms: N_9  and  C_14 
REMARK    6  A    between atoms: S_12  and  C_13 
REMARK    7  A    between atoms: C_13  and  C_14 
REMARK    8  A    between atoms: C_14  and  C_15 
REMARK       I    between atoms: C_15  and  N_16 
ROOT
HETATM    1  H           1     -20.613  -4.683  -4.533  0.00  0.00     0.163 HD
HETATM    2  O           1     -21.950  -7.480  -5.018  0.00  0.00    -0.271 OA
HETATM    3  C           1     -21.460  -6.567  -4.396  0.00  0.00     0.249 C 
HETATM    4  N           1     -21.023  -5.448  -5.054  0.00  0.00    -0.345 N 
ENDROOT
BRANCH   3   5
HETATM    5  C           1     -21.329  -6.659  -2.896  0.00  0.00     0.283 C 
BRANCH   5   6
HETATM    6  N           1     -22.377  -5.803  -2.250  0.00  0.00    -0.066 N 
HETATM    7  H           1     -21.928  -5.177  -1.543  0.00  0.00     0.275 HD
HETATM    8  H           1     -23.083  -6.411  -1.777  0.00  0.00     0.275 HD
HETATM    9  H           1     -22.852  -5.223  -2.979  0.00  0.00     0.275 HD
ENDBRANCH   5   6
BRANCH   5  10
HETATM   10  C           1     -21.516  -8.107  -2.458  0.00  0.00     0.113 C 
BRANCH  10  11
HETATM   11  S           1     -19.894  -8.908  -2.307  0.00  0.00    -0.180 SA
HETATM   12  H           1     -19.178  -7.851  -2.730  0.00  0.00     0.101 HD
ENDBRANCH  10  11
ENDBRANCH   5  10
ENDBRANCH   3   5
BRANCH   4  13
HETATM   13  C           1     -21.149  -5.359  -6.495  0.00  0.00     0.185 C 
BRANCH  13  14
HETATM   14  C           1     -19.804  -5.609  -7.133  0.00  0.00     0.196 C 
HETATM   15  O           1     -19.362  -6.775  -7.221  0.00  0.00    -0.646 OA
HETATM   16  O           1     -19.133  -4.651  -7.573  0.00  0.00    -0.646 OA
ENDBRANCH  13  14
BRANCH  13  17
HETATM   17  C           1     -21.641  -3.969  -6.876  0.00  0.00     0.039 C 
BRANCH  17  18
HETATM   18 Se           1     -22.772  -4.090  -8.459  0.00  0.00     0.000 Se
HETATM   19  H           1     -22.420  -2.749  -8.955  0.00  0.00     0.000 HD
ENDBRANCH  17  18
ENDBRANCH  13  17
ENDBRANCH   4  13
TORSDOF 8
ENDMDL
MODEL 8
REMARK VINA RESULT:      -4.0      9.843     12.082
REMARK  8 active torsions:
REMARK  status: ('A' for Active; 'I' for Inactive)
REMARK    1  A    between atoms: C_4  and  C_5 
REMARK    2  A    between atoms: C_5  and  C_6 
REMARK    3  A    between atoms: C_5  and  N_16 
REMARK    4  A    between atoms: C_6  and  Se_7 
REMARK    5  A    between atoms: N_9  and  C_14 
REMARK    6  A    between atoms: S_12  and  C_13 
REMARK    7  A    between atoms: C_13  and  C_14 
REMARK    8  A    between atoms: C_14  and  C_15 
REMARK       I    between atoms: C_15  and  N_16 
ROOT
HETATM    1  H           1     -26.493  -7.942 -18.625  0.00  0.00     0.163 HD
HETATM    2  O           1     -23.936  -6.279 -19.361  0.00  0.00    -0.271 OA
HETATM    3  C           1     -24.818  -7.093 -19.497  0.00  0.00     0.249 C 
HETATM    4  N           1     -25.753  -7.261 -18.511  0.00  0.00    -0.345 N 
ENDROOT
BRANCH   3   5
HETATM    5  C           1     -24.891  -7.925 -20.754  0.00  0.00     0.283 C 
BRANCH   5   6
HETATM    6  N           1     -26.320  -8.283 -21.034  0.00  0.00    -0.066 N 
HETATM    7  H           1     -26.654  -7.754 -21.871  0.00  0.00     0.275 HD
HETATM    8  H           1     -26.910  -8.036 -20.207  0.00  0.00     0.275 HD
HETATM    9  H           1     -26.392  -9.310 -21.217  0.00  0.00     0.275 HD
ENDBRANCH   5   6
BRANCH   5  10
HETATM   10  C           1     -24.330  -7.127 -21.925  0.00  0.00     0.113 C 
BRANCH  10  11
HETATM   11  S           1     -23.219  -8.182 -22.899  0.00  0.00    -0.180 SA
HETATM   12  H           1     -23.063  -9.128 -21.955  0.00  0.00     0.101 HD
ENDBRANCH  10  11
ENDBRANCH   5  10
ENDBRANCH   3   5
BRANCH   4  13
HETATM   13  C           1     -25.683  -6.461 -17.303  0.00  0.00     0.185 C 
BRANCH  13  14
HETATM   14  C           1     -25.035  -7.267 -16.204  0.00  0.00     0.196 C 
HETATM   15  O           1     -24.250  -8.196 -16.491  0.00  0.00    -0.646 OA
HETATM   16  O           1     -25.284  -7.005 -15.008  0.00  0.00    -0.646 OA
ENDBRANCH  13  14
BRANCH  13  17
HETATM   17  C           1     -27.091  -6.062 -16.879  0.00  0.00     0.039 C 
BRANCH  17  18
HETATM   18 Se           1     -28.323  -6.350 -18.361  0.00  0.00     0.000 Se
HETATM   19  H           1     -29.502  -5.859 -17.628  0.00  0.00     0.000 HD
ENDBRANCH  17  18
ENDBRANCH  13  17
ENDBRANCH   4  13
TORSDOF 8
ENDMDL
MODEL 9
REMARK VINA RESULT:      -4.0      2.643      5.640
REMARK  8 active torsions:
REMARK  status: ('A' for Active; 'I' for Inactive)
REMARK    1  A    between atoms: C_4  and  C_5 
REMARK    2  A    between atoms: C_5  and  C_6 
REMARK    3  A    between atoms: C_5  and  N_16 
REMARK    4  A    between atoms: C_6  and  Se_7 
REMARK    5  A    between atoms: N_9  and  C_14 
REMARK    6  A    between atoms: S_12  and  C_13 
REMARK    7  A    between atoms: C_13  and  C_14 
REMARK    8  A    between atoms: C_14  and  C_15 
REMARK       I    between atoms: C_15  and  N_16 
ROOT
HETATM    1  H           1     -22.905  -5.730  -7.052  0.00  0.00     0.163 HD
HETATM    2  O           1     -20.353  -3.906  -6.973  0.00  0.00    -0.271 OA
HETATM    3  C           1     -21.418  -4.325  -7.363  0.00  0.00     0.249 C 
HETATM    4  N           1     -22.013  -5.380  -6.726  0.00  0.00    -0.345 N 
ENDROOT
BRANCH   3   5
HETATM    5  C           1     -22.090  -3.685  -8.553  0.00  0.00     0.283 C 
BRANCH   5   6
HETATM    6  N           1     -21.363  -4.073  -9.806  0.00  0.00    -0.066 N 
HETATM    7  H           1     -20.334  -4.078  -9.624  0.00  0.00     0.275 HD
HETATM    8  H           1     -21.579  -3.385 -10.562  0.00  0.00     0.275 HD
HETATM    9  H           1     -21.670  -5.025 -10.106  0.00  0.00     0.275 HD
ENDBRANCH   5   6
BRANCH   5  10
HETATM   10  C           1     -23.535  -4.162  -8.637  0.00  0.00     0.113 C 
BRANCH  10  11
HETATM   11  S           1     -23.905  -4.674 -10.339  0.00  0.00    -0.180 SA
HETATM   12  H           1     -22.711  -4.325 -10.852  0.00  0.00     0.101 HD
ENDBRANCH  10  11
ENDBRANCH   5  10
ENDBRANCH   3   5
BRANCH   4  13
HETATM   13  C           1     -21.367  -5.994  -5.582  0.00  0.00     0.185 C 
BRANCH  13  14
HETATM   14  C           1     -20.643  -7.242  -6.026  0.00  0.00     0.196 C 
HETATM   15  O           1     -21.176  -8.361  -5.872  0.00  0.00    -0.646 OA
HETATM   16  O           1     -19.510  -7.155  -6.546  0.00  0.00    -0.646 OA
ENDBRANCH  13  14
BRANCH  13  17
HETATM   17  C           1     -22.418  -6.359  -4.542  0.00  0.00     0.039 C 
BRANCH  17  18
HETATM   18 Se           1     -21.611  -6.341  -2.768  0.00  0.00     0.000 Se
HETATM   19  H           1     -22.730  -5.619  -2.139  0.00  0.00     0.000 HD
ENDBRANCH  17  18
ENDBRANCH  13  17
ENDBRANCH   4  13
TORSDOF 8
ENDMDL
