MODEL 1
REMARK VINA RESULT:      -5.8      0.000      0.000
REMARK  9 active torsions:
REMARK  status: ('A' for Active; 'I' for Inactive)
REMARK    1  A    between atoms: N_1  and  C_12 
REMARK       I    between atoms: N_1  and  C_2 
REMARK    2  A    between atoms: C_2  and  C_3 
REMARK    3  A    between atoms: C_3  and  C_4 
REMARK    4  A    between atoms: C_3  and  N_13 
REMARK    5  A    between atoms: C_4  and  C_16 
REMARK    6  A    between atoms: C_5  and  C_12 
REMARK    7  A    between atoms: S_7  and  C_19 
REMARK    8  A    between atoms: C_12  and  C_14 
REMARK    9  A    between atoms: C_14  and  C_19 
ROOT
HETATM    1  N           1     -35.070  -1.790 -12.181  0.00  0.00    -0.345 N 
HETATM    2  C           1     -34.070  -2.412 -11.481  0.00  0.00     0.249 C 
HETATM    3  O           1     -33.429  -1.794 -10.666  0.00  0.00    -0.271 OA
HETATM    4  H           1     -35.607  -2.309 -12.864  0.00  0.00     0.163 HD
ENDROOT
BRANCH   2   5
HETATM    5  C           1     -33.770  -3.870 -11.730  0.00  0.00     0.275 C 
BRANCH   5   6
HETATM    6  C           1     -34.148  -4.684 -10.499  0.00  0.00     0.046 C 
BRANCH   6   7
HETATM    7  C           1     -34.228  -6.160 -10.870  0.00  0.00    -0.020 C 
HETATM    8  C           1     -34.807  -6.947  -9.702  0.00  0.00     0.009 C 
HETATM    9  C           1     -35.126  -6.327 -12.089  0.00  0.00     0.009 C 
ENDBRANCH   6   7
ENDBRANCH   5   6
BRANCH   5  10
HETATM   10  N           1     -32.306  -4.038 -12.009  0.00  0.00    -0.066 N 
HETATM   11  H           1     -32.019  -3.383 -12.772  0.00  0.00     0.275 HD
HETATM   12  H           1     -31.760  -3.823 -11.145  0.00  0.00     0.275 HD
HETATM   13  H           1     -32.118  -5.021 -12.305  0.00  0.00     0.275 HD
ENDBRANCH   5  10
ENDBRANCH   2   5
BRANCH   1  14
HETATM   14  C           1     -35.359  -0.390 -11.942  0.00  0.00     0.186 C 
BRANCH  14  15
HETATM   15  C           1     -36.569  -0.273 -11.047  0.00  0.00     0.196 C 
HETATM   16  O           1     -37.554  -1.021 -11.227  0.00  0.00    -0.646 OA
HETATM   17  O           1     -36.584   0.570 -10.126  0.00  0.00    -0.646 OA
ENDBRANCH  14  15
BRANCH  14  18
HETATM   18  C           1     -35.639   0.303 -13.269  0.00  0.00     0.046 C 
BRANCH  18  19
HETATM   19  C           1     -35.471  -0.693 -14.408  0.00  0.00     0.076 C 
BRANCH  19  20
HETATM   20  S           1     -36.669  -0.321 -15.720  0.00  0.00    -0.173 SA
HETATM   21  C           1     -38.072   0.014 -14.619  0.00  0.00     0.089 C 
ENDBRANCH  19  20
ENDBRANCH  18  19
ENDBRANCH  14  18
ENDBRANCH   1  14
TORSDOF 9
ENDMDL
MODEL 2
REMARK VINA RESULT:      -5.5      2.513      3.307
REMARK  9 active torsions:
REMARK  status: ('A' for Active; 'I' for Inactive)
REMARK    1  A    between atoms: N_1  and  C_12 
REMARK       I    between atoms: N_1  and  C_2 
REMARK    2  A    between atoms: C_2  and  C_3 
REMARK    3  A    between atoms: C_3  and  C_4 
REMARK    4  A    between atoms: C_3  and  N_13 
REMARK    5  A    between atoms: C_4  and  C_16 
REMARK    6  A    between atoms: C_5  and  C_12 
REMARK    7  A    between atoms: S_7  and  C_19 
REMARK    8  A    between atoms: C_12  and  C_14 
REMARK    9  A    between atoms: C_14  and  C_19 
ROOT
HETATM    1  N           1     -35.375  -1.515 -11.842  0.00  0.00    -0.345 N 
HETATM    2  C           1     -35.392  -2.790 -11.344  0.00  0.00     0.249 C 
HETATM    3  O           1     -36.399  -3.229 -10.843  0.00  0.00    -0.271 OA
HETATM    4  H           1     -34.531  -1.147 -12.262  0.00  0.00     0.163 HD
ENDROOT
BRANCH   2   5
HETATM    5  C           1     -34.152  -3.648 -11.422  0.00  0.00     0.275 C 
BRANCH   5   6
HETATM    6  C           1     -34.195  -4.703 -10.324  0.00  0.00     0.046 C 
BRANCH   6   7
HETATM    7  C           1     -34.178  -6.091 -10.953  0.00  0.00    -0.020 C 
HETATM    8  C           1     -34.785  -7.096  -9.982  0.00  0.00     0.009 C 
HETATM    9  C           1     -34.992  -6.074 -12.240  0.00  0.00     0.009 C 
ENDBRANCH   6   7
ENDBRANCH   5   6
BRANCH   5  10
HETATM   10  N           1     -32.938  -2.786 -11.240  0.00  0.00    -0.066 N 
HETATM   11  H           1     -33.208  -1.901 -10.755  0.00  0.00     0.275 HD
HETATM   12  H           1     -32.232  -3.297 -10.664  0.00  0.00     0.275 HD
HETATM   13  H           1     -32.529  -2.561 -12.174  0.00  0.00     0.275 HD
ENDBRANCH   5  10
ENDBRANCH   2   5
BRANCH   1  14
HETATM   14  C           1     -36.565  -0.690 -11.768  0.00  0.00     0.186 C 
BRANCH  14  15
HETATM   15  C           1     -36.989  -0.294 -13.162  0.00  0.00     0.196 C 
HETATM   16  O           1     -38.070  -0.713 -13.628  0.00  0.00    -0.646 OA
HETATM   17  O           1     -36.260   0.453 -13.847  0.00  0.00    -0.646 OA
ENDBRANCH  14  15
BRANCH  14  18
HETATM   18  C           1     -36.266   0.560 -10.953  0.00  0.00     0.046 C 
BRANCH  18  19
HETATM   19  C           1     -37.337   0.738  -9.884  0.00  0.00     0.076 C 
BRANCH  19  20
HETATM   20  S           1     -36.768  -0.000  -8.327  0.00  0.00    -0.173 SA
HETATM   21  C           1     -37.153   1.429  -7.277  0.00  0.00     0.089 C 
ENDBRANCH  19  20
ENDBRANCH  18  19
ENDBRANCH  14  18
ENDBRANCH   1  14
TORSDOF 9
ENDMDL
MODEL 3
REMARK VINA RESULT:      -5.4      2.502      3.182
REMARK  9 active torsions:
REMARK  status: ('A' for Active; 'I' for Inactive)
REMARK    1  A    between atoms: N_1  and  C_12 
REMARK       I    between atoms: N_1  and  C_2 
REMARK    2  A    between atoms: C_2  and  C_3 
REMARK    3  A    between atoms: C_3  and  C_4 
REMARK    4  A    between atoms: C_3  and  N_13 
REMARK    5  A    between atoms: C_4  and  C_16 
REMARK    6  A    between atoms: C_5  and  C_12 
REMARK    7  A    between atoms: S_7  and  C_19 
REMARK    8  A    between atoms: C_12  and  C_14 
REMARK    9  A    between atoms: C_14  and  C_19 
ROOT
HETATM    1  N           1     -34.725  -1.182 -12.944  0.00  0.00    -0.345 N 
HETATM    2  C           1     -34.854  -2.243 -12.087  0.00  0.00     0.249 C 
HETATM    3  O           1     -35.927  -2.777 -11.945  0.00  0.00    -0.271 OA
HETATM    4  H           1     -33.825  -0.734 -13.063  0.00  0.00     0.163 HD
ENDROOT
BRANCH   2   5
HETATM    5  C           1     -33.653  -2.743 -11.320  0.00  0.00     0.275 C 
BRANCH   5   6
HETATM    6  C           1     -34.064  -3.919 -10.444  0.00  0.00     0.046 C 
BRANCH   6   7
HETATM    7  C           1     -33.386  -5.188 -10.945  0.00  0.00    -0.020 C 
HETATM    8  C           1     -34.443  -6.166 -11.444  0.00  0.00     0.009 C 
HETATM    9  C           1     -32.440  -4.839 -12.086  0.00  0.00     0.009 C 
ENDBRANCH   6   7
ENDBRANCH   5   6
BRANCH   5  10
HETATM   10  N           1     -33.118  -1.640 -10.457  0.00  0.00    -0.066 N 
HETATM   11  H           1     -32.998  -0.774 -11.031  0.00  0.00     0.275 HD
HETATM   12  H           1     -33.788  -1.450  -9.678  0.00  0.00     0.275 HD
HETATM   13  H           1     -32.194  -1.925 -10.061  0.00  0.00     0.275 HD
ENDBRANCH   5  10
ENDBRANCH   2   5
BRANCH   1  14
HETATM   14  C           1     -35.877  -0.701 -13.681  0.00  0.00     0.186 C 
BRANCH  14  15
HETATM   15  C           1     -35.422  -0.109 -14.992  0.00  0.00     0.196 C 
HETATM   16  O           1     -36.157  -0.187 -16.001  0.00  0.00    -0.646 OA
HETATM   17  O           1     -34.313   0.461 -15.069  0.00  0.00    -0.646 OA
ENDBRANCH  14  15
BRANCH  14  18
HETATM   18  C           1     -36.594   0.364 -12.863  0.00  0.00     0.046 C 
BRANCH  18  19
HETATM   19  C           1     -37.979  -0.137 -12.478  0.00  0.00     0.076 C 
BRANCH  19  20
HETATM   20  S           1     -38.075  -0.329 -10.676  0.00  0.00    -0.173 SA
HETATM   21  C           1     -36.627   0.695 -10.289  0.00  0.00     0.089 C 
ENDBRANCH  19  20
ENDBRANCH  18  19
ENDBRANCH  14  18
ENDBRANCH   1  14
TORSDOF 9
ENDMDL
MODEL 4
REMARK VINA RESULT:      -5.2     14.547     16.874
REMARK  9 active torsions:
REMARK  status: ('A' for Active; 'I' for Inactive)
REMARK    1  A    between atoms: N_1  and  C_12 
REMARK       I    between atoms: N_1  and  C_2 
REMARK    2  A    between atoms: C_2  and  C_3 
REMARK    3  A    between atoms: C_3  and  C_4 
REMARK    4  A    between atoms: C_3  and  N_13 
REMARK    5  A    between atoms: C_4  and  C_16 
REMARK    6  A    between atoms: C_5  and  C_12 
REMARK    7  A    between atoms: S_7  and  C_19 
REMARK    8  A    between atoms: C_12  and  C_14 
REMARK    9  A    between atoms: C_14  and  C_19 
ROOT
HETATM    1  N           1     -21.603  -6.333  -5.678  0.00  0.00    -0.345 N 
HETATM    2  C           1     -21.045  -5.201  -6.210  0.00  0.00     0.249 C 
HETATM    3  O           1     -20.028  -4.752  -5.742  0.00  0.00    -0.271 OA
HETATM    4  H           1     -22.456  -6.710  -6.071  0.00  0.00     0.163 HD
ENDROOT
BRANCH   2   5
HETATM    5  C           1     -21.703  -4.516  -7.384  0.00  0.00     0.275 C 
BRANCH   5   6
HETATM    6  C           1     -20.975  -4.895  -8.666  0.00  0.00     0.046 C 
BRANCH   6   7
HETATM    7  C           1     -21.504  -4.051  -9.819  0.00  0.00    -0.020 C 
HETATM    8  C           1     -20.491  -4.053 -10.957  0.00  0.00     0.009 C 
HETATM    9  C           1     -22.820  -4.635 -10.313  0.00  0.00     0.009 C 
ENDBRANCH   6   7
ENDBRANCH   5   6
BRANCH   5  10
HETATM   10  N           1     -21.640  -3.030  -7.193  0.00  0.00    -0.066 N 
HETATM   11  H           1     -20.641  -2.730  -7.121  0.00  0.00     0.275 HD
HETATM   12  H           1     -22.087  -2.556  -8.010  0.00  0.00     0.275 HD
HETATM   13  H           1     -22.146  -2.769  -6.318  0.00  0.00     0.275 HD
ENDBRANCH   5  10
ENDBRANCH   2   5
BRANCH   1  14
HETATM   14  C           1     -20.972  -6.992  -4.551  0.00  0.00     0.186 C 
BRANCH  14  15
HETATM   15  C           1     -20.326  -8.274  -5.017  0.00  0.00     0.196 C 
HETATM   16  O           1     -19.202  -8.603  -4.578  0.00  0.00    -0.646 OA
HETATM   17  O           1     -20.915  -9.007  -5.839  0.00  0.00    -0.646 OA
ENDBRANCH  14  15
BRANCH  14  18
HETATM   18  C           1     -22.021  -7.306  -3.494  0.00  0.00     0.046 C 
BRANCH  18  19
HETATM   19  C           1     -21.912  -6.300  -2.355  0.00  0.00     0.076 C 
BRANCH  19  20
HETATM   20  S           1     -22.248  -7.133  -0.778  0.00  0.00    -0.173 SA
HETATM   21  C           1     -21.827  -8.806  -1.342  0.00  0.00     0.089 C 
ENDBRANCH  19  20
ENDBRANCH  18  19
ENDBRANCH  14  18
ENDBRANCH   1  14
TORSDOF 9
ENDMDL
MODEL 5
REMARK VINA RESULT:      -5.1     13.730     15.519
REMARK  9 active torsions:
REMARK  status: ('A' for Active; 'I' for Inactive)
REMARK    1  A    between atoms: N_1  and  C_12 
REMARK       I    between atoms: N_1  and  C_2 
REMARK    2  A    between atoms: C_2  and  C_3 
REMARK    3  A    between atoms: C_3  and  C_4 
REMARK    4  A    between atoms: C_3  and  N_13 
REMARK    5  A    between atoms: C_4  and  C_16 
REMARK    6  A    between atoms: C_5  and  C_12 
REMARK    7  A    between atoms: S_7  and  C_19 
REMARK    8  A    between atoms: C_12  and  C_14 
REMARK    9  A    between atoms: C_14  and  C_19 
ROOT
HETATM    1  N           1     -21.500  -5.212  -6.825  0.00  0.00    -0.345 N 
HETATM    2  C           1     -21.377  -6.287  -5.986  0.00  0.00     0.249 C 
HETATM    3  O           1     -20.731  -7.249  -6.327  0.00  0.00    -0.271 OA
HETATM    4  H           1     -22.041  -4.406  -6.539  0.00  0.00     0.163 HD
ENDROOT
BRANCH   2   5
HETATM    5  C           1     -22.048  -6.269  -4.634  0.00  0.00     0.275 C 
BRANCH   5   6
HETATM    6  C           1     -21.639  -7.508  -3.847  0.00  0.00     0.046 C 
BRANCH   6   7
HETATM    7  C           1     -21.079  -7.088  -2.494  0.00  0.00    -0.020 C 
HETATM    8  C           1     -22.183  -6.441  -1.666  0.00  0.00     0.009 C 
HETATM    9  C           1     -20.551  -8.314  -1.762  0.00  0.00     0.009 C 
ENDBRANCH   6   7
ENDBRANCH   5   6
BRANCH   5  10
HETATM   10  N           1     -23.536  -6.263  -4.816  0.00  0.00    -0.066 N 
HETATM   11  H           1     -23.767  -5.958  -5.789  0.00  0.00     0.275 HD
HETATM   12  H           1     -23.911  -7.225  -4.656  0.00  0.00     0.275 HD
HETATM   13  H           1     -23.968  -5.602  -4.133  0.00  0.00     0.275 HD
ENDBRANCH   5  10
ENDBRANCH   2   5
BRANCH   1  14
HETATM   14  C           1     -20.855  -5.228  -8.124  0.00  0.00     0.186 C 
BRANCH  14  15
HETATM   15  C           1     -19.648  -4.322  -8.096  0.00  0.00     0.196 C 
HETATM   16  O           1     -18.707  -4.558  -7.308  0.00  0.00    -0.646 OA
HETATM   17  O           1     -19.590  -3.337  -8.862  0.00  0.00    -0.646 OA
ENDBRANCH  14  15
BRANCH  14  18
HETATM   18  C           1     -21.834  -4.739  -9.182  0.00  0.00     0.046 C 
BRANCH  18  19
HETATM   19  C           1     -23.057  -4.138  -8.504  0.00  0.00     0.076 C 
BRANCH  19  20
HETATM   20  S           1     -24.317  -3.756  -9.753  0.00  0.00    -0.173 SA
HETATM   21  C           1     -23.631  -4.815 -11.058  0.00  0.00     0.089 C 
ENDBRANCH  19  20
ENDBRANCH  18  19
ENDBRANCH  14  18
ENDBRANCH   1  14
TORSDOF 9
ENDMDL
MODEL 6
REMARK VINA RESULT:      -5.1     14.983     17.244
REMARK  9 active torsions:
REMARK  status: ('A' for Active; 'I' for Inactive)
REMARK    1  A    between atoms: N_1  and  C_12 
REMARK       I    between atoms: N_1  and  C_2 
REMARK    2  A    between atoms: C_2  and  C_3 
REMARK    3  A    between atoms: C_3  and  C_4 
REMARK    4  A    between atoms: C_3  and  N_13 
REMARK    5  A    between atoms: C_4  and  C_16 
REMARK    6  A    between atoms: C_5  and  C_12 
REMARK    7  A    between atoms: S_7  and  C_19 
REMARK    8  A    between atoms: C_12  and  C_14 
REMARK    9  A    between atoms: C_14  and  C_19 
ROOT
HETATM    1  N           1     -20.928  -6.487  -4.946  0.00  0.00    -0.345 N 
HETATM    2  C           1     -21.620  -5.634  -5.764  0.00  0.00     0.249 C 
HETATM    3  O           1     -22.827  -5.640  -5.759  0.00  0.00    -0.271 OA
HETATM    4  H           1     -19.916  -6.481  -4.949  0.00  0.00     0.163 HD
ENDROOT
BRANCH   2   5
HETATM    5  C           1     -20.873  -4.686  -6.670  0.00  0.00     0.275 C 
BRANCH   5   6
HETATM    6  C           1     -20.932  -5.199  -8.103  0.00  0.00     0.046 C 
BRANCH   6   7
HETATM    7  C           1     -21.313  -4.057  -9.037  0.00  0.00    -0.020 C 
HETATM    8  C           1     -20.598  -4.232 -10.370  0.00  0.00     0.009 C 
HETATM    9  C           1     -22.819  -4.070  -9.264  0.00  0.00     0.009 C 
ENDBRANCH   6   7
ENDBRANCH   5   6
BRANCH   5  10
HETATM   10  N           1     -19.442  -4.598  -6.230  0.00  0.00    -0.066 N 
HETATM   11  H           1     -19.352  -4.977  -5.259  0.00  0.00     0.275 HD
HETATM   12  H           1     -18.844  -5.158  -6.878  0.00  0.00     0.275 HD
HETATM   13  H           1     -19.134  -3.600  -6.244  0.00  0.00     0.275 HD
ENDBRANCH   5  10
ENDBRANCH   2   5
BRANCH   1  14
HETATM   14  C           1     -21.644  -7.397  -4.075  0.00  0.00     0.186 C 
BRANCH  14  15
HETATM   15  C           1     -21.611  -6.870  -2.660  0.00  0.00     0.196 C 
HETATM   16  O           1     -22.373  -5.939  -2.323  0.00  0.00    -0.646 OA
HETATM   17  O           1     -20.823  -7.366  -1.828  0.00  0.00    -0.646 OA
ENDBRANCH  14  15
BRANCH  14  18
HETATM   18  C           1     -20.984  -8.769  -4.122  0.00  0.00     0.046 C 
BRANCH  18  19
HETATM   19  C           1     -19.684  -8.680  -4.910  0.00  0.00     0.076 C 
BRANCH  19  20
HETATM   20  S           1     -18.622 -10.090  -4.488  0.00  0.00    -0.173 SA
HETATM   21  C           1     -18.029  -9.427  -2.906  0.00  0.00     0.089 C 
ENDBRANCH  19  20
ENDBRANCH  18  19
ENDBRANCH  14  18
ENDBRANCH   1  14
TORSDOF 9
ENDMDL
MODEL 7
REMARK VINA RESULT:      -5.0     13.316     15.541
REMARK  9 active torsions:
REMARK  status: ('A' for Active; 'I' for Inactive)
REMARK    1  A    between atoms: N_1  and  C_12 
REMARK       I    between atoms: N_1  and  C_2 
REMARK    2  A    between atoms: C_2  and  C_3 
REMARK    3  A    between atoms: C_3  and  C_4 
REMARK    4  A    between atoms: C_3  and  N_13 
REMARK    5  A    between atoms: C_4  and  C_16 
REMARK    6  A    between atoms: C_5  and  C_12 
REMARK    7  A    between atoms: S_7  and  C_19 
REMARK    8  A    between atoms: C_12  and  C_14 
REMARK    9  A    between atoms: C_14  and  C_19 
ROOT
HETATM    1  N           1     -21.098  -5.211  -8.048  0.00  0.00    -0.345 N 
HETATM    2  C           1     -21.629  -4.094  -8.636  0.00  0.00     0.249 C 
HETATM    3  O           1     -22.137  -3.237  -7.954  0.00  0.00    -0.271 OA
HETATM    4  H           1     -20.671  -5.929  -8.620  0.00  0.00     0.163 HD
ENDROOT
BRANCH   2   5
HETATM    5  C           1     -21.577  -3.933 -10.136  0.00  0.00     0.275 C 
BRANCH   5   6
HETATM    6  C           1     -22.884  -4.423 -10.744  0.00  0.00     0.046 C 
BRANCH   6   7
HETATM    7  C           1     -23.840  -3.248 -10.908  0.00  0.00    -0.020 C 
HETATM    8  C           1     -24.347  -3.202 -12.344  0.00  0.00     0.009 C 
HETATM    9  C           1     -25.019  -3.419  -9.960  0.00  0.00     0.009 C 
ENDBRANCH   6   7
ENDBRANCH   5   6
BRANCH   5  10
HETATM   10  N           1     -20.437  -4.739 -10.684  0.00  0.00    -0.066 N 
HETATM   11  H           1     -20.502  -4.770 -11.727  0.00  0.00     0.275 HD
HETATM   12  H           1     -19.533  -4.297 -10.406  0.00  0.00     0.275 HD
HETATM   13  H           1     -20.483  -5.710 -10.304  0.00  0.00     0.275 HD
ENDBRANCH   5  10
ENDBRANCH   2   5
BRANCH   1  14
HETATM   14  C           1     -21.147  -5.366  -6.608  0.00  0.00     0.186 C 
BRANCH  14  15
HETATM   15  C           1     -19.899  -4.776  -5.997  0.00  0.00     0.196 C 
HETATM   16  O           1     -18.861  -4.661  -6.684  0.00  0.00    -0.646 OA
HETATM   17  O           1     -19.904  -4.402  -4.805  0.00  0.00    -0.646 OA
ENDBRANCH  14  15
BRANCH  14  18
HETATM   18  C           1     -21.233  -6.846  -6.259  0.00  0.00     0.046 C 
BRANCH  18  19
HETATM   19  C           1     -22.153  -7.033  -5.060  0.00  0.00     0.076 C 
BRANCH  19  20
HETATM   20  S           1     -21.175  -7.549  -3.621  0.00  0.00    -0.173 SA
HETATM   21  C           1     -21.815  -6.287  -2.484  0.00  0.00     0.089 C 
ENDBRANCH  19  20
ENDBRANCH  18  19
ENDBRANCH  14  18
ENDBRANCH   1  14
TORSDOF 9
ENDMDL
MODEL 8
REMARK VINA RESULT:      -5.0     16.536     18.133
REMARK  9 active torsions:
REMARK  status: ('A' for Active; 'I' for Inactive)
REMARK    1  A    between atoms: N_1  and  C_12 
REMARK       I    between atoms: N_1  and  C_2 
REMARK    2  A    between atoms: C_2  and  C_3 
REMARK    3  A    between atoms: C_3  and  C_4 
REMARK    4  A    between atoms: C_3  and  N_13 
REMARK    5  A    between atoms: C_4  and  C_16 
REMARK    6  A    between atoms: C_5  and  C_12 
REMARK    7  A    between atoms: S_7  and  C_19 
REMARK    8  A    between atoms: C_12  and  C_14 
REMARK    9  A    between atoms: C_14  and  C_19 
ROOT
HETATM    1  N           1     -20.975  -8.893  -3.415  0.00  0.00    -0.345 N 
HETATM    2  C           1     -21.828  -9.807  -2.856  0.00  0.00     0.249 C 
HETATM    3  O           1     -22.348 -10.649  -3.547  0.00  0.00    -0.271 OA
HETATM    4  H           1     -20.538  -8.188  -2.836  0.00  0.00     0.163 HD
ENDROOT
BRANCH   2   5
HETATM    5  C           1     -22.116  -9.762  -1.375  0.00  0.00     0.275 C 
BRANCH   5   6
HETATM    6  C           1     -21.179  -8.764  -0.706  0.00  0.00     0.046 C 
BRANCH   6   7
HETATM    7  C           1     -21.996  -7.640  -0.081  0.00  0.00    -0.020 C 
HETATM    8  C           1     -22.323  -6.599  -1.144  0.00  0.00     0.009 C 
HETATM    9  C           1     -23.290  -8.208   0.486  0.00  0.00     0.009 C 
ENDBRANCH   6   7
ENDBRANCH   5   6
BRANCH   5  10
HETATM   10  N           1     -21.901 -11.123  -0.783  0.00  0.00    -0.066 N 
HETATM   11  H           1     -22.285 -11.145   0.189  0.00  0.00     0.275 HD
HETATM   12  H           1     -22.392 -11.837  -1.366  0.00  0.00     0.275 HD
HETATM   13  H           1     -20.879 -11.335  -0.759  0.00  0.00     0.275 HD
ENDBRANCH   5  10
ENDBRANCH   2   5
BRANCH   1  14
HETATM   14  C           1     -20.697  -8.936  -4.837  0.00  0.00     0.186 C 
BRANCH  14  15
HETATM   15  C           1     -19.204  -8.934  -5.058  0.00  0.00     0.196 C 
HETATM   16  O           1     -18.429  -9.080  -4.087  0.00  0.00    -0.646 OA
HETATM   17  O           1     -18.743  -8.789  -6.209  0.00  0.00    -0.646 OA
ENDBRANCH  14  15
BRANCH  14  18
HETATM   18  C           1     -21.312  -7.717  -5.511  0.00  0.00     0.046 C 
BRANCH  18  19
HETATM   19  C           1     -21.056  -6.482  -4.658  0.00  0.00     0.076 C 
BRANCH  19  20
HETATM   20  S           1     -20.396  -5.151  -5.701  0.00  0.00    -0.173 SA
HETATM   21  C           1     -20.931  -5.855  -7.285  0.00  0.00     0.089 C 
ENDBRANCH  19  20
ENDBRANCH  18  19
ENDBRANCH  14  18
ENDBRANCH   1  14
TORSDOF 9
ENDMDL
MODEL 9
REMARK VINA RESULT:      -5.0     11.032     12.445
REMARK  9 active torsions:
REMARK  status: ('A' for Active; 'I' for Inactive)
REMARK    1  A    between atoms: N_1  and  C_12 
REMARK       I    between atoms: N_1  and  C_2 
REMARK    2  A    between atoms: C_2  and  C_3 
REMARK    3  A    between atoms: C_3  and  C_4 
REMARK    4  A    between atoms: C_3  and  N_13 
REMARK    5  A    between atoms: C_4  and  C_16 
REMARK    6  A    between atoms: C_5  and  C_12 
REMARK    7  A    between atoms: S_7  and  C_19 
REMARK    8  A    between atoms: C_12  and  C_14 
REMARK    9  A    between atoms: C_14  and  C_19 
ROOT
HETATM    1  N           1     -26.185  -6.686 -18.016  0.00  0.00    -0.345 N 
HETATM    2  C           1     -25.927  -6.541 -19.354  0.00  0.00     0.249 C 
HETATM    3  O           1     -26.753  -6.038 -20.077  0.00  0.00    -0.271 OA
HETATM    4  H           1     -25.493  -7.107 -17.410  0.00  0.00     0.163 HD
ENDROOT
BRANCH   2   5
HETATM    5  C           1     -24.610  -7.011 -19.923  0.00  0.00     0.275 C 
BRANCH   5   6
HETATM    6  C           1     -24.841  -8.246 -20.784  0.00  0.00     0.046 C 
BRANCH   6   7
HETATM    7  C           1     -24.098  -8.090 -22.105  0.00  0.00    -0.020 C 
HETATM    8  C           1     -24.127  -6.629 -22.535  0.00  0.00     0.009 C 
HETATM    9  C           1     -22.653  -8.537 -21.929  0.00  0.00     0.009 C 
ENDBRANCH   6   7
ENDBRANCH   5   6
BRANCH   5  10
HETATM   10  N           1     -23.675  -7.351 -18.801  0.00  0.00    -0.066 N 
HETATM   11  H           1     -22.998  -6.567 -18.662  0.00  0.00     0.275 HD
HETATM   12  H           1     -24.223  -7.496 -17.923  0.00  0.00     0.275 HD
HETATM   13  H           1     -23.154  -8.224 -19.035  0.00  0.00     0.275 HD
ENDBRANCH   5  10
ENDBRANCH   2   5
BRANCH   1  14
HETATM   14  C           1     -27.450  -6.235 -17.469  0.00  0.00     0.186 C 
BRANCH  14  15
HETATM   15  C           1     -27.466  -6.476 -15.979  0.00  0.00     0.196 C 
HETATM   16  O           1     -28.198  -5.780 -15.242  0.00  0.00    -0.646 OA
HETATM   17  O           1     -26.749  -7.370 -15.483  0.00  0.00    -0.646 OA
ENDBRANCH  14  15
BRANCH  14  18
HETATM   18  C           1     -28.589  -7.007 -18.121  0.00  0.00     0.046 C 
BRANCH  18  19
HETATM   19  C           1     -29.760  -6.067 -18.374  0.00  0.00     0.076 C 
BRANCH  19  20
HETATM   20  S           1     -31.143  -6.516 -17.287  0.00  0.00    -0.173 SA
HETATM   21  C           1     -31.578  -4.820 -16.809  0.00  0.00     0.089 C 
ENDBRANCH  19  20
ENDBRANCH  18  19
ENDBRANCH  14  18
ENDBRANCH   1  14
TORSDOF 9
ENDMDL
