MODEL 1
REMARK VINA RESULT:      -5.9      0.000      0.000
REMARK  9 active torsions:
REMARK  status: ('A' for Active; 'I' for Inactive)
REMARK    1  A    between atoms: N_2  and  C_6 
REMARK    2  A    between atoms: S_3  and  C_14 
REMARK    3  A    between atoms: C_6  and  C_7 
REMARK    4  A    between atoms: C_6  and  C_13 
REMARK       I    between atoms: C_7  and  N_19 
REMARK    5  A    between atoms: C_13  and  C_20 
REMARK    6  A    between atoms: C_14  and  C_15 
REMARK    7  A    between atoms: C_15  and  C_16 
REMARK    8  A    between atoms: C_16  and  C_17 
REMARK    9  A    between atoms: C_16  and  N_19 
ROOT
HETATM    1  O           1     -21.497  -3.190  -7.251  0.00  0.00    -0.271 OA
HETATM    2  C           1     -21.576  -4.365  -7.524  0.00  0.00     0.249 C 
HETATM    3  H           1     -22.227  -5.741  -8.927  0.00  0.00     0.163 HD
HETATM    4  N           1     -22.161  -4.757  -8.698  0.00  0.00    -0.345 N 
ENDROOT
BRANCH   2   5
HETATM    5  C           1     -21.029  -5.399  -6.571  0.00  0.00     0.284 C 
BRANCH   5   6
HETATM    6  N           1     -20.036  -4.753  -5.650  0.00  0.00    -0.066 N 
HETATM    7  H           1     -20.086  -5.206  -4.709  0.00  0.00     0.275 HD
HETATM    8  H           1     -19.073  -4.869  -6.040  0.00  0.00     0.275 HD
HETATM    9  H           1     -20.256  -3.736  -5.560  0.00  0.00     0.275 HD
ENDBRANCH   5   6
BRANCH   5  10
HETATM   10  C           1     -22.170  -5.990  -5.753  0.00  0.00     0.155 C 
BRANCH  10  11
HETATM   11  C           1     -21.630  -6.519  -4.446  0.00  0.00     0.175 C 
HETATM   12  O           1     -20.826  -7.476  -4.444  0.00  0.00    -0.648 OA
HETATM   13  O           1     -21.988  -6.000  -3.367  0.00  0.00    -0.648 OA
ENDBRANCH  10  11
ENDBRANCH   5  10
ENDBRANCH   2   5
BRANCH   4  14
HETATM   14  C           1     -22.686  -3.763  -9.614  0.00  0.00     0.186 C 
BRANCH  14  15
HETATM   15  C           1     -22.151  -4.031 -11.014  0.00  0.00     0.046 C 
BRANCH  15  16
HETATM   16  C           1     -22.458  -2.841 -11.912  0.00  0.00     0.076 C 
BRANCH  16  17
HETATM   17  S           1     -23.761  -3.292 -13.093  0.00  0.00    -0.173 SA
HETATM   18  C           1     -22.937  -2.621 -14.564  0.00  0.00     0.089 C 
ENDBRANCH  16  17
ENDBRANCH  15  16
ENDBRANCH  14  15
BRANCH  14  19
HETATM   19  C           1     -24.193  -3.839  -9.628  0.00  0.00     0.196 C 
HETATM   20  O           1     -24.873  -2.811  -9.414  0.00  0.00    -0.646 OA
HETATM   21  O           1     -24.762  -4.928  -9.854  0.00  0.00    -0.646 OA
ENDBRANCH  14  19
ENDBRANCH   4  14
TORSDOF 9
ENDMDL
MODEL 2
REMARK VINA RESULT:      -5.6      3.439      6.860
REMARK  9 active torsions:
REMARK  status: ('A' for Active; 'I' for Inactive)
REMARK    1  A    between atoms: N_2  and  C_6 
REMARK    2  A    between atoms: S_3  and  C_14 
REMARK    3  A    between atoms: C_6  and  C_7 
REMARK    4  A    between atoms: C_6  and  C_13 
REMARK       I    between atoms: C_7  and  N_19 
REMARK    5  A    between atoms: C_13  and  C_20 
REMARK    6  A    between atoms: C_14  and  C_15 
REMARK    7  A    between atoms: C_15  and  C_16 
REMARK    8  A    between atoms: C_16  and  C_17 
REMARK    9  A    between atoms: C_16  and  N_19 
ROOT
HETATM    1  O           1     -23.113  -3.189  -8.524  0.00  0.00    -0.271 OA
HETATM    2  C           1     -23.150  -4.284  -9.033  0.00  0.00     0.249 C 
HETATM    3  H           1     -22.239  -6.141  -9.131  0.00  0.00     0.163 HD
HETATM    4  N           1     -22.208  -5.224  -8.705  0.00  0.00    -0.345 N 
ENDROOT
BRANCH   2   5
HETATM    5  C           1     -24.233  -4.617 -10.029  0.00  0.00     0.284 C 
BRANCH   5   6
HETATM    6  N           1     -25.307  -3.572  -9.967  0.00  0.00    -0.066 N 
HETATM    7  H           1     -25.327  -3.150  -9.010  0.00  0.00     0.275 HD
HETATM    8  H           1     -25.109  -2.827 -10.671  0.00  0.00     0.275 HD
HETATM    9  H           1     -26.232  -4.012 -10.173  0.00  0.00     0.275 HD
ENDBRANCH   5   6
BRANCH   5  10
HETATM   10  C           1     -23.640  -4.652 -11.432  0.00  0.00     0.155 C 
BRANCH  10  11
HETATM   11  C           1     -23.875  -3.325 -12.111  0.00  0.00     0.175 C 
HETATM   12  O           1     -23.074  -2.383 -11.935  0.00  0.00    -0.648 OA
HETATM   13  O           1     -24.871  -3.169 -12.849  0.00  0.00    -0.648 OA
ENDBRANCH  10  11
ENDBRANCH   5  10
ENDBRANCH   2   5
BRANCH   4  14
HETATM   14  C           1     -21.168  -4.903  -7.747  0.00  0.00     0.186 C 
BRANCH  14  15
HETATM   15  C           1     -20.968  -6.081  -6.803  0.00  0.00     0.046 C 
BRANCH  15  16
HETATM   16  C           1     -21.207  -5.629  -5.369  0.00  0.00     0.076 C 
BRANCH  16  17
HETATM   17  S           1     -21.757  -7.043  -4.372  0.00  0.00    -0.173 SA
HETATM   18  C           1     -21.561  -6.236  -2.758  0.00  0.00     0.089 C 
ENDBRANCH  16  17
ENDBRANCH  15  16
ENDBRANCH  14  15
BRANCH  14  19
HETATM   19  C           1     -19.879  -4.621  -8.480  0.00  0.00     0.196 C 
HETATM   20  O           1     -18.863  -4.268  -7.844  0.00  0.00    -0.646 OA
HETATM   21  O           1     -19.828  -4.742  -9.723  0.00  0.00    -0.646 OA
ENDBRANCH  14  19
ENDBRANCH   4  14
TORSDOF 9
ENDMDL
MODEL 3
REMARK VINA RESULT:      -5.3      3.612      7.197
REMARK  9 active torsions:
REMARK  status: ('A' for Active; 'I' for Inactive)
REMARK    1  A    between atoms: N_2  and  C_6 
REMARK    2  A    between atoms: S_3  and  C_14 
REMARK    3  A    between atoms: C_6  and  C_7 
REMARK    4  A    between atoms: C_6  and  C_13 
REMARK       I    between atoms: C_7  and  N_19 
REMARK    5  A    between atoms: C_13  and  C_20 
REMARK    6  A    between atoms: C_14  and  C_15 
REMARK    7  A    between atoms: C_15  and  C_16 
REMARK    8  A    between atoms: C_16  and  C_17 
REMARK    9  A    between atoms: C_16  and  N_19 
ROOT
HETATM    1  O           1     -20.338  -3.988  -6.903  0.00  0.00    -0.271 OA
HETATM    2  C           1     -21.442  -4.383  -7.197  0.00  0.00     0.249 C 
HETATM    3  H           1     -22.922  -5.763  -6.759  0.00  0.00     0.163 HD
HETATM    4  N           1     -21.998  -5.431  -6.513  0.00  0.00    -0.345 N 
ENDROOT
BRANCH   2   5
HETATM    5  C           1     -22.207  -3.721  -8.316  0.00  0.00     0.284 C 
BRANCH   5   6
HETATM    6  N           1     -21.507  -3.975  -9.618  0.00  0.00    -0.066 N 
HETATM    7  H           1     -22.164  -4.446 -10.281  0.00  0.00     0.275 HD
HETATM    8  H           1     -21.193  -3.067 -10.028  0.00  0.00     0.275 HD
HETATM    9  H           1     -20.678  -4.589  -9.452  0.00  0.00     0.275 HD
ENDBRANCH   5   6
BRANCH   5  10
HETATM   10  C           1     -23.617  -4.294  -8.377  0.00  0.00     0.155 C 
BRANCH  10  11
HETATM   11  C           1     -24.295  -3.828  -9.641  0.00  0.00     0.175 C 
HETATM   12  O           1     -25.065  -2.844  -9.611  0.00  0.00    -0.648 OA
HETATM   13  O           1     -24.087  -4.426 -10.719  0.00  0.00    -0.648 OA
ENDBRANCH  10  11
ENDBRANCH   5  10
ENDBRANCH   2   5
BRANCH   4  14
HETATM   14  C           1     -21.262  -6.068  -5.438  0.00  0.00     0.186 C 
BRANCH  14  15
HETATM   15  C           1     -22.220  -6.423  -4.309  0.00  0.00     0.046 C 
BRANCH  15  16
HETATM   16  C           1     -21.556  -6.139  -2.969  0.00  0.00     0.076 C 
BRANCH  16  17
HETATM   17  S           1     -21.385  -7.687  -2.037  0.00  0.00    -0.173 SA
HETATM   18  C           1     -22.389  -7.173  -0.614  0.00  0.00     0.089 C 
ENDBRANCH  16  17
ENDBRANCH  15  16
ENDBRANCH  14  15
BRANCH  14  19
HETATM   19  C           1     -20.603  -7.323  -5.953  0.00  0.00     0.196 C 
HETATM   20  O           1     -19.481  -7.261  -6.501  0.00  0.00    -0.646 OA
HETATM   21  O           1     -21.179  -8.426  -5.832  0.00  0.00    -0.646 OA
ENDBRANCH  14  19
ENDBRANCH   4  14
TORSDOF 9
ENDMDL
MODEL 4
REMARK VINA RESULT:      -5.1     18.580     19.891
REMARK  9 active torsions:
REMARK  status: ('A' for Active; 'I' for Inactive)
REMARK    1  A    between atoms: N_2  and  C_6 
REMARK    2  A    between atoms: S_3  and  C_14 
REMARK    3  A    between atoms: C_6  and  C_7 
REMARK    4  A    between atoms: C_6  and  C_13 
REMARK       I    between atoms: C_7  and  N_19 
REMARK    5  A    between atoms: C_13  and  C_20 
REMARK    6  A    between atoms: C_14  and  C_15 
REMARK    7  A    between atoms: C_15  and  C_16 
REMARK    8  A    between atoms: C_16  and  C_17 
REMARK    9  A    between atoms: C_16  and  N_19 
ROOT
HETATM    1  O           1     -11.106   2.957 -21.373  0.00  0.00    -0.271 OA
HETATM    2  C           1     -11.656   3.947 -21.794  0.00  0.00     0.249 C 
HETATM    3  H           1     -11.667   6.017 -21.780  0.00  0.00     0.163 HD
HETATM    4  N           1     -11.206   5.188 -21.427  0.00  0.00    -0.345 N 
ENDROOT
BRANCH   2   5
HETATM    5  C           1     -12.837   3.816 -22.724  0.00  0.00     0.284 C 
BRANCH   5   6
HETATM    6  N           1     -13.826   2.850 -22.141  0.00  0.00    -0.066 N 
HETATM    7  H           1     -13.481   2.516 -21.213  0.00  0.00     0.275 HD
HETATM    8  H           1     -14.748   3.326 -22.019  0.00  0.00     0.275 HD
HETATM    9  H           1     -13.936   2.035 -22.786  0.00  0.00     0.275 HD
ENDBRANCH   5   6
BRANCH   5  10
HETATM   10  C           1     -13.499   5.177 -22.898  0.00  0.00     0.155 C 
BRANCH  10  11
HETATM   11  C           1     -14.818   5.192 -22.164  0.00  0.00     0.175 C 
HETATM   12  O           1     -15.886   5.045 -22.796  0.00  0.00    -0.648 OA
HETATM   13  O           1     -14.841   5.353 -20.925  0.00  0.00    -0.648 OA
ENDBRANCH  10  11
ENDBRANCH   5  10
ENDBRANCH   2   5
BRANCH   4  14
HETATM   14  C           1     -10.071   5.312 -20.534  0.00  0.00     0.186 C 
BRANCH  14  15
HETATM   15  C           1      -9.266   6.550 -20.907  0.00  0.00     0.046 C 
BRANCH  15  16
HETATM   16  C           1     -10.215   7.668 -21.319  0.00  0.00     0.076 C 
BRANCH  16  17
HETATM   17  S           1     -10.084   9.039 -20.137  0.00  0.00    -0.173 SA
HETATM   18  C           1     -11.789   8.936 -19.523  0.00  0.00     0.089 C 
ENDBRANCH  16  17
ENDBRANCH  15  16
ENDBRANCH  14  15
BRANCH  14  19
HETATM   19  C           1     -10.561   5.440 -19.113  0.00  0.00     0.196 C 
HETATM   20  O           1      -9.791   5.857 -18.221  0.00  0.00    -0.646 OA
HETATM   21  O           1     -11.738   5.129 -18.827  0.00  0.00    -0.646 OA
ENDBRANCH  14  19
ENDBRANCH   4  14
TORSDOF 9
ENDMDL
MODEL 5
REMARK VINA RESULT:      -5.1      3.849      7.470
REMARK  9 active torsions:
REMARK  status: ('A' for Active; 'I' for Inactive)
REMARK    1  A    between atoms: N_2  and  C_6 
REMARK    2  A    between atoms: S_3  and  C_14 
REMARK    3  A    between atoms: C_6  and  C_7 
REMARK    4  A    between atoms: C_6  and  C_13 
REMARK       I    between atoms: C_7  and  N_19 
REMARK    5  A    between atoms: C_13  and  C_20 
REMARK    6  A    between atoms: C_14  and  C_15 
REMARK    7  A    between atoms: C_15  and  C_16 
REMARK    8  A    between atoms: C_16  and  C_17 
REMARK    9  A    between atoms: C_16  and  N_19 
ROOT
HETATM    1  O           1     -20.576  -4.464  -6.322  0.00  0.00    -0.271 OA
HETATM    2  C           1     -21.085  -5.248  -7.087  0.00  0.00     0.249 C 
HETATM    3  H           1     -21.646  -7.220  -7.372  0.00  0.00     0.163 HD
HETATM    4  N           1     -21.220  -6.563  -6.731  0.00  0.00    -0.345 N 
ENDROOT
BRANCH   2   5
HETATM    5  C           1     -21.572  -4.777  -8.436  0.00  0.00     0.284 C 
BRANCH   5   6
HETATM    6  N           1     -22.462  -3.583  -8.256  0.00  0.00    -0.066 N 
HETATM    7  H           1     -22.645  -3.434  -7.238  0.00  0.00     0.275 HD
HETATM    8  H           1     -21.994  -2.737  -8.652  0.00  0.00     0.275 HD
HETATM    9  H           1     -23.366  -3.746  -8.753  0.00  0.00     0.275 HD
ENDBRANCH   5   6
BRANCH   5  10
HETATM   10  C           1     -20.379  -4.396  -9.303  0.00  0.00     0.155 C 
BRANCH  10  11
HETATM   11  C           1     -20.863  -3.982 -10.670  0.00  0.00     0.175 C 
HETATM   12  O           1     -21.812  -4.592 -11.209  0.00  0.00    -0.648 OA
HETATM   13  O           1     -20.316  -3.029 -11.264  0.00  0.00    -0.648 OA
ENDBRANCH  10  11
ENDBRANCH   5  10
ENDBRANCH   2   5
BRANCH   4  14
HETATM   14  C           1     -20.751  -7.015  -5.435  0.00  0.00     0.186 C 
BRANCH  14  15
HETATM   15  C           1     -21.900  -6.967  -4.436  0.00  0.00     0.046 C 
BRANCH  15  16
HETATM   16  C           1     -21.419  -6.335  -3.138  0.00  0.00     0.076 C 
BRANCH  16  17
HETATM   17  S           1     -21.145  -7.632  -1.898  0.00  0.00    -0.173 SA
HETATM   18  C           1     -22.398  -7.050  -0.721  0.00  0.00     0.089 C 
ENDBRANCH  16  17
ENDBRANCH  15  16
ENDBRANCH  14  15
BRANCH  14  19
HETATM   19  C           1     -20.242  -8.430  -5.549  0.00  0.00     0.196 C 
HETATM   20  O           1     -19.014  -8.648  -5.643  0.00  0.00    -0.646 OA
HETATM   21  O           1     -21.048  -9.386  -5.550  0.00  0.00    -0.646 OA
ENDBRANCH  14  19
ENDBRANCH   4  14
TORSDOF 9
ENDMDL
MODEL 6
REMARK VINA RESULT:      -5.1      2.299      2.984
REMARK  9 active torsions:
REMARK  status: ('A' for Active; 'I' for Inactive)
REMARK    1  A    between atoms: N_2  and  C_6 
REMARK    2  A    between atoms: S_3  and  C_14 
REMARK    3  A    between atoms: C_6  and  C_7 
REMARK    4  A    between atoms: C_6  and  C_13 
REMARK       I    between atoms: C_7  and  N_19 
REMARK    5  A    between atoms: C_13  and  C_20 
REMARK    6  A    between atoms: C_14  and  C_15 
REMARK    7  A    between atoms: C_15  and  C_16 
REMARK    8  A    between atoms: C_16  and  C_17 
REMARK    9  A    between atoms: C_16  and  N_19 
ROOT
HETATM    1  O           1     -20.928  -6.944  -7.050  0.00  0.00    -0.271 OA
HETATM    2  C           1     -21.323  -5.976  -6.444  0.00  0.00     0.249 C 
HETATM    3  H           1     -22.076  -4.055  -6.619  0.00  0.00     0.163 HD
HETATM    4  N           1     -21.745  -4.866  -7.127  0.00  0.00    -0.345 N 
ENDROOT
BRANCH   2   5
HETATM    5  C           1     -21.352  -5.990  -4.935  0.00  0.00     0.284 C 
BRANCH   5   6
HETATM    6  N           1     -22.760  -6.208  -4.465  0.00  0.00    -0.066 N 
HETATM    7  H           1     -23.089  -7.150  -4.776  0.00  0.00     0.275 HD
HETATM    8  H           1     -22.791  -6.156  -3.422  0.00  0.00     0.275 HD
HETATM    9  H           1     -23.379  -5.471  -4.871  0.00  0.00     0.275 HD
ENDBRANCH   5   6
BRANCH   5  10
HETATM   10  C           1     -20.465  -7.116  -4.421  0.00  0.00     0.155 C 
BRANCH  10  11
HETATM   11  C           1     -21.227  -7.934  -3.408  0.00  0.00     0.175 C 
HETATM   12  O           1     -21.318  -7.539  -2.226  0.00  0.00    -0.648 OA
HETATM   13  O           1     -21.768  -9.007  -3.751  0.00  0.00    -0.648 OA
ENDBRANCH  10  11
ENDBRANCH   5  10
ENDBRANCH   2   5
BRANCH   4  14
HETATM   14  C           1     -21.717  -4.853  -8.577  0.00  0.00     0.186 C 
BRANCH  14  15
HETATM   15  C           1     -22.793  -3.908  -9.095  0.00  0.00     0.046 C 
BRANCH  15  16
HETATM   16  C           1     -23.586  -4.596 -10.198  0.00  0.00     0.076 C 
BRANCH  16  17
HETATM   17  S           1     -24.126  -3.363 -11.415  0.00  0.00    -0.173 SA
HETATM   18  C           1     -22.464  -2.814 -11.894  0.00  0.00     0.089 C 
ENDBRANCH  16  17
ENDBRANCH  15  16
ENDBRANCH  14  15
BRANCH  14  19
HETATM   19  C           1     -20.364  -4.382  -9.049  0.00  0.00     0.196 C 
HETATM   20  O           1     -19.650  -3.678  -8.302  0.00  0.00    -0.646 OA
HETATM   21  O           1     -19.955  -4.698 -10.187  0.00  0.00    -0.646 OA
ENDBRANCH  14  19
ENDBRANCH   4  14
TORSDOF 9
ENDMDL
MODEL 7
REMARK VINA RESULT:      -5.1      4.977      8.545
REMARK  9 active torsions:
REMARK  status: ('A' for Active; 'I' for Inactive)
REMARK    1  A    between atoms: N_2  and  C_6 
REMARK    2  A    between atoms: S_3  and  C_14 
REMARK    3  A    between atoms: C_6  and  C_7 
REMARK    4  A    between atoms: C_6  and  C_13 
REMARK       I    between atoms: C_7  and  N_19 
REMARK    5  A    between atoms: C_13  and  C_20 
REMARK    6  A    between atoms: C_14  and  C_15 
REMARK    7  A    between atoms: C_15  and  C_16 
REMARK    8  A    between atoms: C_16  and  C_17 
REMARK    9  A    between atoms: C_16  and  N_19 
ROOT
HETATM    1  O           1     -22.362  -7.076  -5.016  0.00  0.00    -0.271 OA
HETATM    2  C           1     -21.210  -6.864  -4.719  0.00  0.00     0.249 C 
HETATM    3  H           1     -19.789  -7.011  -3.221  0.00  0.00     0.163 HD
HETATM    4  N           1     -20.754  -7.189  -3.470  0.00  0.00    -0.345 N 
ENDROOT
BRANCH   2   5
HETATM    5  C           1     -20.275  -6.239  -5.726  0.00  0.00     0.284 C 
BRANCH   5   6
HETATM    6  N           1     -20.679  -6.657  -7.109  0.00  0.00    -0.066 N 
HETATM    7  H           1     -21.692  -6.916  -7.113  0.00  0.00     0.275 HD
HETATM    8  H           1     -20.520  -5.866  -7.772  0.00  0.00     0.275 HD
HETATM    9  H           1     -20.108  -7.481  -7.403  0.00  0.00     0.275 HD
ENDBRANCH   5   6
BRANCH   5  10
HETATM   10  C           1     -20.345  -4.722  -5.612  0.00  0.00     0.155 C 
BRANCH  10  11
HETATM   11  C           1     -20.886  -4.146  -6.898  0.00  0.00     0.175 C 
HETATM   12  O           1     -20.100  -3.752  -7.786  0.00  0.00    -0.648 OA
HETATM   13  O           1     -22.120  -4.064  -7.074  0.00  0.00    -0.648 OA
ENDBRANCH  10  11
ENDBRANCH   5  10
ENDBRANCH   2   5
BRANCH   4  14
HETATM   14  C           1     -21.653  -7.789  -2.503  0.00  0.00     0.186 C 
BRANCH  14  15
HETATM   15  C           1     -20.891  -8.808  -1.667  0.00  0.00     0.046 C 
BRANCH  15  16
HETATM   16  C           1     -21.553 -10.172  -1.801  0.00  0.00     0.076 C 
BRANCH  16  17
HETATM   17  S           1     -22.300 -10.642  -0.214  0.00  0.00    -0.173 SA
HETATM   18  C           1     -20.939 -10.048   0.829  0.00  0.00     0.089 C 
ENDBRANCH  16  17
ENDBRANCH  15  16
ENDBRANCH  14  15
BRANCH  14  19
HETATM   19  C           1     -22.211  -6.715  -1.602  0.00  0.00     0.196 C 
HETATM   20  O           1     -22.810  -7.030  -0.550  0.00  0.00    -0.646 OA
HETATM   21  O           1     -22.074  -5.510  -1.906  0.00  0.00    -0.646 OA
ENDBRANCH  14  19
ENDBRANCH   4  14
TORSDOF 9
ENDMDL
MODEL 8
REMARK VINA RESULT:      -5.0      3.969      7.452
REMARK  9 active torsions:
REMARK  status: ('A' for Active; 'I' for Inactive)
REMARK    1  A    between atoms: N_2  and  C_6 
REMARK    2  A    between atoms: S_3  and  C_14 
REMARK    3  A    between atoms: C_6  and  C_7 
REMARK    4  A    between atoms: C_6  and  C_13 
REMARK       I    between atoms: C_7  and  N_19 
REMARK    5  A    between atoms: C_13  and  C_20 
REMARK    6  A    between atoms: C_14  and  C_15 
REMARK    7  A    between atoms: C_15  and  C_16 
REMARK    8  A    between atoms: C_16  and  C_17 
REMARK    9  A    between atoms: C_16  and  N_19 
ROOT
HETATM    1  O           1     -22.607  -5.573  -5.704  0.00  0.00    -0.271 OA
HETATM    2  C           1     -21.415  -5.772  -5.696  0.00  0.00     0.249 C 
HETATM    3  H           1     -19.883  -6.867  -4.836  0.00  0.00     0.163 HD
HETATM    4  N           1     -20.881  -6.701  -4.842  0.00  0.00    -0.345 N 
ENDROOT
BRANCH   2   5
HETATM    5  C           1     -20.515  -4.997  -6.627  0.00  0.00     0.284 C 
BRANCH   5   6
HETATM    6  N           1     -19.946  -5.926  -7.659  0.00  0.00    -0.066 N 
HETATM    7  H           1     -20.650  -6.664  -7.889  0.00  0.00     0.275 HD
HETATM    8  H           1     -19.713  -5.386  -8.522  0.00  0.00     0.275 HD
HETATM    9  H           1     -19.081  -6.375  -7.283  0.00  0.00     0.275 HD
ENDBRANCH   5   6
BRANCH   5  10
HETATM   10  C           1     -21.318  -3.902  -7.316  0.00  0.00     0.155 C 
BRANCH  10  11
HETATM   11  C           1     -21.456  -4.228  -8.783  0.00  0.00     0.175 C 
HETATM   12  O           1     -20.572  -3.867  -9.590  0.00  0.00    -0.648 OA
HETATM   13  O           1     -22.455  -4.858  -9.191  0.00  0.00    -0.648 OA
ENDBRANCH  10  11
ENDBRANCH   5  10
ENDBRANCH   2   5
BRANCH   4  14
HETATM   14  C           1     -21.747  -7.445  -3.948  0.00  0.00     0.186 C 
BRANCH  14  15
HETATM   15  C           1     -21.332  -8.910  -3.944  0.00  0.00     0.046 C 
BRANCH  15  16
HETATM   16  C           1     -20.067  -9.082  -4.774  0.00  0.00     0.076 C 
BRANCH  16  17
HETATM   17  S           1     -19.070 -10.433  -4.086  0.00  0.00    -0.173 SA
HETATM   18  C           1     -18.123  -9.410  -2.924  0.00  0.00     0.089 C 
ENDBRANCH  16  17
ENDBRANCH  15  16
ENDBRANCH  14  15
BRANCH  14  19
HETATM   19  C           1     -21.629  -6.884  -2.552  0.00  0.00     0.196 C 
HETATM   20  O           1     -22.306  -5.887  -2.219  0.00  0.00    -0.646 OA
HETATM   21  O           1     -20.855  -7.418  -1.728  0.00  0.00    -0.646 OA
ENDBRANCH  14  19
ENDBRANCH   4  14
TORSDOF 9
ENDMDL
MODEL 9
REMARK VINA RESULT:      -4.9      2.774      3.910
REMARK  9 active torsions:
REMARK  status: ('A' for Active; 'I' for Inactive)
REMARK    1  A    between atoms: N_2  and  C_6 
REMARK    2  A    between atoms: S_3  and  C_14 
REMARK    3  A    between atoms: C_6  and  C_7 
REMARK    4  A    between atoms: C_6  and  C_13 
REMARK       I    between atoms: C_7  and  N_19 
REMARK    5  A    between atoms: C_13  and  C_20 
REMARK    6  A    between atoms: C_14  and  C_15 
REMARK    7  A    between atoms: C_15  and  C_16 
REMARK    8  A    between atoms: C_16  and  C_17 
REMARK    9  A    between atoms: C_16  and  N_19 
ROOT
HETATM    1  O           1     -21.182  -7.690  -6.441  0.00  0.00    -0.271 OA
HETATM    2  C           1     -21.530  -6.914  -5.583  0.00  0.00     0.249 C 
HETATM    3  H           1     -21.919  -4.928  -5.148  0.00  0.00     0.163 HD
HETATM    4  N           1     -21.628  -5.578  -5.867  0.00  0.00    -0.345 N 
ENDROOT
BRANCH   2   5
HETATM    5  C           1     -21.857  -7.418  -4.198  0.00  0.00     0.284 C 
BRANCH   5   6
HETATM    6  N           1     -21.108  -8.692  -3.942  0.00  0.00    -0.066 N 
HETATM    7  H           1     -20.442  -8.551  -3.148  0.00  0.00     0.275 HD
HETATM    8  H           1     -21.784  -9.450  -3.697  0.00  0.00     0.275 HD
HETATM    9  H           1     -20.576  -8.961  -4.800  0.00  0.00     0.275 HD
ENDBRANCH   5   6
BRANCH   5  10
HETATM   10  C           1     -21.449  -6.373  -3.168  0.00  0.00     0.155 C 
BRANCH  10  11
HETATM   11  C           1     -21.673  -6.921  -1.780  0.00  0.00     0.175 C 
HETATM   12  O           1     -20.850  -7.720  -1.284  0.00  0.00    -0.648 OA
HETATM   13  O           1     -22.681  -6.577  -1.127  0.00  0.00    -0.648 OA
ENDBRANCH  10  11
ENDBRANCH   5  10
ENDBRANCH   2   5
BRANCH   4  14
HETATM   14  C           1     -21.314  -5.094  -7.197  0.00  0.00     0.186 C 
BRANCH  14  15
HETATM   15  C           1     -22.303  -4.003  -7.586  0.00  0.00     0.046 C 
BRANCH  15  16
HETATM   16  C           1     -23.108  -4.454  -8.797  0.00  0.00     0.076 C 
BRANCH  16  17
HETATM   17  S           1     -22.464  -3.646 -10.289  0.00  0.00    -0.173 SA
HETATM   18  C           1     -24.080  -3.270 -11.025  0.00  0.00     0.089 C 
ENDBRANCH  16  17
ENDBRANCH  15  16
ENDBRANCH  14  15
BRANCH  14  19
HETATM   19  C           1     -19.914  -4.533  -7.211  0.00  0.00     0.196 C 
HETATM   20  O           1     -19.447  -4.041  -8.261  0.00  0.00    -0.646 OA
HETATM   21  O           1     -19.220  -4.560  -6.172  0.00  0.00    -0.646 OA
ENDBRANCH  14  19
ENDBRANCH   4  14
TORSDOF 9
ENDMDL
