MODEL 1
REMARK VINA RESULT:      -7.2      0.000      0.000
REMARK  8 active torsions:
REMARK  status: ('A' for Active; 'I' for Inactive)
REMARK    1  A    between atoms: C_1  and  C_3 
REMARK    2  A    between atoms: C_3  and  C_4 
REMARK    3  A    between atoms: C_4  and  C_16 
REMARK    4  A    between atoms: C_4  and  N_10 
REMARK    5  A    between atoms: C_12  and  C_21 
REMARK    6  A    between atoms: C_12  and  C_13 
REMARK    7  A    between atoms: C_13  and  C_14 
REMARK    8  A    between atoms: C_13  and  N_18 
REMARK       I    between atoms: C_16  and  N_18 
REMARK       I    between atoms: N_20  and  C_21 
ROOT
HETATM    1  O           1     -36.449  -1.356 -12.575  0.00  0.00    -0.271 OA
HETATM    2  H           1     -33.825  -0.951 -14.245  0.00  0.00     0.163 HD
HETATM    3  C           1     -35.271  -1.408 -12.837  0.00  0.00     0.249 C 
HETATM    4  N           1     -34.812  -0.908 -14.025  0.00  0.00    -0.344 N 
ENDROOT
BRANCH   4   5
HETATM    5  C           1     -35.740  -0.316 -14.970  0.00  0.00     0.194 C 
BRANCH   5   6
HETATM    6  C           1     -35.395   1.154 -15.166  0.00  0.00     0.138 C 
BRANCH   6   7
HETATM    7  C           1     -36.485   1.824 -15.967  0.00  0.00     0.217 C 
HETATM    8  O           1     -36.211   2.722 -16.727  0.00  0.00    -0.274 OA
HETATM    9  N           1     -37.785   1.414 -15.831  0.00  0.00    -0.370 N 
HETATM   10  H           1     -38.014   0.662 -15.193  0.00  0.00     0.159 HD
HETATM   11  H           1     -38.515   1.863 -16.367  0.00  0.00     0.159 HD
ENDBRANCH   6   7
ENDBRANCH   5   6
BRANCH   5  12
HETATM   12  C           1     -35.639  -1.038 -16.292  0.00  0.00     0.197 C 
HETATM   13  O           1     -36.595  -1.006 -17.096  0.00  0.00    -0.646 OA
HETATM   14  O           1     -34.599  -1.667 -16.583  0.00  0.00    -0.646 OA
ENDBRANCH   5  12
ENDBRANCH   4   5
BRANCH   3  15
HETATM   15  C           1     -34.307  -2.023 -11.854  0.00  0.00     0.278 C 
BRANCH  15  16
HETATM   16  C           1     -34.285  -3.535 -12.040  0.00  0.00     0.021 C 
HETATM   17  C           1     -32.848  -4.035 -11.971  0.00  0.00     0.012 C 
BRANCH  16  18
HETATM   18  C           1     -35.106  -4.193 -10.940  0.00  0.00     0.002 C 
HETATM   19  C           1     -34.434  -5.491 -10.512  0.00  0.00     0.005 C 
ENDBRANCH  16  18
ENDBRANCH  15  16
BRANCH  15  20
HETATM   20  N           1     -34.744  -1.699 -10.456  0.00  0.00    -0.066 N 
HETATM   21  H           1     -34.490  -2.488  -9.820  0.00  0.00     0.275 HD
HETATM   22  H           1     -35.780  -1.557 -10.439  0.00  0.00     0.275 HD
HETATM   23  H           1     -34.268  -0.826 -10.135  0.00  0.00     0.275 HD
ENDBRANCH  15  20
ENDBRANCH   3  15
TORSDOF 8
ENDMDL
MODEL 2
REMARK VINA RESULT:      -6.2     12.415     14.358
REMARK  8 active torsions:
REMARK  status: ('A' for Active; 'I' for Inactive)
REMARK    1  A    between atoms: C_1  and  C_3 
REMARK    2  A    between atoms: C_3  and  C_4 
REMARK    3  A    between atoms: C_4  and  C_16 
REMARK    4  A    between atoms: C_4  and  N_10 
REMARK    5  A    between atoms: C_12  and  C_21 
REMARK    6  A    between atoms: C_12  and  C_13 
REMARK    7  A    between atoms: C_13  and  C_14 
REMARK    8  A    between atoms: C_13  and  N_18 
REMARK       I    between atoms: C_16  and  N_18 
REMARK       I    between atoms: N_20  and  C_21 
ROOT
HETATM    1  O           1     -20.740  -5.399  -8.965  0.00  0.00    -0.271 OA
HETATM    2  H           1     -23.310  -3.641  -9.341  0.00  0.00     0.163 HD
HETATM    3  C           1     -21.678  -4.707  -8.647  0.00  0.00     0.249 C 
HETATM    4  N           1     -22.524  -4.221  -9.606  0.00  0.00    -0.344 N 
ENDROOT
BRANCH   4   5
HETATM    5  C           1     -22.296  -4.536 -11.003  0.00  0.00     0.194 C 
BRANCH   5   6
HETATM    6  C           1     -23.633  -4.744 -11.701  0.00  0.00     0.138 C 
BRANCH   6   7
HETATM    7  C           1     -24.468  -3.494 -11.572  0.00  0.00     0.217 C 
HETATM    8  O           1     -24.987  -3.220 -10.516  0.00  0.00    -0.274 OA
HETATM    9  N           1     -24.639  -2.670 -12.653  0.00  0.00    -0.370 N 
HETATM   10  H           1     -24.204  -2.899 -13.537  0.00  0.00     0.159 HD
HETATM   11  H           1     -25.199  -1.831 -12.566  0.00  0.00     0.159 HD
ENDBRANCH   6   7
ENDBRANCH   5   6
BRANCH   5  12
HETATM   12  C           1     -21.556  -3.397 -11.661  0.00  0.00     0.197 C 
HETATM   13  O           1     -21.865  -3.036 -12.816  0.00  0.00    -0.646 OA
HETATM   14  O           1     -20.635  -2.813 -11.049  0.00  0.00    -0.646 OA
ENDBRANCH   5  12
ENDBRANCH   4   5
BRANCH   3  15
HETATM   15  C           1     -21.915  -4.379  -7.194  0.00  0.00     0.278 C 
BRANCH  15  16
HETATM   16  C           1     -21.186  -5.389  -6.319  0.00  0.00     0.021 C 
HETATM   17  C           1     -20.139  -4.671  -5.477  0.00  0.00     0.012 C 
BRANCH  16  18
HETATM   18  C           1     -22.186  -6.082  -5.403  0.00  0.00     0.002 C 
HETATM   19  C           1     -21.556  -6.299  -4.033  0.00  0.00     0.005 C 
ENDBRANCH  16  18
ENDBRANCH  15  16
BRANCH  15  20
HETATM   20  N           1     -23.385  -4.436  -6.903  0.00  0.00    -0.066 N 
HETATM   21  H           1     -23.890  -4.823  -7.733  0.00  0.00     0.275 HD
HETATM   22  H           1     -23.738  -3.474  -6.698  0.00  0.00     0.275 HD
HETATM   23  H           1     -23.554  -5.052  -6.076  0.00  0.00     0.275 HD
ENDBRANCH  15  20
ENDBRANCH   3  15
TORSDOF 8
ENDMDL
MODEL 3
REMARK VINA RESULT:      -6.1     15.253     17.427
REMARK  8 active torsions:
REMARK  status: ('A' for Active; 'I' for Inactive)
REMARK    1  A    between atoms: C_1  and  C_3 
REMARK    2  A    between atoms: C_3  and  C_4 
REMARK    3  A    between atoms: C_4  and  C_16 
REMARK    4  A    between atoms: C_4  and  N_10 
REMARK    5  A    between atoms: C_12  and  C_21 
REMARK    6  A    between atoms: C_12  and  C_13 
REMARK    7  A    between atoms: C_13  and  C_14 
REMARK    8  A    between atoms: C_13  and  N_18 
REMARK       I    between atoms: C_16  and  N_18 
REMARK       I    between atoms: N_20  and  C_21 
ROOT
HETATM    1  O           1     -22.109  -7.262  -4.788  0.00  0.00    -0.271 OA
HETATM    2  H           1     -20.369  -4.676  -4.439  0.00  0.00     0.163 HD
HETATM    3  C           1     -21.471  -6.413  -4.213  0.00  0.00     0.249 C 
HETATM    4  N           1     -20.903  -5.388  -4.921  0.00  0.00    -0.344 N 
ENDROOT
BRANCH   4   5
HETATM    5  C           1     -21.068  -5.321  -6.360  0.00  0.00     0.194 C 
BRANCH   5   6
HETATM    6  C           1     -21.449  -3.902  -6.761  0.00  0.00     0.138 C 
BRANCH   6   7
HETATM    7  C           1     -22.404  -3.949  -7.929  0.00  0.00     0.217 C 
HETATM    8  O           1     -21.995  -3.771  -9.052  0.00  0.00    -0.274 OA
HETATM    9  N           1     -23.735  -4.193  -7.716  0.00  0.00    -0.370 N 
HETATM   10  H           1     -24.078  -4.343  -6.776  0.00  0.00     0.159 HD
HETATM   11  H           1     -24.375  -4.225  -8.499  0.00  0.00     0.159 HD
ENDBRANCH   6   7
ENDBRANCH   5   6
BRANCH   5  12
HETATM   12  C           1     -19.772  -5.704  -7.032  0.00  0.00     0.197 C 
HETATM   13  O           1     -19.076  -4.829  -7.590  0.00  0.00    -0.646 OA
HETATM   14  O           1     -19.395  -6.895  -7.029  0.00  0.00    -0.646 OA
ENDBRANCH   5  12
ENDBRANCH   4   5
BRANCH   3  15
HETATM   15  C           1     -21.299  -6.483  -2.716  0.00  0.00     0.278 C 
BRANCH  15  16
HETATM   16  C           1     -21.398  -7.932  -2.260  0.00  0.00     0.021 C 
HETATM   17  C           1     -19.998  -8.502  -2.071  0.00  0.00     0.012 C 
BRANCH  16  18
HETATM   18  C           1     -22.154  -7.998  -0.940  0.00  0.00     0.002 C 
HETATM   19  C           1     -21.240  -8.554   0.144  0.00  0.00     0.005 C 
ENDBRANCH  16  18
ENDBRANCH  15  16
BRANCH  15  20
HETATM   20  N           1     -22.376  -5.676  -2.053  0.00  0.00    -0.066 N 
HETATM   21  H           1     -23.213  -6.281  -1.888  0.00  0.00     0.275 HD
HETATM   22  H           1     -22.641  -4.874  -2.669  0.00  0.00     0.275 HD
HETATM   23  H           1     -22.025  -5.311  -1.139  0.00  0.00     0.275 HD
ENDBRANCH  15  20
ENDBRANCH   3  15
TORSDOF 8
ENDMDL
MODEL 4
REMARK VINA RESULT:      -6.0     13.407     16.162
REMARK  8 active torsions:
REMARK  status: ('A' for Active; 'I' for Inactive)
REMARK    1  A    between atoms: C_1  and  C_3 
REMARK    2  A    between atoms: C_3  and  C_4 
REMARK    3  A    between atoms: C_4  and  C_16 
REMARK    4  A    between atoms: C_4  and  N_10 
REMARK    5  A    between atoms: C_12  and  C_21 
REMARK    6  A    between atoms: C_12  and  C_13 
REMARK    7  A    between atoms: C_13  and  C_14 
REMARK    8  A    between atoms: C_13  and  N_18 
REMARK       I    between atoms: C_16  and  N_18 
REMARK       I    between atoms: N_20  and  C_21 
ROOT
HETATM    1  O           1     -21.248  -3.231  -8.632  0.00  0.00    -0.271 OA
HETATM    2  H           1     -22.541  -5.601  -7.035  0.00  0.00     0.163 HD
HETATM    3  C           1     -22.049  -4.096  -8.367  0.00  0.00     0.249 C 
HETATM    4  N           1     -21.870  -4.877  -7.258  0.00  0.00    -0.344 N 
ENDROOT
BRANCH   4   5
HETATM    5  C           1     -20.719  -4.668  -6.401  0.00  0.00     0.194 C 
BRANCH   5   6
HETATM    6  C           1     -20.969  -5.319  -5.047  0.00  0.00     0.138 C 
BRANCH   6   7
HETATM    7  C           1     -22.016  -6.397  -5.193  0.00  0.00     0.217 C 
HETATM    8  O           1     -23.188  -6.116  -5.115  0.00  0.00    -0.274 OA
HETATM    9  N           1     -21.635  -7.694  -5.412  0.00  0.00    -0.370 N 
HETATM   10  H           1     -20.653  -7.930  -5.477  0.00  0.00     0.159 HD
HETATM   11  H           1     -22.337  -8.417  -5.510  0.00  0.00     0.159 HD
ENDBRANCH   6   7
ENDBRANCH   5   6
BRANCH   5  12
HETATM   12  C           1     -19.499  -5.286  -7.039  0.00  0.00     0.197 C 
HETATM   13  O           1     -18.528  -4.567  -7.357  0.00  0.00    -0.646 OA
HETATM   14  O           1     -19.459  -6.518  -7.249  0.00  0.00    -0.646 OA
ENDBRANCH   5  12
ENDBRANCH   4   5
BRANCH   3  15
HETATM   15  C           1     -23.246  -4.313  -9.258  0.00  0.00     0.278 C 
BRANCH  15  16
HETATM   16  C           1     -23.025  -3.606 -10.589  0.00  0.00     0.021 C 
HETATM   17  C           1     -22.222  -4.508 -11.517  0.00  0.00     0.012 C 
BRANCH  16  18
HETATM   18  C           1     -24.372  -3.292 -11.226  0.00  0.00     0.002 C 
HETATM   19  C           1     -24.166  -2.891 -12.681  0.00  0.00     0.005 C 
ENDBRANCH  16  18
ENDBRANCH  15  16
BRANCH  15  20
HETATM   20  N           1     -24.470  -3.756  -8.594  0.00  0.00    -0.066 N 
HETATM   21  H           1     -24.507  -2.723  -8.743  0.00  0.00     0.275 HD
HETATM   22  H           1     -24.435  -3.961  -7.570  0.00  0.00     0.275 HD
HETATM   23  H           1     -25.322  -4.198  -9.007  0.00  0.00     0.275 HD
ENDBRANCH  15  20
ENDBRANCH   3  15
TORSDOF 8
ENDMDL
MODEL 5
REMARK VINA RESULT:      -5.7     15.491     17.959
REMARK  8 active torsions:
REMARK  status: ('A' for Active; 'I' for Inactive)
REMARK    1  A    between atoms: C_1  and  C_3 
REMARK    2  A    between atoms: C_3  and  C_4 
REMARK    3  A    between atoms: C_4  and  C_16 
REMARK    4  A    between atoms: C_4  and  N_10 
REMARK    5  A    between atoms: C_12  and  C_21 
REMARK    6  A    between atoms: C_12  and  C_13 
REMARK    7  A    between atoms: C_13  and  C_14 
REMARK    8  A    between atoms: C_13  and  N_18 
REMARK       I    between atoms: C_16  and  N_18 
REMARK       I    between atoms: N_20  and  C_21 
ROOT
HETATM    1  O           1     -20.419  -4.709  -5.430  0.00  0.00    -0.271 OA
HETATM    2  H           1     -22.277  -7.017  -6.459  0.00  0.00     0.163 HD
HETATM    3  C           1     -21.263  -5.249  -6.106  0.00  0.00     0.249 C 
HETATM    4  N           1     -21.570  -6.566  -5.894  0.00  0.00    -0.344 N 
ENDROOT
BRANCH   4   5
HETATM    5  C           1     -20.881  -7.314  -4.861  0.00  0.00     0.194 C 
BRANCH   5   6
HETATM    6  C           1     -21.875  -7.721  -3.782  0.00  0.00     0.138 C 
BRANCH   6   7
HETATM    7  C           1     -21.559  -6.985  -2.502  0.00  0.00     0.217 C 
HETATM    8  O           1     -20.672  -7.378  -1.783  0.00  0.00    -0.274 OA
HETATM    9  N           1     -22.278  -5.872  -2.158  0.00  0.00    -0.370 N 
HETATM   10  H           1     -23.022  -5.543  -2.761  0.00  0.00     0.159 HD
HETATM   11  H           1     -22.067  -5.379  -1.300  0.00  0.00     0.159 HD
ENDBRANCH   6   7
ENDBRANCH   5   6
BRANCH   5  12
HETATM   12  C           1     -20.259  -8.549  -5.465  0.00  0.00     0.197 C 
HETATM   13  O           1     -19.036  -8.572  -5.720  0.00  0.00    -0.646 OA
HETATM   14  O           1     -20.967  -9.550  -5.710  0.00  0.00    -0.646 OA
ENDBRANCH   5  12
ENDBRANCH   4   5
BRANCH   3  15
HETATM   15  C           1     -21.980  -4.470  -7.181  0.00  0.00     0.278 C 
BRANCH  15  16
HETATM   16  C           1     -21.681  -5.087  -8.541  0.00  0.00     0.021 C 
HETATM   17  C           1     -22.751  -4.662  -9.538  0.00  0.00     0.012 C 
BRANCH  16  18
HETATM   18  C           1     -20.318  -4.611  -9.025  0.00  0.00     0.002 C 
HETATM   19  C           1     -20.385  -4.308 -10.516  0.00  0.00     0.005 C 
ENDBRANCH  16  18
ENDBRANCH  15  16
BRANCH  15  20
HETATM   20  N           1     -21.508  -3.046  -7.164  0.00  0.00    -0.066 N 
HETATM   21  H           1     -21.915  -2.535  -7.979  0.00  0.00     0.275 HD
HETATM   22  H           1     -20.464  -3.024  -7.224  0.00  0.00     0.275 HD
HETATM   23  H           1     -21.815  -2.587  -6.277  0.00  0.00     0.275 HD
ENDBRANCH  15  20
ENDBRANCH   3  15
TORSDOF 8
ENDMDL
MODEL 6
REMARK VINA RESULT:      -5.7     13.598     15.690
REMARK  8 active torsions:
REMARK  status: ('A' for Active; 'I' for Inactive)
REMARK    1  A    between atoms: C_1  and  C_3 
REMARK    2  A    between atoms: C_3  and  C_4 
REMARK    3  A    between atoms: C_4  and  C_16 
REMARK    4  A    between atoms: C_4  and  N_10 
REMARK    5  A    between atoms: C_12  and  C_21 
REMARK    6  A    between atoms: C_12  and  C_13 
REMARK    7  A    between atoms: C_13  and  C_14 
REMARK    8  A    between atoms: C_13  and  N_18 
REMARK       I    between atoms: C_16  and  N_18 
REMARK       I    between atoms: N_20  and  C_21 
ROOT
HETATM    1  O           1     -21.251  -6.912  -7.330  0.00  0.00    -0.271 OA
HETATM    2  H           1     -21.333  -3.816  -6.828  0.00  0.00     0.163 HD
HETATM    3  C           1     -21.107  -5.871  -6.733  0.00  0.00     0.249 C 
HETATM    4  N           1     -21.453  -4.688  -7.328  0.00  0.00    -0.344 N 
ENDROOT
BRANCH   4   5
HETATM    5  C           1     -21.993  -4.683  -8.674  0.00  0.00     0.194 C 
BRANCH   5   6
HETATM    6  C           1     -23.115  -3.658  -8.767  0.00  0.00     0.138 C 
BRANCH   6   7
HETATM    7  C           1     -24.237  -4.215  -9.609  0.00  0.00     0.217 C 
HETATM    8  O           1     -24.077  -5.240 -10.227  0.00  0.00    -0.274 OA
HETATM    9  N           1     -25.436  -3.556  -9.673  0.00  0.00    -0.370 N 
HETATM   10  H           1     -25.570  -2.697  -9.156  0.00  0.00     0.159 HD
HETATM   11  H           1     -26.188  -3.929 -10.238  0.00  0.00     0.159 HD
ENDBRANCH   6   7
ENDBRANCH   5   6
BRANCH   5  12
HETATM   12  C           1     -20.900  -4.325  -9.651  0.00  0.00     0.197 C 
HETATM   13  O           1     -21.056  -4.547 -10.871  0.00  0.00    -0.646 OA
HETATM   14  O           1     -19.841  -3.804  -9.242  0.00  0.00    -0.646 OA
ENDBRANCH   5  12
ENDBRANCH   4   5
BRANCH   3  15
HETATM   15  C           1     -20.546  -5.876  -5.333  0.00  0.00     0.278 C 
BRANCH  15  16
HETATM   16  C           1     -21.622  -6.329  -4.355  0.00  0.00     0.021 C 
HETATM   17  C           1     -21.719  -7.849  -4.374  0.00  0.00     0.012 C 
BRANCH  16  18
HETATM   18  C           1     -21.260  -5.860  -2.952  0.00  0.00     0.002 C 
HETATM   19  C           1     -22.307  -6.360  -1.964  0.00  0.00     0.005 C 
ENDBRANCH  16  18
ENDBRANCH  15  16
BRANCH  15  20
HETATM   20  N           1     -20.093  -4.493  -4.972  0.00  0.00    -0.066 N 
HETATM   21  H           1     -19.488  -4.114  -5.735  0.00  0.00     0.275 HD
HETATM   22  H           1     -19.549  -4.526  -4.079  0.00  0.00     0.275 HD
HETATM   23  H           1     -20.926  -3.874  -4.848  0.00  0.00     0.275 HD
ENDBRANCH  15  20
ENDBRANCH   3  15
TORSDOF 8
ENDMDL
MODEL 7
REMARK VINA RESULT:      -5.6     15.963     18.452
REMARK  8 active torsions:
REMARK  status: ('A' for Active; 'I' for Inactive)
REMARK    1  A    between atoms: C_1  and  C_3 
REMARK    2  A    between atoms: C_3  and  C_4 
REMARK    3  A    between atoms: C_4  and  C_16 
REMARK    4  A    between atoms: C_4  and  N_10 
REMARK    5  A    between atoms: C_12  and  C_21 
REMARK    6  A    between atoms: C_12  and  C_13 
REMARK    7  A    between atoms: C_13  and  C_14 
REMARK    8  A    between atoms: C_13  and  N_18 
REMARK       I    between atoms: C_16  and  N_18 
REMARK       I    between atoms: N_20  and  C_21 
ROOT
HETATM    1  O           1     -21.364  -6.963  -6.871  0.00  0.00    -0.271 OA
HETATM    2  H           1     -20.544  -5.177  -4.426  0.00  0.00     0.163 HD
HETATM    3  C           1     -20.971  -5.983  -6.283  0.00  0.00     0.249 C 
HETATM    4  N           1     -20.874  -5.998  -4.918  0.00  0.00    -0.344 N 
ENDROOT
BRANCH   4   5
HETATM    5  C           1     -21.241  -7.189  -4.177  0.00  0.00     0.194 C 
BRANCH   5   6
HETATM    6  C           1     -20.067  -8.159  -4.164  0.00  0.00     0.138 C 
BRANCH   6   7
HETATM    7  C           1     -20.551  -9.539  -4.541  0.00  0.00     0.217 C 
HETATM    8  O           1     -20.620 -10.405  -3.701  0.00  0.00    -0.274 OA
HETATM    9  N           1     -20.911  -9.808  -5.834  0.00  0.00    -0.370 N 
HETATM   10  H           1     -20.853  -9.083  -6.537  0.00  0.00     0.159 HD
HETATM   11  H           1     -21.235 -10.733  -6.087  0.00  0.00     0.159 HD
ENDBRANCH   6   7
ENDBRANCH   5   6
BRANCH   5  12
HETATM   12  C           1     -21.597  -6.809  -2.761  0.00  0.00     0.197 C 
HETATM   13  O           1     -21.034  -7.379  -1.801  0.00  0.00    -0.646 OA
HETATM   14  O           1     -22.453  -5.925  -2.547  0.00  0.00    -0.646 OA
ENDBRANCH   5  12
ENDBRANCH   4   5
BRANCH   3  15
HETATM   15  C           1     -20.589  -4.744  -7.054  0.00  0.00     0.278 C 
BRANCH  15  16
HETATM   16  C           1     -21.201  -4.803  -8.448  0.00  0.00     0.021 C 
HETATM   17  C           1     -22.317  -3.772  -8.557  0.00  0.00     0.012 C 
BRANCH  16  18
HETATM   18  C           1     -20.128  -4.502  -9.485  0.00  0.00     0.002 C 
HETATM   19  C           1     -20.787  -4.200 -10.825  0.00  0.00     0.005 C 
ENDBRANCH  16  18
ENDBRANCH  15  16
BRANCH  15  20
HETATM   20  N           1     -19.096  -4.668  -7.168  0.00  0.00    -0.066 N 
HETATM   21  H           1     -18.830  -3.810  -7.702  0.00  0.00     0.275 HD
HETATM   22  H           1     -18.741  -5.514  -7.668  0.00  0.00     0.275 HD
HETATM   23  H           1     -18.675  -4.627  -6.212  0.00  0.00     0.275 HD
ENDBRANCH  15  20
ENDBRANCH   3  15
TORSDOF 8
ENDMDL
MODEL 8
REMARK VINA RESULT:      -5.5     17.390     19.470
REMARK  8 active torsions:
REMARK  status: ('A' for Active; 'I' for Inactive)
REMARK    1  A    between atoms: C_1  and  C_3 
REMARK    2  A    between atoms: C_3  and  C_4 
REMARK    3  A    between atoms: C_4  and  C_16 
REMARK    4  A    between atoms: C_4  and  N_10 
REMARK    5  A    between atoms: C_12  and  C_21 
REMARK    6  A    between atoms: C_12  and  C_13 
REMARK    7  A    between atoms: C_13  and  C_14 
REMARK    8  A    between atoms: C_13  and  N_18 
REMARK       I    between atoms: C_16  and  N_18 
REMARK       I    between atoms: N_20  and  C_21 
ROOT
HETATM    1  O           1     -21.151  -9.949  -2.198  0.00  0.00    -0.271 OA
HETATM    2  H           1     -20.766  -7.025  -3.265  0.00  0.00     0.163 HD
HETATM    3  C           1     -21.070  -8.745  -2.156  0.00  0.00     0.249 C 
HETATM    4  N           1     -20.833  -8.034  -3.301  0.00  0.00    -0.344 N 
ENDROOT
BRANCH   4   5
HETATM    5  C           1     -20.680  -8.727  -4.565  0.00  0.00     0.194 C 
BRANCH   5   6
HETATM    6  C           1     -21.423  -7.965  -5.655  0.00  0.00     0.138 C 
BRANCH   6   7
HETATM    7  C           1     -21.487  -6.501  -5.291  0.00  0.00     0.217 C 
HETATM    8  O           1     -22.392  -6.088  -4.606  0.00  0.00    -0.274 OA
HETATM    9  N           1     -20.519  -5.642  -5.737  0.00  0.00    -0.370 N 
HETATM   10  H           1     -19.760  -5.987  -6.311  0.00  0.00     0.159 HD
HETATM   11  H           1     -20.562  -4.661  -5.493  0.00  0.00     0.159 HD
ENDBRANCH   6   7
ENDBRANCH   5   6
BRANCH   5  12
HETATM   12  C           1     -19.215  -8.809  -4.918  0.00  0.00     0.197 C 
HETATM   13  O           1     -18.834  -8.529  -6.075  0.00  0.00    -0.646 OA
HETATM   14  O           1     -18.382  -9.156  -4.053  0.00  0.00    -0.646 OA
ENDBRANCH   5  12
ENDBRANCH   4   5
BRANCH   3  15
HETATM   15  C           1     -21.230  -8.025  -0.840  0.00  0.00     0.278 C 
BRANCH  15  16
HETATM   16  C           1     -21.705  -9.006   0.223  0.00  0.00     0.021 C 
HETATM   17  C           1     -21.058  -8.662   1.559  0.00  0.00     0.012 C 
BRANCH  16  18
HETATM   18  C           1     -23.219  -8.917   0.355  0.00  0.00     0.002 C 
HETATM   19  C           1     -23.840 -10.265   0.010  0.00  0.00     0.005 C 
ENDBRANCH  16  18
ENDBRANCH  15  16
BRANCH  15  20
HETATM   20  N           1     -22.240  -6.926  -0.992  0.00  0.00    -0.066 N 
HETATM   21  H           1     -22.707  -6.753  -0.073  0.00  0.00     0.275 HD
HETATM   22  H           1     -22.955  -7.206  -1.701  0.00  0.00     0.275 HD
HETATM   23  H           1     -21.761  -6.053  -1.308  0.00  0.00     0.275 HD
ENDBRANCH  15  20
ENDBRANCH   3  15
TORSDOF 8
ENDMDL
MODEL 9
REMARK VINA RESULT:      -5.4     17.589     19.508
REMARK  8 active torsions:
REMARK  status: ('A' for Active; 'I' for Inactive)
REMARK    1  A    between atoms: C_1  and  C_3 
REMARK    2  A    between atoms: C_3  and  C_4 
REMARK    3  A    between atoms: C_4  and  C_16 
REMARK    4  A    between atoms: C_4  and  N_10 
REMARK    5  A    between atoms: C_12  and  C_21 
REMARK    6  A    between atoms: C_12  and  C_13 
REMARK    7  A    between atoms: C_13  and  C_14 
REMARK    8  A    between atoms: C_13  and  N_18 
REMARK       I    between atoms: C_16  and  N_18 
REMARK       I    between atoms: N_20  and  C_21 
ROOT
HETATM    1  O           1     -19.737  -8.652  -2.187  0.00  0.00    -0.271 OA
HETATM    2  H           1     -22.318  -7.119  -3.096  0.00  0.00     0.163 HD
HETATM    3  C           1     -20.768  -8.033  -2.074  0.00  0.00     0.249 C 
HETATM    4  N           1     -21.454  -7.637  -3.191  0.00  0.00    -0.344 N 
ENDROOT
BRANCH   4   5
HETATM    5  C           1     -20.943  -7.959  -4.508  0.00  0.00     0.194 C 
BRANCH   5   6
HETATM    6  C           1     -21.438  -9.339  -4.920  0.00  0.00     0.138 C 
BRANCH   6   7
HETATM    7  C           1     -20.272 -10.172  -5.395  0.00  0.00     0.217 C 
HETATM    8  O           1     -20.418 -10.952  -6.306  0.00  0.00    -0.274 OA
HETATM    9  N           1     -19.048 -10.042  -4.794  0.00  0.00    -0.370 N 
HETATM   10  H           1     -18.926  -9.388  -4.032  0.00  0.00     0.159 HD
HETATM   11  H           1     -18.267 -10.599  -5.113  0.00  0.00     0.159 HD
ENDBRANCH   6   7
ENDBRANCH   5   6
BRANCH   5  12
HETATM   12  C           1     -21.430  -6.933  -5.501  0.00  0.00     0.197 C 
HETATM   13  O           1     -20.999  -6.944  -6.674  0.00  0.00    -0.646 OA
HETATM   14  O           1     -22.264  -6.071  -5.151  0.00  0.00    -0.646 OA
ENDBRANCH   5  12
ENDBRANCH   4   5
BRANCH   3  15
HETATM   15  C           1     -21.299  -7.697  -0.703  0.00  0.00     0.278 C 
BRANCH  15  16
HETATM   16  C           1     -21.631  -8.983   0.043  0.00  0.00     0.021 C 
HETATM   17  C           1     -21.008  -8.940   1.432  0.00  0.00     0.012 C 
BRANCH  16  18
HETATM   18  C           1     -23.142  -9.121   0.168  0.00  0.00     0.002 C 
HETATM   19  C           1     -23.570 -10.497  -0.323  0.00  0.00     0.005 C 
ENDBRANCH  16  18
ENDBRANCH  15  16
BRANCH  15  20
HETATM   20  N           1     -22.540  -6.865  -0.839  0.00  0.00    -0.066 N 
HETATM   21  H           1     -22.423  -6.192  -1.630  0.00  0.00     0.275 HD
HETATM   22  H           1     -22.703  -6.336   0.048  0.00  0.00     0.275 HD
HETATM   23  H           1     -23.358  -7.486  -1.028  0.00  0.00     0.275 HD
ENDBRANCH  15  20
ENDBRANCH   3  15
TORSDOF 8
ENDMDL
