MODEL 1
REMARK VINA RESULT:      -6.6      0.000      0.000
REMARK  12 active torsions:
REMARK  status: ('A' for Active; 'I' for Inactive)
REMARK    1  A    between atoms: C_3  and  C_25 
REMARK    2  A    between atoms: C_3  and  C_12 
REMARK    3  A    between atoms: C_5  and  C_12 
REMARK    4  A    between atoms: C_5  and  C_21 
REMARK    5  A    between atoms: C_5  and  N_7 
REMARK       I    between atoms: N_7  and  C_8 
REMARK    6  A    between atoms: C_8  and  C_20 
REMARK    7  A    between atoms: C_10  and  C_26 
REMARK    8  A    between atoms: C_10  and  C_22 
REMARK    9  A    between atoms: C_17  and  C_22 
REMARK   10  A    between atoms: C_17  and  N_18 
REMARK   11  A    between atoms: N_19  and  C_20 
REMARK   12  A    between atoms: C_20  and  C_26 
ROOT
HETATM    1  O           1     -21.637  -3.393  -7.620  0.00  0.00    -0.271 OA
HETATM    2  N           1     -22.152  -4.794  -9.281  0.00  0.00    -0.345 N 
HETATM    3  C           1     -21.588  -4.515  -8.065  0.00  0.00     0.249 C 
HETATM    4  H           1     -22.113  -5.733  -9.653  0.00  0.00     0.163 HD
ENDROOT
BRANCH   3   5
HETATM    5  C           1     -20.907  -5.609  -7.281  0.00  0.00     0.274 C 
BRANCH   5   6
HETATM    6  N           1     -19.431  -5.566  -7.542  0.00  0.00    -0.067 N 
HETATM    7  H           1     -18.914  -5.681  -6.640  0.00  0.00     0.275 HD
HETATM    8  H           1     -19.180  -4.648  -7.973  0.00  0.00     0.275 HD
HETATM    9  H           1     -19.169  -6.340  -8.194  0.00  0.00     0.275 HD
ENDBRANCH   5   6
BRANCH   5  10
HETATM   10  C           1     -21.165  -5.405  -5.794  0.00  0.00     0.042 C 
BRANCH  10  11
HETATM   11  C           1     -22.278  -6.339  -5.338  0.00  0.00     0.004 C 
BRANCH  11  12
HETATM   12  C           1     -21.845  -7.067  -4.073  0.00  0.00     0.027 C 
BRANCH  12  13
HETATM   13  C           1     -21.321  -6.058  -3.060  0.00  0.00     0.229 C 
BRANCH  13  14
HETATM   14  N           1     -22.334  -5.869  -1.970  0.00  0.00    -0.079 N 
HETATM   15  H           1     -22.278  -4.891  -1.609  0.00  0.00     0.274 HD
HETATM   16  H           1     -23.290  -6.046  -2.351  0.00  0.00     0.274 HD
HETATM   17  H           1     -22.137  -6.539  -1.193  0.00  0.00     0.274 HD
ENDBRANCH  13  14
ENDBRANCH  12  13
ENDBRANCH  11  12
ENDBRANCH  10  11
ENDBRANCH   5  10
ENDBRANCH   3   5
BRANCH   2  18
HETATM   18  C           1     -22.808  -3.743 -10.034  0.00  0.00     0.186 C 
BRANCH  18  19
HETATM   19  C           1     -22.496  -3.910 -11.516  0.00  0.00     0.046 C 
BRANCH  19  20
HETATM   20  C           1     -22.793  -2.608 -12.248  0.00  0.00     0.116 C 
BRANCH  20  21
HETATM   21  C           1     -23.812  -2.861 -13.333  0.00  0.00     0.172 C 
HETATM   22  O           1     -23.440  -3.018 -14.516  0.00  0.00    -0.648 OA
HETATM   23  O           1     -25.027  -2.915 -13.047  0.00  0.00    -0.648 OA
ENDBRANCH  20  21
ENDBRANCH  19  20
ENDBRANCH  18  19
BRANCH  18  24
HETATM   24  C           1     -24.298  -3.825  -9.820  0.00  0.00     0.196 C 
HETATM   25  O           1     -24.881  -4.929  -9.898  0.00  0.00    -0.646 OA
HETATM   26  O           1     -24.952  -2.792  -9.564  0.00  0.00    -0.646 OA
ENDBRANCH  18  24
ENDBRANCH   2  18
TORSDOF 12
ENDMDL
MODEL 2
REMARK VINA RESULT:      -6.2      3.864      8.289
REMARK  12 active torsions:
REMARK  status: ('A' for Active; 'I' for Inactive)
REMARK    1  A    between atoms: C_3  and  C_25 
REMARK    2  A    between atoms: C_3  and  C_12 
REMARK    3  A    between atoms: C_5  and  C_12 
REMARK    4  A    between atoms: C_5  and  C_21 
REMARK    5  A    between atoms: C_5  and  N_7 
REMARK       I    between atoms: N_7  and  C_8 
REMARK    6  A    between atoms: C_8  and  C_20 
REMARK    7  A    between atoms: C_10  and  C_26 
REMARK    8  A    between atoms: C_10  and  C_22 
REMARK    9  A    between atoms: C_17  and  C_22 
REMARK   10  A    between atoms: C_17  and  N_18 
REMARK   11  A    between atoms: N_19  and  C_20 
REMARK   12  A    between atoms: C_20  and  C_26 
ROOT
HETATM    1  O           1     -20.313  -4.340  -6.126  0.00  0.00    -0.271 OA
HETATM    2  N           1     -21.270  -6.343  -6.358  0.00  0.00    -0.345 N 
HETATM    3  C           1     -20.951  -5.095  -6.820  0.00  0.00     0.249 C 
HETATM    4  H           1     -21.804  -6.977  -6.939  0.00  0.00     0.163 HD
ENDROOT
BRANCH   3   5
HETATM    5  C           1     -21.395  -4.663  -8.195  0.00  0.00     0.274 C 
BRANCH   5   6
HETATM    6  N           1     -22.459  -3.613  -8.070  0.00  0.00    -0.067 N 
HETATM    7  H           1     -22.186  -2.928  -7.329  0.00  0.00     0.275 HD
HETATM    8  H           1     -23.365  -4.065  -7.811  0.00  0.00     0.275 HD
HETATM    9  H           1     -22.567  -3.115  -8.982  0.00  0.00     0.275 HD
ENDBRANCH   5   6
BRANCH   5  10
HETATM   10  C           1     -20.207  -4.093  -8.958  0.00  0.00     0.042 C 
BRANCH  10  11
HETATM   11  C           1     -20.273  -4.541 -10.411  0.00  0.00     0.004 C 
BRANCH  11  12
HETATM   12  C           1     -20.777  -3.393 -11.276  0.00  0.00     0.027 C 
BRANCH  12  13
HETATM   13  C           1     -22.130  -3.760 -11.870  0.00  0.00     0.229 C 
BRANCH  13  14
HETATM   14  N           1     -22.161  -3.380 -13.320  0.00  0.00    -0.079 N 
HETATM   15  H           1     -23.151  -3.347 -13.651  0.00  0.00     0.274 HD
HETATM   16  H           1     -21.721  -2.440 -13.442  0.00  0.00     0.274 HD
HETATM   17  H           1     -21.632  -4.089 -13.877  0.00  0.00     0.274 HD
ENDBRANCH  13  14
ENDBRANCH  12  13
ENDBRANCH  11  12
ENDBRANCH  10  11
ENDBRANCH   5  10
ENDBRANCH   3   5
BRANCH   2  18
HETATM   18  C           1     -20.842  -6.759  -5.036  0.00  0.00     0.186 C 
BRANCH  18  19
HETATM   19  C           1     -22.014  -6.658  -4.068  0.00  0.00     0.046 C 
BRANCH  19  20
HETATM   20  C           1     -21.519  -6.151  -2.720  0.00  0.00     0.116 C 
BRANCH  20  21
HETATM   21  C           1     -21.902  -7.134  -1.641  0.00  0.00     0.172 C 
HETATM   22  O           1     -22.711  -6.800  -0.749  0.00  0.00    -0.648 OA
HETATM   23  O           1     -21.410  -8.283  -1.639  0.00  0.00    -0.648 OA
ENDBRANCH  20  21
ENDBRANCH  19  20
ENDBRANCH  18  19
BRANCH  18  24
HETATM   24  C           1     -20.355  -8.185  -5.090  0.00  0.00     0.196 C 
HETATM   25  O           1     -19.327  -8.519  -4.462  0.00  0.00    -0.646 OA
HETATM   26  O           1     -20.978  -9.034  -5.762  0.00  0.00    -0.646 OA
ENDBRANCH  18  24
ENDBRANCH   2  18
TORSDOF 12
ENDMDL
MODEL 3
REMARK VINA RESULT:      -5.9      9.827     12.540
REMARK  12 active torsions:
REMARK  status: ('A' for Active; 'I' for Inactive)
REMARK    1  A    between atoms: C_3  and  C_25 
REMARK    2  A    between atoms: C_3  and  C_12 
REMARK    3  A    between atoms: C_5  and  C_12 
REMARK    4  A    between atoms: C_5  and  C_21 
REMARK    5  A    between atoms: C_5  and  N_7 
REMARK       I    between atoms: N_7  and  C_8 
REMARK    6  A    between atoms: C_8  and  C_20 
REMARK    7  A    between atoms: C_10  and  C_26 
REMARK    8  A    between atoms: C_10  and  C_22 
REMARK    9  A    between atoms: C_17  and  C_22 
REMARK   10  A    between atoms: C_17  and  N_18 
REMARK   11  A    between atoms: N_19  and  C_20 
REMARK   12  A    between atoms: C_20  and  C_26 
ROOT
HETATM    1  O           1     -28.309  -5.214 -19.110  0.00  0.00    -0.271 OA
HETATM    2  N           1     -27.353  -7.231 -19.066  0.00  0.00    -0.345 N 
HETATM    3  C           1     -28.408  -6.388 -18.841  0.00  0.00     0.249 C 
HETATM    4  H           1     -27.435  -8.214 -18.842  0.00  0.00     0.163 HD
ENDROOT
BRANCH   3   5
HETATM    5  C           1     -29.691  -6.924 -18.259  0.00  0.00     0.274 C 
BRANCH   5   6
HETATM    6  N           1     -29.886  -8.344 -18.700  0.00  0.00    -0.067 N 
HETATM    7  H           1     -29.029  -8.899 -18.474  0.00  0.00     0.275 HD
HETATM    8  H           1     -30.055  -8.368 -19.731  0.00  0.00     0.275 HD
HETATM    9  H           1     -30.708  -8.755 -18.202  0.00  0.00     0.275 HD
ENDBRANCH   5   6
BRANCH   5  10
HETATM   10  C           1     -29.621  -6.871 -16.738  0.00  0.00     0.042 C 
BRANCH  10  11
HETATM   11  C           1     -30.306  -5.604 -16.242  0.00  0.00     0.004 C 
BRANCH  11  12
HETATM   12  C           1     -31.571  -5.358 -17.054  0.00  0.00     0.027 C 
BRANCH  12  13
HETATM   13  C           1     -31.698  -3.871 -17.357  0.00  0.00     0.229 C 
BRANCH  13  14
HETATM   14  N           1     -33.144  -3.474 -17.320  0.00  0.00    -0.079 N 
HETATM   15  H           1     -33.668  -3.996 -18.058  0.00  0.00     0.274 HD
HETATM   16  H           1     -33.543  -3.702 -16.381  0.00  0.00     0.274 HD
HETATM   17  H           1     -33.227  -2.447 -17.494  0.00  0.00     0.274 HD
ENDBRANCH  13  14
ENDBRANCH  12  13
ENDBRANCH  11  12
ENDBRANCH  10  11
ENDBRANCH   5  10
ENDBRANCH   3   5
BRANCH   2  18
HETATM   18  C           1     -26.119  -6.716 -19.627  0.00  0.00     0.186 C 
BRANCH  18  19
HETATM   19  C           1     -25.016  -6.792 -18.579  0.00  0.00     0.046 C 
BRANCH  19  20
HETATM   20  C           1     -25.574  -6.386 -17.222  0.00  0.00     0.116 C 
BRANCH  20  21
HETATM   21  C           1     -24.982  -7.268 -16.150  0.00  0.00     0.172 C 
HETATM   22  O           1     -25.230  -7.042 -14.946  0.00  0.00    -0.648 OA
HETATM   23  O           1     -24.243  -8.225 -16.466  0.00  0.00    -0.648 OA
ENDBRANCH  20  21
ENDBRANCH  19  20
ENDBRANCH  18  19
BRANCH  18  24
HETATM   24  C           1     -25.730  -7.540 -20.828  0.00  0.00     0.196 C 
HETATM   25  O           1     -26.516  -8.404 -21.276  0.00  0.00    -0.646 OA
HETATM   26  O           1     -24.623  -7.360 -21.379  0.00  0.00    -0.646 OA
ENDBRANCH  18  24
ENDBRANCH   2  18
TORSDOF 12
ENDMDL
MODEL 4
REMARK VINA RESULT:      -5.8      4.777      8.207
REMARK  12 active torsions:
REMARK  status: ('A' for Active; 'I' for Inactive)
REMARK    1  A    between atoms: C_3  and  C_25 
REMARK    2  A    between atoms: C_3  and  C_12 
REMARK    3  A    between atoms: C_5  and  C_12 
REMARK    4  A    between atoms: C_5  and  C_21 
REMARK    5  A    between atoms: C_5  and  N_7 
REMARK       I    between atoms: N_7  and  C_8 
REMARK    6  A    between atoms: C_8  and  C_20 
REMARK    7  A    between atoms: C_10  and  C_26 
REMARK    8  A    between atoms: C_10  and  C_22 
REMARK    9  A    between atoms: C_17  and  C_22 
REMARK   10  A    between atoms: C_17  and  N_18 
REMARK   11  A    between atoms: N_19  and  C_20 
REMARK   12  A    between atoms: C_20  and  C_26 
ROOT
HETATM    1  O           1     -19.741  -7.560  -5.789  0.00  0.00    -0.271 OA
HETATM    2  N           1     -21.603  -7.917  -4.611  0.00  0.00    -0.345 N 
HETATM    3  C           1     -20.874  -7.224  -5.539  0.00  0.00     0.249 C 
HETATM    4  H           1     -22.552  -7.636  -4.401  0.00  0.00     0.163 HD
ENDROOT
BRANCH   3   5
HETATM    5  C           1     -21.485  -6.042  -6.249  0.00  0.00     0.274 C 
BRANCH   5   6
HETATM    6  N           1     -22.787  -5.685  -5.596  0.00  0.00    -0.067 N 
HETATM    7  H           1     -22.605  -5.071  -4.769  0.00  0.00     0.275 HD
HETATM    8  H           1     -23.270  -6.557  -5.283  0.00  0.00     0.275 HD
HETATM    9  H           1     -23.393  -5.177  -6.279  0.00  0.00     0.275 HD
ENDBRANCH   5   6
BRANCH   5  10
HETATM   10  C           1     -20.535  -4.854  -6.170  0.00  0.00     0.042 C 
BRANCH  10  11
HETATM   11  C           1     -20.977  -3.783  -7.158  0.00  0.00     0.004 C 
BRANCH  11  12
HETATM   12  C           1     -20.843  -4.315  -8.579  0.00  0.00     0.027 C 
BRANCH  12  13
HETATM   13  C           1     -22.080  -3.938  -9.383  0.00  0.00     0.229 C 
BRANCH  13  14
HETATM   14  N           1     -23.194  -3.574  -8.447  0.00  0.00    -0.079 N 
HETATM   15  H           1     -24.006  -4.210  -8.607  0.00  0.00     0.274 HD
HETATM   16  H           1     -22.864  -3.672  -7.460  0.00  0.00     0.274 HD
HETATM   17  H           1     -23.486  -2.586  -8.621  0.00  0.00     0.274 HD
ENDBRANCH  13  14
ENDBRANCH  12  13
ENDBRANCH  11  12
ENDBRANCH  10  11
ENDBRANCH   5  10
ENDBRANCH   3   5
BRANCH   2  18
HETATM   18  C           1     -21.016  -9.053  -3.928  0.00  0.00     0.186 C 
BRANCH  18  19
HETATM   19  C           1     -21.372  -8.996  -2.448  0.00  0.00     0.046 C 
BRANCH  19  20
HETATM   20  C           1     -20.911  -7.667  -1.865  0.00  0.00     0.116 C 
BRANCH  20  21
HETATM   21  C           1     -22.110  -6.785  -1.613  0.00  0.00     0.172 C 
HETATM   22  O           1     -22.760  -6.902  -0.551  0.00  0.00    -0.648 OA
HETATM   23  O           1     -22.452  -5.937  -2.465  0.00  0.00    -0.648 OA
ENDBRANCH  20  21
ENDBRANCH  19  20
ENDBRANCH  18  19
BRANCH  18  24
HETATM   24  C           1     -21.551 -10.330  -4.526  0.00  0.00     0.196 C 
HETATM   25  O           1     -22.439 -10.977  -3.929  0.00  0.00    -0.646 OA
HETATM   26  O           1     -21.109 -10.742  -5.620  0.00  0.00    -0.646 OA
ENDBRANCH  18  24
ENDBRANCH   2  18
TORSDOF 12
ENDMDL
MODEL 5
REMARK VINA RESULT:      -5.7     10.097     13.098
REMARK  12 active torsions:
REMARK  status: ('A' for Active; 'I' for Inactive)
REMARK    1  A    between atoms: C_3  and  C_25 
REMARK    2  A    between atoms: C_3  and  C_12 
REMARK    3  A    between atoms: C_5  and  C_12 
REMARK    4  A    between atoms: C_5  and  C_21 
REMARK    5  A    between atoms: C_5  and  N_7 
REMARK       I    between atoms: N_7  and  C_8 
REMARK    6  A    between atoms: C_8  and  C_20 
REMARK    7  A    between atoms: C_10  and  C_26 
REMARK    8  A    between atoms: C_10  and  C_22 
REMARK    9  A    between atoms: C_17  and  C_22 
REMARK   10  A    between atoms: C_17  and  N_18 
REMARK   11  A    between atoms: N_19  and  C_20 
REMARK   12  A    between atoms: C_20  and  C_26 
ROOT
HETATM    1  O           1     -28.517  -8.496 -20.142  0.00  0.00    -0.271 OA
HETATM    2  N           1     -28.302  -6.844 -18.655  0.00  0.00    -0.345 N 
HETATM    3  C           1     -27.910  -7.515 -19.783  0.00  0.00     0.249 C 
HETATM    4  H           1     -27.794  -6.023 -18.354  0.00  0.00     0.163 HD
ENDROOT
BRANCH   3   5
HETATM    5  C           1     -26.722  -7.030 -20.574  0.00  0.00     0.274 C 
BRANCH   5   6
HETATM    6  N           1     -25.747  -6.359 -19.653  0.00  0.00    -0.067 N 
HETATM    7  H           1     -26.185  -5.499 -19.250  0.00  0.00     0.275 HD
HETATM    8  H           1     -24.888  -6.096 -20.186  0.00  0.00     0.275 HD
HETATM    9  H           1     -25.491  -7.014 -18.879  0.00  0.00     0.275 HD
ENDBRANCH   5   6
BRANCH   5  10
HETATM   10  C           1     -26.045  -8.214 -21.253  0.00  0.00     0.042 C 
BRANCH  10  11
HETATM   11  C           1     -24.533  -8.051 -21.171  0.00  0.00     0.004 C 
BRANCH  11  12
HETATM   12  C           1     -23.965  -7.864 -22.571  0.00  0.00     0.027 C 
BRANCH  12  13
HETATM   13  C           1     -22.632  -8.593 -22.681  0.00  0.00     0.229 C 
BRANCH  13  14
HETATM   14  N           1     -22.316  -9.256 -21.374  0.00  0.00    -0.079 N 
HETATM   15  H           1     -21.725  -8.619 -20.793  0.00  0.00     0.274 HD
HETATM   16  H           1     -23.205  -9.466 -20.866  0.00  0.00     0.274 HD
HETATM   17  H           1     -21.797 -10.146 -21.552  0.00  0.00     0.274 HD
ENDBRANCH  13  14
ENDBRANCH  12  13
ENDBRANCH  11  12
ENDBRANCH  10  11
ENDBRANCH   5  10
ENDBRANCH   3   5
BRANCH   2  18
HETATM   18  C           1     -29.445  -7.310 -17.894  0.00  0.00     0.186 C 
BRANCH  18  19
HETATM   19  C           1     -28.984  -7.769 -16.517  0.00  0.00     0.046 C 
BRANCH  19  20
HETATM   20  C           1     -28.362  -6.596 -15.771  0.00  0.00     0.116 C 
BRANCH  20  21
HETATM   21  C           1     -26.864  -6.620 -15.955  0.00  0.00     0.172 C 
HETATM   22  O           1     -26.314  -5.789 -16.709  0.00  0.00    -0.648 OA
HETATM   23  O           1     -26.175  -7.471 -15.354  0.00  0.00    -0.648 OA
ENDBRANCH  20  21
ENDBRANCH  19  20
ENDBRANCH  18  19
BRANCH  18  24
HETATM   24  C           1     -30.440  -6.187 -17.744  0.00  0.00     0.196 C 
HETATM   25  O           1     -30.145  -5.034 -18.127  0.00  0.00    -0.646 OA
HETATM   26  O           1     -31.561  -6.408 -17.239  0.00  0.00    -0.646 OA
ENDBRANCH  18  24
ENDBRANCH   2  18
TORSDOF 12
ENDMDL
MODEL 6
REMARK VINA RESULT:      -5.6      2.138      3.598
REMARK  12 active torsions:
REMARK  status: ('A' for Active; 'I' for Inactive)
REMARK    1  A    between atoms: C_3  and  C_25 
REMARK    2  A    between atoms: C_3  and  C_12 
REMARK    3  A    between atoms: C_5  and  C_12 
REMARK    4  A    between atoms: C_5  and  C_21 
REMARK    5  A    between atoms: C_5  and  N_7 
REMARK       I    between atoms: N_7  and  C_8 
REMARK    6  A    between atoms: C_8  and  C_20 
REMARK    7  A    between atoms: C_10  and  C_26 
REMARK    8  A    between atoms: C_10  and  C_22 
REMARK    9  A    between atoms: C_17  and  C_22 
REMARK   10  A    between atoms: C_17  and  N_18 
REMARK   11  A    between atoms: N_19  and  C_20 
REMARK   12  A    between atoms: C_20  and  C_26 
ROOT
HETATM    1  O           1     -20.478  -7.047  -6.660  0.00  0.00    -0.271 OA
HETATM    2  N           1     -22.140  -5.577  -6.412  0.00  0.00    -0.345 N 
HETATM    3  C           1     -21.385  -6.634  -5.978  0.00  0.00     0.249 C 
HETATM    4  H           1     -22.900  -5.230  -5.841  0.00  0.00     0.163 HD
ENDROOT
BRANCH   3   5
HETATM    5  C           1     -21.686  -7.280  -4.649  0.00  0.00     0.274 C 
BRANCH   5   6
HETATM    6  N           1     -20.708  -8.390  -4.401  0.00  0.00    -0.067 N 
HETATM    7  H           1     -20.351  -8.751  -5.315  0.00  0.00     0.275 HD
HETATM    8  H           1     -21.182  -9.163  -3.882  0.00  0.00     0.275 HD
HETATM    9  H           1     -19.907  -8.029  -3.833  0.00  0.00     0.275 HD
ENDBRANCH   5   6
BRANCH   5  10
HETATM   10  C           1     -21.569  -6.243  -3.541  0.00  0.00     0.042 C 
BRANCH  10  11
HETATM   11  C           1     -21.184  -6.932  -2.239  0.00  0.00     0.004 C 
BRANCH  11  12
HETATM   12  C           1     -22.317  -6.788  -1.232  0.00  0.00     0.027 C 
BRANCH  12  13
HETATM   13  C           1     -22.320  -7.988  -0.294  0.00  0.00     0.229 C 
BRANCH  13  14
HETATM   14  N           1     -23.534  -7.935   0.584  0.00  0.00    -0.079 N 
HETATM   15  H           1     -24.393  -8.030  -0.003  0.00  0.00     0.274 HD
HETATM   16  H           1     -23.496  -8.718   1.276  0.00  0.00     0.274 HD
HETATM   17  H           1     -23.558  -7.022   1.091  0.00  0.00     0.274 HD
ENDBRANCH  13  14
ENDBRANCH  12  13
ENDBRANCH  11  12
ENDBRANCH  10  11
ENDBRANCH   5  10
ENDBRANCH   3   5
BRANCH   2  18
HETATM   18  C           1     -21.851  -4.955  -7.689  0.00  0.00     0.186 C 
BRANCH  18  19
HETATM   19  C           1     -23.139  -4.409  -8.291  0.00  0.00     0.046 C 
BRANCH  19  20
HETATM   20  C           1     -22.831  -3.721  -9.615  0.00  0.00     0.116 C 
BRANCH  20  21
HETATM   21  C           1     -24.003  -3.884 -10.552  0.00  0.00     0.172 C 
HETATM   22  O           1     -25.064  -3.258 -10.339  0.00  0.00    -0.648 OA
HETATM   23  O           1     -23.912  -4.644 -11.539  0.00  0.00    -0.648 OA
ENDBRANCH  20  21
ENDBRANCH  19  20
ENDBRANCH  18  19
BRANCH  18  24
HETATM   24  C           1     -20.871  -3.826  -7.488  0.00  0.00     0.196 C 
HETATM   25  O           1     -19.747  -3.868  -8.034  0.00  0.00    -0.646 OA
HETATM   26  O           1     -21.182  -2.848  -6.775  0.00  0.00    -0.646 OA
ENDBRANCH  18  24
ENDBRANCH   2  18
TORSDOF 12
ENDMDL
MODEL 7
REMARK VINA RESULT:      -5.5     10.132     13.500
REMARK  12 active torsions:
REMARK  status: ('A' for Active; 'I' for Inactive)
REMARK    1  A    between atoms: C_3  and  C_25 
REMARK    2  A    between atoms: C_3  and  C_12 
REMARK    3  A    between atoms: C_5  and  C_12 
REMARK    4  A    between atoms: C_5  and  C_21 
REMARK    5  A    between atoms: C_5  and  N_7 
REMARK       I    between atoms: N_7  and  C_8 
REMARK    6  A    between atoms: C_8  and  C_20 
REMARK    7  A    between atoms: C_10  and  C_26 
REMARK    8  A    between atoms: C_10  and  C_22 
REMARK    9  A    between atoms: C_17  and  C_22 
REMARK   10  A    between atoms: C_17  and  N_18 
REMARK   11  A    between atoms: N_19  and  C_20 
REMARK   12  A    between atoms: C_20  and  C_26 
ROOT
HETATM    1  O           1     -31.321  -3.490 -17.273  0.00  0.00    -0.271 OA
HETATM    2  N           1     -31.317  -5.620 -16.605  0.00  0.00    -0.345 N 
HETATM    3  C           1     -31.940  -4.419 -16.811  0.00  0.00     0.249 C 
HETATM    4  H           1     -31.835  -6.399 -16.219  0.00  0.00     0.163 HD
ENDROOT
BRANCH   3   5
HETATM    5  C           1     -33.399  -4.257 -16.464  0.00  0.00     0.274 C 
BRANCH   5   6
HETATM    6  N           1     -33.559  -4.250 -14.972  0.00  0.00    -0.067 N 
HETATM    7  H           1     -32.817  -3.651 -14.545  0.00  0.00     0.275 HD
HETATM    8  H           1     -33.472  -5.226 -14.608  0.00  0.00     0.275 HD
HETATM    9  H           1     -34.500  -3.868 -14.724  0.00  0.00     0.275 HD
ENDBRANCH   5   6
BRANCH   5  10
HETATM   10  C           1     -33.914  -2.942 -17.035  0.00  0.00     0.042 C 
BRANCH  10  11
HETATM   11  C           1     -35.075  -2.440 -16.187  0.00  0.00     0.004 C 
BRANCH  11  12
HETATM   12  C           1     -35.486  -1.051 -16.657  0.00  0.00     0.027 C 
BRANCH  12  13
HETATM   13  C           1     -35.816  -0.183 -15.451  0.00  0.00     0.229 C 
BRANCH  13  14
HETATM   14  N           1     -36.608   1.011 -15.894  0.00  0.00    -0.079 N 
HETATM   15  H           1     -37.567   0.709 -16.175  0.00  0.00     0.274 HD
HETATM   16  H           1     -36.675   1.695 -15.107  0.00  0.00     0.274 HD
HETATM   17  H           1     -36.131   1.461 -16.708  0.00  0.00     0.274 HD
ENDBRANCH  13  14
ENDBRANCH  12  13
ENDBRANCH  11  12
ENDBRANCH  10  11
ENDBRANCH   5  10
ENDBRANCH   3   5
BRANCH   2  18
HETATM   18  C           1     -29.915  -5.777 -16.940  0.00  0.00     0.186 C 
BRANCH  18  19
HETATM   19  C           1     -29.127  -6.113 -15.680  0.00  0.00     0.046 C 
BRANCH  19  20
HETATM   20  C           1     -28.159  -7.252 -15.974  0.00  0.00     0.116 C 
BRANCH  20  21
HETATM   21  C           1     -26.745  -6.725 -15.965  0.00  0.00     0.172 C 
HETATM   22  O           1     -26.436  -5.749 -16.683  0.00  0.00    -0.648 OA
HETATM   23  O           1     -25.882  -7.266 -15.241  0.00  0.00    -0.648 OA
ENDBRANCH  20  21
ENDBRANCH  19  20
ENDBRANCH  18  19
BRANCH  18  24
HETATM   24  C           1     -29.760  -6.891 -17.944  0.00  0.00     0.196 C 
HETATM   25  O           1     -28.844  -6.845 -18.793  0.00  0.00    -0.646 OA
HETATM   26  O           1     -30.545  -7.863 -17.927  0.00  0.00    -0.646 OA
ENDBRANCH  18  24
ENDBRANCH   2  18
TORSDOF 12
ENDMDL
MODEL 8
REMARK VINA RESULT:      -5.5      3.786      7.597
REMARK  12 active torsions:
REMARK  status: ('A' for Active; 'I' for Inactive)
REMARK    1  A    between atoms: C_3  and  C_25 
REMARK    2  A    between atoms: C_3  and  C_12 
REMARK    3  A    between atoms: C_5  and  C_12 
REMARK    4  A    between atoms: C_5  and  C_21 
REMARK    5  A    between atoms: C_5  and  N_7 
REMARK       I    between atoms: N_7  and  C_8 
REMARK    6  A    between atoms: C_8  and  C_20 
REMARK    7  A    between atoms: C_10  and  C_26 
REMARK    8  A    between atoms: C_10  and  C_22 
REMARK    9  A    between atoms: C_17  and  C_22 
REMARK   10  A    between atoms: C_17  and  N_18 
REMARK   11  A    between atoms: N_19  and  C_20 
REMARK   12  A    between atoms: C_20  and  C_26 
ROOT
HETATM    1  O           1     -22.710  -5.707  -5.624  0.00  0.00    -0.271 OA
HETATM    2  N           1     -20.838  -6.468  -4.673  0.00  0.00    -0.345 N 
HETATM    3  C           1     -21.506  -5.646  -5.541  0.00  0.00     0.249 C 
HETATM    4  H           1     -19.830  -6.417  -4.602  0.00  0.00     0.163 HD
ENDROOT
BRANCH   3   5
HETATM    5  C           1     -20.739  -4.665  -6.391  0.00  0.00     0.274 C 
BRANCH   5   6
HETATM    6  N           1     -19.647  -5.385  -7.124  0.00  0.00    -0.067 N 
HETATM    7  H           1     -18.965  -5.778  -6.435  0.00  0.00     0.275 HD
HETATM    8  H           1     -19.154  -4.718  -7.759  0.00  0.00     0.275 HD
HETATM    9  H           1     -20.059  -6.164  -7.687  0.00  0.00     0.275 HD
ENDBRANCH   5   6
BRANCH   5  10
HETATM   10  C           1     -21.682  -4.017  -7.396  0.00  0.00     0.042 C 
BRANCH  10  11
HETATM   11  C           1     -21.251  -4.385  -8.809  0.00  0.00     0.004 C 
BRANCH  11  12
HETATM   12  C           1     -22.447  -4.296  -9.746  0.00  0.00     0.027 C 
BRANCH  12  13
HETATM   13  C           1     -23.679  -3.867  -8.959  0.00  0.00     0.229 C 
BRANCH  13  14
HETATM   14  N           1     -24.904  -4.469  -9.579  0.00  0.00    -0.079 N 
HETATM   15  H           1     -24.814  -4.451 -10.619  0.00  0.00     0.274 HD
HETATM   16  H           1     -25.008  -5.457  -9.255  0.00  0.00     0.274 HD
HETATM   17  H           1     -25.745  -3.918  -9.293  0.00  0.00     0.274 HD
ENDBRANCH  13  14
ENDBRANCH  12  13
ENDBRANCH  11  12
ENDBRANCH  10  11
ENDBRANCH   5  10
ENDBRANCH   3   5
BRANCH   2  18
HETATM   18  C           1     -21.575  -7.411  -3.855  0.00  0.00     0.186 C 
BRANCH  18  19
HETATM   19  C           1     -20.861  -8.757  -3.863  0.00  0.00     0.046 C 
BRANCH  19  20
HETATM   20  C           1     -19.466  -8.589  -4.450  0.00  0.00     0.116 C 
BRANCH  20  21
HETATM   21  C           1     -19.261  -9.594  -5.557  0.00  0.00     0.172 C 
HETATM   22  O           1     -18.177  -9.627  -6.179  0.00  0.00    -0.648 OA
HETATM   23  O           1     -20.175 -10.393  -5.852  0.00  0.00    -0.648 OA
ENDBRANCH  20  21
ENDBRANCH  19  20
ENDBRANCH  18  19
BRANCH  18  24
HETATM   24  C           1     -21.658  -6.893  -2.441  0.00  0.00     0.196 C 
HETATM   25  O           1     -21.023  -7.464  -1.527  0.00  0.00    -0.646 OA
HETATM   26  O           1     -22.360  -5.892  -2.182  0.00  0.00    -0.646 OA
ENDBRANCH  18  24
ENDBRANCH   2  18
TORSDOF 12
ENDMDL
MODEL 9
REMARK VINA RESULT:      -5.4      4.163      8.322
REMARK  12 active torsions:
REMARK  status: ('A' for Active; 'I' for Inactive)
REMARK    1  A    between atoms: C_3  and  C_25 
REMARK    2  A    between atoms: C_3  and  C_12 
REMARK    3  A    between atoms: C_5  and  C_12 
REMARK    4  A    between atoms: C_5  and  C_21 
REMARK    5  A    between atoms: C_5  and  N_7 
REMARK       I    between atoms: N_7  and  C_8 
REMARK    6  A    between atoms: C_8  and  C_20 
REMARK    7  A    between atoms: C_10  and  C_26 
REMARK    8  A    between atoms: C_10  and  C_22 
REMARK    9  A    between atoms: C_17  and  C_22 
REMARK   10  A    between atoms: C_17  and  N_18 
REMARK   11  A    between atoms: N_19  and  C_20 
REMARK   12  A    between atoms: C_20  and  C_26 
ROOT
HETATM    1  O           1     -22.769  -5.774  -5.623  0.00  0.00    -0.271 OA
HETATM    2  N           1     -20.896  -6.746  -4.893  0.00  0.00    -0.345 N 
HETATM    3  C           1     -21.567  -5.867  -5.700  0.00  0.00     0.249 C 
HETATM    4  H           1     -19.889  -6.824  -4.957  0.00  0.00     0.163 HD
ENDROOT
BRANCH   3   5
HETATM    5  C           1     -20.805  -5.014  -6.684  0.00  0.00     0.274 C 
BRANCH   5   6
HETATM    6  N           1     -19.952  -5.892  -7.551  0.00  0.00    -0.067 N 
HETATM    7  H           1     -19.647  -6.730  -7.004  0.00  0.00     0.275 HD
HETATM    8  H           1     -19.113  -5.358  -7.869  0.00  0.00     0.275 HD
HETATM    9  H           1     -20.504  -6.202  -8.383  0.00  0.00     0.275 HD
ENDBRANCH   5   6
BRANCH   5  10
HETATM   10  C           1     -21.788  -4.242  -7.555  0.00  0.00     0.042 C 
BRANCH  10  11
HETATM   11  C           1     -21.406  -4.406  -9.019  0.00  0.00     0.004 C 
BRANCH  11  12
HETATM   12  C           1     -22.606  -4.079  -9.898  0.00  0.00     0.027 C 
BRANCH  12  13
HETATM   13  C           1     -23.818  -3.797  -9.018  0.00  0.00     0.229 C 
BRANCH  13  14
HETATM   14  N           1     -25.027  -4.466  -9.602  0.00  0.00    -0.079 N 
HETATM   15  H           1     -25.840  -3.811  -9.562  0.00  0.00     0.274 HD
HETATM   16  H           1     -24.835  -4.724 -10.596  0.00  0.00     0.274 HD
HETATM   17  H           1     -25.246  -5.327  -9.053  0.00  0.00     0.274 HD
ENDBRANCH  13  14
ENDBRANCH  12  13
ENDBRANCH  11  12
ENDBRANCH  10  11
ENDBRANCH   5  10
ENDBRANCH   3   5
BRANCH   2  18
HETATM   18  C           1     -21.627  -7.565  -3.947  0.00  0.00     0.186 C 
BRANCH  18  19
HETATM   19  C           1     -20.980  -8.942  -3.860  0.00  0.00     0.046 C 
BRANCH  19  20
HETATM   20  C           1     -22.062 -10.013  -3.841  0.00  0.00     0.116 C 
BRANCH  20  21
HETATM   21  C           1     -22.168 -10.597  -2.454  0.00  0.00     0.172 C 
HETATM   22  O           1     -21.168 -10.616  -1.705  0.00  0.00    -0.648 OA
HETATM   23  O           1     -23.257 -11.062  -2.054  0.00  0.00    -0.648 OA
ENDBRANCH  20  21
ENDBRANCH  19  20
ENDBRANCH  18  19
BRANCH  18  24
HETATM   24  C           1     -21.602  -6.910  -2.589  0.00  0.00     0.196 C 
HETATM   25  O           1     -20.773  -7.282  -1.730  0.00  0.00    -0.646 OA
HETATM   26  O           1     -22.407  -5.993  -2.322  0.00  0.00    -0.646 OA
ENDBRANCH  18  24
ENDBRANCH   2  18
TORSDOF 12
ENDMDL
