MODEL 1
REMARK VINA RESULT:      -4.8      0.000      0.000
REMARK  8 active torsions:
REMARK  status: ('A' for Active; 'I' for Inactive)
REMARK    1  A    between atoms: C_3  and  C_19 
REMARK    2  A    between atoms: N_6  and  C_19 
REMARK       I    between atoms: N_6  and  C_7 
REMARK    3  A    between atoms: C_7  and  C_8 
REMARK    4  A    between atoms: C_8  and  C_9 
REMARK    5  A    between atoms: C_8  and  N_11 
REMARK    6  A    between atoms: C_9  and  Se_10 
REMARK    7  A    between atoms: Se_17  and  C_18 
REMARK    8  A    between atoms: C_18  and  C_19 
ROOT
HETATM    1  N           1     -35.232  -1.269 -12.487  0.00  0.00    -0.345 N 
HETATM    2  C           1     -34.561  -2.457 -12.606  0.00  0.00     0.249 C 
HETATM    3  O           1     -34.506  -3.016 -13.675  0.00  0.00    -0.271 OA
HETATM    4  H           1     -35.277  -0.801 -11.592  0.00  0.00     0.163 HD
ENDROOT
BRANCH   2   5
HETATM    5  C           1     -33.890  -3.067 -11.400  0.00  0.00     0.274 C 
BRANCH   5   6
HETATM    6  C           1     -34.799  -4.130 -10.795  0.00  0.00     0.045 C 
BRANCH   6   7
HETATM    7 Se           1     -33.959  -5.880 -10.967  0.00  0.00     0.000 Se
HETATM    8  H           1     -34.634  -6.448  -9.789  0.00  0.00     0.000 HD
ENDBRANCH   6   7
ENDBRANCH   5   6
BRANCH   5   9
HETATM    9  N           1     -33.625  -1.998 -10.382  0.00  0.00    -0.067 N 
HETATM   10  H           1     -32.595  -1.845 -10.297  0.00  0.00     0.275 HD
HETATM   11  H           1     -34.086  -1.110 -10.682  0.00  0.00     0.275 HD
HETATM   12  H           1     -34.010  -2.296  -9.456  0.00  0.00     0.275 HD
ENDBRANCH   5   9
ENDBRANCH   2   5
BRANCH   1  13
HETATM   13  C           1     -35.877  -0.683 -13.646  0.00  0.00     0.185 C 
BRANCH  13  14
HETATM   14  C           1     -34.994   0.398 -14.219  0.00  0.00     0.196 C 
HETATM   15  O           1     -34.500   0.261 -15.359  0.00  0.00    -0.646 OA
HETATM   16  O           1     -34.758   1.429 -13.554  0.00  0.00    -0.646 OA
ENDBRANCH  13  14
BRANCH  13  17
HETATM   17  C           1     -37.213  -0.081 -13.230  0.00  0.00     0.039 C 
BRANCH  17  18
HETATM   18 Se           1     -37.388  -0.162 -11.291  0.00  0.00     0.000 Se
HETATM   19  H           1     -35.936  -0.191 -11.045  0.00  0.00     0.000 HD
ENDBRANCH  17  18
ENDBRANCH  13  17
ENDBRANCH   1  13
TORSDOF 8
ENDMDL
MODEL 2
REMARK VINA RESULT:      -4.8     12.605     13.987
REMARK  8 active torsions:
REMARK  status: ('A' for Active; 'I' for Inactive)
REMARK    1  A    between atoms: C_3  and  C_19 
REMARK    2  A    between atoms: N_6  and  C_19 
REMARK       I    between atoms: N_6  and  C_7 
REMARK    3  A    between atoms: C_7  and  C_8 
REMARK    4  A    between atoms: C_8  and  C_9 
REMARK    5  A    between atoms: C_8  and  N_11 
REMARK    6  A    between atoms: C_9  and  Se_10 
REMARK    7  A    between atoms: Se_17  and  C_18 
REMARK    8  A    between atoms: C_18  and  C_19 
ROOT
HETATM    1  N           1     -22.162  -4.872  -8.871  0.00  0.00    -0.345 N 
HETATM    2  C           1     -21.634  -4.579  -7.642  0.00  0.00     0.249 C 
HETATM    3  O           1     -21.592  -3.434  -7.260  0.00  0.00    -0.271 OA
HETATM    4  H           1     -22.198  -5.831  -9.191  0.00  0.00     0.163 HD
ENDROOT
BRANCH   2   5
HETATM    5  C           1     -21.105  -5.687  -6.765  0.00  0.00     0.274 C 
BRANCH   5   6
HETATM    6  C           1     -20.722  -5.119  -5.404  0.00  0.00     0.045 C 
BRANCH   6   7
HETATM    7 Se           1     -21.396  -6.288  -3.999  0.00  0.00     0.000 Se
HETATM    8  H           1     -22.415  -6.919  -4.853  0.00  0.00     0.000 HD
ENDBRANCH   6   7
ENDBRANCH   5   6
BRANCH   5   9
HETATM    9  N           1     -19.896  -6.299  -7.409  0.00  0.00    -0.067 N 
HETATM   10  H           1     -20.167  -6.727  -8.323  0.00  0.00     0.275 HD
HETATM   11  H           1     -19.176  -5.559  -7.572  0.00  0.00     0.275 HD
HETATM   12  H           1     -19.503  -7.036  -6.781  0.00  0.00     0.275 HD
ENDBRANCH   5   9
ENDBRANCH   2   5
BRANCH   1  13
HETATM   13  C           1     -22.670  -3.807  -9.714  0.00  0.00     0.185 C 
BRANCH  13  14
HETATM   14  C           1     -24.179  -3.846  -9.717  0.00  0.00     0.196 C 
HETATM   15  O           1     -24.775  -4.907  -9.998  0.00  0.00    -0.646 OA
HETATM   16  O           1     -24.831  -2.816  -9.439  0.00  0.00    -0.646 OA
ENDBRANCH  13  14
BRANCH  13  17
HETATM   17  C           1     -22.153  -3.995 -11.134  0.00  0.00     0.039 C 
BRANCH  17  18
HETATM   18 Se           1     -22.997  -2.690 -12.311  0.00  0.00     0.000 Se
HETATM   19  H           1     -22.496  -1.522 -11.567  0.00  0.00     0.000 HD
ENDBRANCH  17  18
ENDBRANCH  13  17
ENDBRANCH   1  13
TORSDOF 8
ENDMDL
MODEL 3
REMARK VINA RESULT:      -4.8      2.720      4.858
REMARK  8 active torsions:
REMARK  status: ('A' for Active; 'I' for Inactive)
REMARK    1  A    between atoms: C_3  and  C_19 
REMARK    2  A    between atoms: N_6  and  C_19 
REMARK       I    between atoms: N_6  and  C_7 
REMARK    3  A    between atoms: C_7  and  C_8 
REMARK    4  A    between atoms: C_8  and  C_9 
REMARK    5  A    between atoms: C_8  and  N_11 
REMARK    6  A    between atoms: C_9  and  Se_10 
REMARK    7  A    between atoms: Se_17  and  C_18 
REMARK    8  A    between atoms: C_18  and  C_19 
ROOT
HETATM    1  N           1     -34.859  -1.329 -13.159  0.00  0.00    -0.345 N 
HETATM    2  C           1     -35.992  -0.630 -13.478  0.00  0.00     0.249 C 
HETATM    3  O           1     -37.041  -0.903 -12.943  0.00  0.00    -0.271 OA
HETATM    4  H           1     -33.980  -1.100 -13.606  0.00  0.00     0.163 HD
ENDROOT
BRANCH   2   5
HETATM    5  C           1     -35.931   0.482 -14.497  0.00  0.00     0.274 C 
BRANCH   5   6
HETATM    6  C           1     -36.773   0.106 -15.710  0.00  0.00     0.045 C 
BRANCH   6   7
HETATM    7 Se           1     -35.831  -1.233 -16.766  0.00  0.00     0.000 Se
HETATM    8  H           1     -36.674  -2.351 -16.312  0.00  0.00     0.000 HD
ENDBRANCH   6   7
ENDBRANCH   5   6
BRANCH   5   9
HETATM    9  N           1     -34.508   0.692 -14.922  0.00  0.00    -0.067 N 
HETATM   10  H           1     -34.044  -0.235 -15.055  0.00  0.00     0.275 HD
HETATM   11  H           1     -34.488   1.223 -15.821  0.00  0.00     0.275 HD
HETATM   12  H           1     -34.001   1.233 -14.185  0.00  0.00     0.275 HD
ENDBRANCH   5   9
ENDBRANCH   2   5
BRANCH   1  13
HETATM   13  C           1     -34.917  -2.397 -12.180  0.00  0.00     0.185 C 
BRANCH  13  14
HETATM   14  C           1     -34.437  -1.883 -10.846  0.00  0.00     0.196 C 
HETATM   15  O           1     -33.223  -1.940 -10.555  0.00  0.00    -0.646 OA
HETATM   16  O           1     -35.253  -1.399 -10.032  0.00  0.00    -0.646 OA
ENDBRANCH  13  14
BRANCH  13  17
HETATM   17  C           1     -34.027  -3.547 -12.633  0.00  0.00     0.039 C 
BRANCH  17  18
HETATM   18 Se           1     -34.577  -5.187 -11.735  0.00  0.00     0.000 Se
HETATM   19  H           1     -33.361  -5.933 -12.100  0.00  0.00     0.000 HD
ENDBRANCH  17  18
ENDBRANCH  13  17
ENDBRANCH   1  13
TORSDOF 8
ENDMDL
MODEL 4
REMARK VINA RESULT:      -4.7      2.727      3.106
REMARK  8 active torsions:
REMARK  status: ('A' for Active; 'I' for Inactive)
REMARK    1  A    between atoms: C_3  and  C_19 
REMARK    2  A    between atoms: N_6  and  C_19 
REMARK       I    between atoms: N_6  and  C_7 
REMARK    3  A    between atoms: C_7  and  C_8 
REMARK    4  A    between atoms: C_8  and  C_9 
REMARK    5  A    between atoms: C_8  and  N_11 
REMARK    6  A    between atoms: C_9  and  Se_10 
REMARK    7  A    between atoms: Se_17  and  C_18 
REMARK    8  A    between atoms: C_18  and  C_19 
ROOT
HETATM    1  N           1     -35.441  -1.995 -12.434  0.00  0.00    -0.345 N 
HETATM    2  C           1     -34.379  -2.733 -11.983  0.00  0.00     0.249 C 
HETATM    3  O           1     -33.613  -2.259 -11.178  0.00  0.00    -0.271 OA
HETATM    4  H           1     -36.083  -2.392 -13.108  0.00  0.00     0.163 HD
ENDROOT
BRANCH   2   5
HETATM    5  C           1     -34.167  -4.138 -12.492  0.00  0.00     0.274 C 
BRANCH   5   6
HETATM    6  C           1     -33.267  -4.897 -11.525  0.00  0.00     0.045 C 
BRANCH   6   7
HETATM    7 Se           1     -34.324  -6.211 -10.548  0.00  0.00     0.000 Se
HETATM    8  H           1     -33.432  -6.229  -9.377  0.00  0.00     0.000 HD
ENDBRANCH   6   7
ENDBRANCH   5   6
BRANCH   5   9
HETATM    9  N           1     -33.517  -4.087 -13.843  0.00  0.00    -0.067 N 
HETATM   10  H           1     -33.540  -5.037 -14.276  0.00  0.00     0.275 HD
HETATM   11  H           1     -34.034  -3.413 -14.452  0.00  0.00     0.275 HD
HETATM   12  H           1     -32.525  -3.775 -13.740  0.00  0.00     0.275 HD
ENDBRANCH   5   9
ENDBRANCH   2   5
BRANCH   1  13
HETATM   13  C           1     -35.645  -0.645 -11.946  0.00  0.00     0.185 C 
BRANCH  13  14
HETATM   14  C           1     -36.584  -0.675 -10.765  0.00  0.00     0.196 C 
HETATM   15  O           1     -36.203  -0.249  -9.654  0.00  0.00    -0.646 OA
HETATM   16  O           1     -37.742  -1.126 -10.899  0.00  0.00    -0.646 OA
ENDBRANCH  13  14
BRANCH  13  17
HETATM   17  C           1     -36.249   0.208 -13.054  0.00  0.00     0.039 C 
BRANCH  17  18
HETATM   18 Se           1     -34.837   0.798 -14.262  0.00  0.00     0.000 Se
HETATM   19  H           1     -35.208   2.222 -14.187  0.00  0.00     0.000 HD
ENDBRANCH  17  18
ENDBRANCH  13  17
ENDBRANCH   1  13
TORSDOF 8
ENDMDL
MODEL 5
REMARK VINA RESULT:      -4.4     12.846     14.081
REMARK  8 active torsions:
REMARK  status: ('A' for Active; 'I' for Inactive)
REMARK    1  A    between atoms: C_3  and  C_19 
REMARK    2  A    between atoms: N_6  and  C_19 
REMARK       I    between atoms: N_6  and  C_7 
REMARK    3  A    between atoms: C_7  and  C_8 
REMARK    4  A    between atoms: C_8  and  C_9 
REMARK    5  A    between atoms: C_8  and  N_11 
REMARK    6  A    between atoms: C_9  and  Se_10 
REMARK    7  A    between atoms: Se_17  and  C_18 
REMARK    8  A    between atoms: C_18  and  C_19 
ROOT
HETATM    1  N           1     -21.873  -3.991  -9.664  0.00  0.00    -0.345 N 
HETATM    2  C           1     -20.651  -4.351  -9.164  0.00  0.00     0.249 C 
HETATM    3  O           1     -19.891  -5.006  -9.838  0.00  0.00    -0.271 OA
HETATM    4  H           1     -22.509  -3.441  -9.101  0.00  0.00     0.163 HD
ENDROOT
BRANCH   2   5
HETATM    5  C           1     -20.252  -3.929  -7.771  0.00  0.00     0.274 C 
BRANCH   5   6
HETATM    6  C           1     -19.686  -5.127  -7.019  0.00  0.00     0.045 C 
BRANCH   6   7
HETATM    7 Se           1     -20.750  -5.454  -5.420  0.00  0.00     0.000 Se
HETATM    8  H           1     -21.430  -6.636  -5.973  0.00  0.00     0.000 HD
ENDBRANCH   6   7
ENDBRANCH   5   6
BRANCH   5   9
HETATM    9  N           1     -21.455  -3.406  -7.044  0.00  0.00    -0.067 N 
HETATM   10  H           1     -21.189  -2.558  -6.495  0.00  0.00     0.275 HD
HETATM   11  H           1     -22.198  -3.155  -7.735  0.00  0.00     0.275 HD
HETATM   12  H           1     -21.817  -4.142  -6.396  0.00  0.00     0.275 HD
ENDBRANCH   5   9
ENDBRANCH   2   5
BRANCH   1  13
HETATM   13  C           1     -22.256  -4.397 -11.003  0.00  0.00     0.185 C 
BRANCH  13  14
HETATM   14  C           1     -22.046  -3.246 -11.956  0.00  0.00     0.196 C 
HETATM   15  O           1     -22.608  -3.249 -13.072  0.00  0.00    -0.646 OA
HETATM   16  O           1     -21.311  -2.289 -11.628  0.00  0.00    -0.646 OA
ENDBRANCH  13  14
BRANCH  13  17
HETATM   17  C           1     -23.725  -4.800 -11.008  0.00  0.00     0.039 C 
BRANCH  17  18
HETATM   18 Se           1     -24.741  -3.572  -9.885  0.00  0.00     0.000 Se
HETATM   19  H           1     -26.049  -3.972 -10.430  0.00  0.00     0.000 HD
ENDBRANCH  17  18
ENDBRANCH  13  17
ENDBRANCH   1  13
TORSDOF 8
ENDMDL
MODEL 6
REMARK VINA RESULT:      -4.3     10.510     11.579
REMARK  8 active torsions:
REMARK  status: ('A' for Active; 'I' for Inactive)
REMARK    1  A    between atoms: C_3  and  C_19 
REMARK    2  A    between atoms: N_6  and  C_19 
REMARK       I    between atoms: N_6  and  C_7 
REMARK    3  A    between atoms: C_7  and  C_8 
REMARK    4  A    between atoms: C_8  and  C_9 
REMARK    5  A    between atoms: C_8  and  N_11 
REMARK    6  A    between atoms: C_9  and  Se_10 
REMARK    7  A    between atoms: Se_17  and  C_18 
REMARK    8  A    between atoms: C_18  and  C_19 
ROOT
HETATM    1  N           1     -26.955  -6.679 -17.688  0.00  0.00    -0.345 N 
HETATM    2  C           1     -26.663  -6.411 -18.998  0.00  0.00     0.249 C 
HETATM    3  O           1     -27.510  -5.946 -19.724  0.00  0.00    -0.271 OA
HETATM    4  H           1     -26.245  -7.067 -17.080  0.00  0.00     0.163 HD
ENDROOT
BRANCH   2   5
HETATM    5  C           1     -25.282  -6.696 -19.536  0.00  0.00     0.274 C 
BRANCH   5   6
HETATM    6  C           1     -25.390  -7.587 -20.767  0.00  0.00     0.045 C 
BRANCH   6   7
HETATM    7 Se           1     -23.613  -8.191 -21.291  0.00  0.00     0.000 Se
HETATM    8  H           1     -24.007  -9.602 -21.429  0.00  0.00     0.000 HD
ENDBRANCH   6   7
ENDBRANCH   5   6
BRANCH   5   9
HETATM    9  N           1     -24.470  -7.392 -18.485  0.00  0.00    -0.067 N 
HETATM   10  H           1     -24.660  -8.419 -18.523  0.00  0.00     0.275 HD
HETATM   11  H           1     -23.455  -7.219 -18.657  0.00  0.00     0.275 HD
HETATM   12  H           1     -24.733  -7.024 -17.542  0.00  0.00     0.275 HD
ENDBRANCH   5   9
ENDBRANCH   2   5
BRANCH   1  13
HETATM   13  C           1     -28.282  -6.405 -17.171  0.00  0.00     0.185 C 
BRANCH  13  14
HETATM   14  C           1     -28.256  -6.462 -15.663  0.00  0.00     0.196 C 
HETATM   15  O           1     -28.669  -5.491 -14.994  0.00  0.00    -0.646 OA
HETATM   16  O           1     -27.820  -7.481 -15.085  0.00  0.00    -0.646 OA
ENDBRANCH  13  14
BRANCH  13  17
HETATM   17  C           1     -29.257  -7.448 -17.702  0.00  0.00     0.039 C 
BRANCH  17  18
HETATM   18 Se           1     -31.083  -6.799 -17.490  0.00  0.00     0.000 Se
HETATM   19  H           1     -30.698  -5.378 -17.460  0.00  0.00     0.000 HD
ENDBRANCH  17  18
ENDBRANCH  13  17
ENDBRANCH   1  13
TORSDOF 8
ENDMDL
MODEL 7
REMARK VINA RESULT:      -4.2     13.445     15.333
REMARK  8 active torsions:
REMARK  status: ('A' for Active; 'I' for Inactive)
REMARK    1  A    between atoms: C_3  and  C_19 
REMARK    2  A    between atoms: N_6  and  C_19 
REMARK       I    between atoms: N_6  and  C_7 
REMARK    3  A    between atoms: C_7  and  C_8 
REMARK    4  A    between atoms: C_8  and  C_9 
REMARK    5  A    between atoms: C_8  and  N_11 
REMARK    6  A    between atoms: C_9  and  Se_10 
REMARK    7  A    between atoms: Se_17  and  C_18 
REMARK    8  A    between atoms: C_18  and  C_19 
ROOT
HETATM    1  N           1     -22.282  -5.425  -7.220  0.00  0.00    -0.345 N 
HETATM    2  C           1     -22.406  -4.243  -7.900  0.00  0.00     0.249 C 
HETATM    3  O           1     -21.869  -3.246  -7.481  0.00  0.00    -0.271 OA
HETATM    4  H           1     -22.731  -6.261  -7.571  0.00  0.00     0.163 HD
ENDROOT
BRANCH   2   5
HETATM    5  C           1     -23.213  -4.188  -9.174  0.00  0.00     0.274 C 
BRANCH   5   6
HETATM    6  C           1     -22.371  -3.568 -10.283  0.00  0.00     0.045 C 
BRANCH   6   7
HETATM    7 Se           1     -23.521  -3.085 -11.779  0.00  0.00     0.000 Se
HETATM    8  H           1     -24.733  -3.677 -11.190  0.00  0.00     0.000 HD
ENDBRANCH   6   7
ENDBRANCH   5   6
BRANCH   5   9
HETATM    9  N           1     -24.439  -3.353  -8.952  0.00  0.00    -0.067 N 
HETATM   10  H           1     -24.284  -2.717  -8.137  0.00  0.00     0.275 HD
HETATM   11  H           1     -24.632  -2.783  -9.806  0.00  0.00     0.275 HD
HETATM   12  H           1     -25.255  -3.977  -8.757  0.00  0.00     0.275 HD
ENDBRANCH   5   9
ENDBRANCH   2   5
BRANCH   1  13
HETATM   13  C           1     -21.506  -5.478  -5.996  0.00  0.00     0.185 C 
BRANCH  13  14
HETATM   14  C           1     -20.061  -5.761  -6.329  0.00  0.00     0.196 C 
HETATM   15  O           1     -19.222  -4.836  -6.299  0.00  0.00    -0.646 OA
HETATM   16  O           1     -19.706  -6.920  -6.634  0.00  0.00    -0.646 OA
ENDBRANCH  13  14
BRANCH  13  17
HETATM   17  C           1     -22.047  -6.586  -5.101  0.00  0.00     0.039 C 
BRANCH  17  18
HETATM   18 Se           1     -21.448  -6.293  -3.270  0.00  0.00     0.000 Se
HETATM   19  H           1     -22.766  -6.564  -2.672  0.00  0.00     0.000 HD
ENDBRANCH  17  18
ENDBRANCH  13  17
ENDBRANCH   1  13
TORSDOF 8
ENDMDL
MODEL 8
REMARK VINA RESULT:      -4.1      2.374      4.829
REMARK  8 active torsions:
REMARK  status: ('A' for Active; 'I' for Inactive)
REMARK    1  A    between atoms: C_3  and  C_19 
REMARK    2  A    between atoms: N_6  and  C_19 
REMARK       I    between atoms: N_6  and  C_7 
REMARK    3  A    between atoms: C_7  and  C_8 
REMARK    4  A    between atoms: C_8  and  C_9 
REMARK    5  A    between atoms: C_8  and  N_11 
REMARK    6  A    between atoms: C_9  and  Se_10 
REMARK    7  A    between atoms: Se_17  and  C_18 
REMARK    8  A    between atoms: C_18  and  C_19 
ROOT
HETATM    1  N           1     -35.689  -2.714 -11.450  0.00  0.00    -0.345 N 
HETATM    2  C           1     -35.651  -1.547 -10.735  0.00  0.00     0.249 C 
HETATM    3  O           1     -34.801  -1.382  -9.893  0.00  0.00    -0.271 OA
HETATM    4  H           1     -36.401  -2.852 -12.156  0.00  0.00     0.163 HD
ENDROOT
BRANCH   2   5
HETATM    5  C           1     -36.671  -0.467 -11.000  0.00  0.00     0.274 C 
BRANCH   5   6
HETATM    6  C           1     -36.741  -0.191 -12.497  0.00  0.00     0.045 C 
BRANCH   6   7
HETATM    7 Se           1     -35.008   0.441 -13.125  0.00  0.00     0.000 Se
HETATM    8  H           1     -35.481   1.803 -13.420  0.00  0.00     0.000 HD
ENDBRANCH   6   7
ENDBRANCH   5   6
BRANCH   5   9
HETATM    9  N           1     -36.269   0.786 -10.280  0.00  0.00    -0.067 N 
HETATM   10  H           1     -35.677   1.374 -10.909  0.00  0.00     0.275 HD
HETATM   11  H           1     -37.124   1.321 -10.008  0.00  0.00     0.275 HD
HETATM   12  H           1     -35.725   0.536  -9.423  0.00  0.00     0.275 HD
ENDBRANCH   5   9
ENDBRANCH   2   5
BRANCH   1  13
HETATM   13  C           1     -34.710  -3.753 -11.195  0.00  0.00     0.185 C 
BRANCH  13  14
HETATM   14  C           1     -33.604  -3.661 -12.217  0.00  0.00     0.196 C 
HETATM   15  O           1     -32.410  -3.712 -11.852  0.00  0.00    -0.646 OA
HETATM   16  O           1     -33.882  -3.536 -13.429  0.00  0.00    -0.646 OA
ENDBRANCH  13  14
BRANCH  13  17
HETATM   17  C           1     -35.381  -5.117 -11.292  0.00  0.00     0.039 C 
BRANCH  17  18
HETATM   18 Se           1     -34.230  -6.466 -10.485  0.00  0.00     0.000 Se
HETATM   19  H           1     -34.262  -7.361 -11.654  0.00  0.00     0.000 HD
ENDBRANCH  17  18
ENDBRANCH  13  17
ENDBRANCH   1  13
TORSDOF 8
ENDMDL
MODEL 9
REMARK VINA RESULT:      -4.0     15.272     17.190
REMARK  8 active torsions:
REMARK  status: ('A' for Active; 'I' for Inactive)
REMARK    1  A    between atoms: C_3  and  C_19 
REMARK    2  A    between atoms: N_6  and  C_19 
REMARK       I    between atoms: N_6  and  C_7 
REMARK    3  A    between atoms: C_7  and  C_8 
REMARK    4  A    between atoms: C_8  and  C_9 
REMARK    5  A    between atoms: C_8  and  N_11 
REMARK    6  A    between atoms: C_9  and  Se_10 
REMARK    7  A    between atoms: Se_17  and  C_18 
REMARK    8  A    between atoms: C_18  and  C_19 
ROOT
HETATM    1  N           1     -20.837  -6.685  -4.833  0.00  0.00    -0.345 N 
HETATM    2  C           1     -21.403  -5.772  -5.682  0.00  0.00     0.249 C 
HETATM    3  O           1     -22.602  -5.617  -5.692  0.00  0.00    -0.271 OA
HETATM    4  H           1     -19.834  -6.814  -4.824  0.00  0.00     0.163 HD
ENDROOT
BRANCH   2   5
HETATM    5  C           1     -20.530  -4.960  -6.607  0.00  0.00     0.274 C 
BRANCH   5   6
HETATM    6  C           1     -21.350  -3.829  -7.217  0.00  0.00     0.045 C 
BRANCH   6   7
HETATM    7 Se           1     -21.856  -4.303  -9.038  0.00  0.00     0.000 Se
HETATM    8  H           1     -22.625  -5.493  -8.639  0.00  0.00     0.000 HD
ENDBRANCH   6   7
ENDBRANCH   5   6
BRANCH   5   9
HETATM    9  N           1     -20.004  -5.842  -7.700  0.00  0.00    -0.067 N 
HETATM   10  H           1     -20.123  -5.363  -8.621  0.00  0.00     0.275 HD
HETATM   11  H           1     -18.990  -6.033  -7.535  0.00  0.00     0.275 HD
HETATM   12  H           1     -20.534  -6.743  -7.705  0.00  0.00     0.275 HD
ENDBRANCH   5   9
ENDBRANCH   2   5
BRANCH   1  13
HETATM   13  C           1     -21.677  -7.465  -3.944  0.00  0.00     0.185 C 
BRANCH  13  14
HETATM   14  C           1     -21.611  -6.886  -2.553  0.00  0.00     0.196 C 
HETATM   15  O           1     -20.833  -7.378  -1.708  0.00  0.00    -0.646 OA
HETATM   16  O           1     -22.334  -5.913  -2.246  0.00  0.00    -0.646 OA
ENDBRANCH  13  14
BRANCH  13  17
HETATM   17  C           1     -21.184  -8.906  -3.919  0.00  0.00     0.039 C 
BRANCH  17  18
HETATM   18 Se           1     -19.419  -9.004  -4.740  0.00  0.00     0.000 Se
HETATM   19  H           1     -18.815  -9.758  -3.629  0.00  0.00     0.000 HD
ENDBRANCH  17  18
ENDBRANCH  13  17
ENDBRANCH   1  13
TORSDOF 8
ENDMDL
