MODEL 1
REMARK VINA RESULT:      -5.9      0.000      0.000
REMARK  6 active torsions:
REMARK  status: ('A' for Active; 'I' for Inactive)
REMARK    1  A    between atoms: C_1  and  C_15 
REMARK    2  A    between atoms: C_1  and  C_11 
REMARK    3  A    between atoms: C_1  and  N_3 
REMARK       I    between atoms: N_3  and  C_12 
REMARK    4  A    between atoms: C_5  and  C_15 
REMARK    5  A    between atoms: N_8  and  C_9 
REMARK    6  A    between atoms: C_9  and  C_12 
ROOT
HETATM    1  N           1     -35.029  -0.649 -12.100  0.00  0.00    -0.345 N 
HETATM    2  O           1     -36.414  -0.712 -13.850  0.00  0.00    -0.272 OA
HETATM    3  C           1     -35.429  -0.232 -13.341  0.00  0.00     0.243 C 
HETATM    4  H           1     -34.204  -0.248 -11.673  0.00  0.00     0.163 HD
ENDROOT
BRANCH   1   5
HETATM    5  C           1     -35.786  -1.667 -11.397  0.00  0.00     0.189 C 
BRANCH   5   6
HETATM    6  C           1     -34.829  -2.579 -10.641  0.00  0.00     0.014 C 
HETATM    7  C           1     -35.213  -4.032 -10.887  0.00  0.00     0.012 C 
BRANCH   6   8
HETATM    8  C           1     -33.407  -2.340 -11.132  0.00  0.00     0.002 C 
HETATM    9  C           1     -32.813  -3.651 -11.630  0.00  0.00     0.005 C 
ENDBRANCH   6   8
ENDBRANCH   5   6
BRANCH   5  10
HETATM   10  C           1     -36.729  -1.007 -10.421  0.00  0.00     0.197 C 
HETATM   11  O           1     -37.949  -0.935 -10.682  0.00  0.00    -0.646 OA
HETATM   12  O           1     -36.289  -0.532  -9.351  0.00  0.00    -0.646 OA
ENDBRANCH   5  10
ENDBRANCH   1   5
BRANCH   3  13
HETATM   13  C           1     -34.642   0.827 -14.072  0.00  0.00     0.332 C 
BRANCH  13  14
HETATM   14  N           1     -35.552   1.577 -14.999  0.00  0.00    -0.071 N 
HETATM   15  H           1     -36.541   1.473 -14.677  0.00  0.00     0.274 HD
HETATM   16  H           1     -35.291   2.589 -15.000  0.00  0.00     0.274 HD
HETATM   17  H           1     -35.458   1.191 -15.966  0.00  0.00     0.274 HD
ENDBRANCH  13  14
ENDBRANCH   3  13
TORSDOF 6
ENDMDL
MODEL 2
REMARK VINA RESULT:      -5.7     11.373     12.495
REMARK  6 active torsions:
REMARK  status: ('A' for Active; 'I' for Inactive)
REMARK    1  A    between atoms: C_1  and  C_15 
REMARK    2  A    between atoms: C_1  and  C_11 
REMARK    3  A    between atoms: C_1  and  N_3 
REMARK       I    between atoms: N_3  and  C_12 
REMARK    4  A    between atoms: C_5  and  C_15 
REMARK    5  A    between atoms: N_8  and  C_9 
REMARK    6  A    between atoms: C_9  and  C_12 
ROOT
HETATM    1  N           1     -23.452  -2.550 -11.960  0.00  0.00    -0.345 N 
HETATM    2  O           1     -24.160  -3.873 -13.613  0.00  0.00    -0.272 OA
HETATM    3  C           1     -23.893  -2.756 -13.240  0.00  0.00     0.243 C 
HETATM    4  H           1     -23.228  -1.614 -11.647  0.00  0.00     0.163 HD
ENDROOT
BRANCH   1   5
HETATM    5  C           1     -23.304  -3.672 -11.054  0.00  0.00     0.189 C 
BRANCH   5   6
HETATM    6  C           1     -22.038  -3.493 -10.227  0.00  0.00     0.014 C 
HETATM    7  C           1     -21.997  -4.547  -9.129  0.00  0.00     0.012 C 
BRANCH   6   8
HETATM    8  C           1     -20.819  -3.649 -11.127  0.00  0.00     0.002 C 
HETATM    9  C           1     -19.897  -4.717 -10.553  0.00  0.00     0.005 C 
ENDBRANCH   6   8
ENDBRANCH   5   6
BRANCH   5  10
HETATM   10  C           1     -24.500  -3.737 -10.136  0.00  0.00     0.197 C 
HETATM   11  O           1     -24.956  -2.690  -9.628  0.00  0.00    -0.646 OA
HETATM   12  O           1     -25.035  -4.838  -9.884  0.00  0.00    -0.646 OA
ENDBRANCH   5  10
ENDBRANCH   1   5
BRANCH   3  13
HETATM   13  C           1     -24.046  -1.588 -14.182  0.00  0.00     0.332 C 
BRANCH  13  14
HETATM   14  N           1     -23.077  -1.732 -15.319  0.00  0.00    -0.071 N 
HETATM   15  H           1     -22.459  -0.889 -15.360  0.00  0.00     0.274 HD
HETATM   16  H           1     -22.494  -2.585 -15.174  0.00  0.00     0.274 HD
HETATM   17  H           1     -23.606  -1.818 -16.217  0.00  0.00     0.274 HD
ENDBRANCH  13  14
ENDBRANCH   3  13
TORSDOF 6
ENDMDL
MODEL 3
REMARK VINA RESULT:      -5.5     11.509     12.719
REMARK  6 active torsions:
REMARK  status: ('A' for Active; 'I' for Inactive)
REMARK    1  A    between atoms: C_1  and  C_15 
REMARK    2  A    between atoms: C_1  and  C_11 
REMARK    3  A    between atoms: C_1  and  N_3 
REMARK       I    between atoms: N_3  and  C_12 
REMARK    4  A    between atoms: C_5  and  C_15 
REMARK    5  A    between atoms: N_8  and  C_9 
REMARK    6  A    between atoms: C_9  and  C_12 
ROOT
HETATM    1  N           1     -23.172  -2.059 -13.454  0.00  0.00    -0.345 N 
HETATM    2  O           1     -22.562  -2.852 -15.450  0.00  0.00    -0.272 OA
HETATM    3  C           1     -23.042  -1.946 -14.812  0.00  0.00     0.243 C 
HETATM    4  H           1     -23.574  -1.300 -12.919  0.00  0.00     0.163 HD
ENDROOT
BRANCH   1   5
HETATM    5  C           1     -22.732  -3.266 -12.782  0.00  0.00     0.189 C 
BRANCH   5   6
HETATM    6  C           1     -21.949  -2.893 -11.530  0.00  0.00     0.014 C 
HETATM    7  C           1     -22.811  -3.147 -10.300  0.00  0.00     0.012 C 
BRANCH   6   8
HETATM    8  C           1     -20.687  -3.742 -11.450  0.00  0.00     0.002 C 
HETATM    9  C           1     -20.575  -4.359 -10.062  0.00  0.00     0.005 C 
ENDBRANCH   6   8
ENDBRANCH   5   6
BRANCH   5  10
HETATM   10  C           1     -23.936  -4.092 -12.395  0.00  0.00     0.197 C 
HETATM   11  O           1     -25.085  -3.614 -12.508  0.00  0.00    -0.646 OA
HETATM   12  O           1     -23.782  -5.255 -11.962  0.00  0.00    -0.646 OA
ENDBRANCH   5  10
ENDBRANCH   1   5
BRANCH   3  13
HETATM   13  C           1     -23.499  -0.690 -15.511  0.00  0.00     0.332 C 
BRANCH  13  14
HETATM   14  N           1     -24.704  -0.136 -14.809  0.00  0.00    -0.071 N 
HETATM   15  H           1     -25.369  -0.913 -14.593  0.00  0.00     0.274 HD
HETATM   16  H           1     -24.407   0.327 -13.921  0.00  0.00     0.274 HD
HETATM   17  H           1     -25.176   0.564 -15.427  0.00  0.00     0.274 HD
ENDBRANCH  13  14
ENDBRANCH   3  13
TORSDOF 6
ENDMDL
MODEL 4
REMARK VINA RESULT:      -5.4     12.264     14.155
REMARK  6 active torsions:
REMARK  status: ('A' for Active; 'I' for Inactive)
REMARK    1  A    between atoms: C_1  and  C_15 
REMARK    2  A    between atoms: C_1  and  C_11 
REMARK    3  A    between atoms: C_1  and  N_3 
REMARK       I    between atoms: N_3  and  C_12 
REMARK    4  A    between atoms: C_5  and  C_15 
REMARK    5  A    between atoms: N_8  and  C_9 
REMARK    6  A    between atoms: C_9  and  C_12 
ROOT
HETATM    1  N           1     -22.370  -4.864  -8.835  0.00  0.00    -0.345 N 
HETATM    2  O           1     -21.632  -3.294  -7.430  0.00  0.00    -0.272 OA
HETATM    3  C           1     -21.756  -4.470  -7.676  0.00  0.00     0.243 C 
HETATM    4  H           1     -22.475  -5.850  -9.042  0.00  0.00     0.163 HD
ENDROOT
BRANCH   1   5
HETATM    5  C           1     -22.870  -3.871  -9.766  0.00  0.00     0.189 C 
BRANCH   5   6
HETATM    6  C           1     -22.424  -4.230 -11.178  0.00  0.00     0.014 C 
HETATM    7  C           1     -22.911  -3.163 -12.149  0.00  0.00     0.012 C 
BRANCH   6   8
HETATM    8  C           1     -20.904  -4.305 -11.225  0.00  0.00     0.002 C 
HETATM    9  C           1     -20.322  -2.900 -11.136  0.00  0.00     0.005 C 
ENDBRANCH   6   8
ENDBRANCH   5   6
BRANCH   5  10
HETATM   10  C           1     -24.377  -3.841  -9.707  0.00  0.00     0.197 C 
HETATM   11  O           1     -25.031  -4.894  -9.872  0.00  0.00    -0.646 OA
HETATM   12  O           1     -24.973  -2.763  -9.492  0.00  0.00    -0.646 OA
ENDBRANCH   5  10
ENDBRANCH   1   5
BRANCH   3  13
HETATM   13  C           1     -21.237  -5.503  -6.708  0.00  0.00     0.332 C 
BRANCH  13  14
HETATM   14  N           1     -20.076  -6.227  -7.325  0.00  0.00    -0.071 N 
HETATM   15  H           1     -20.428  -7.039  -7.883  0.00  0.00     0.274 HD
HETATM   16  H           1     -19.551  -5.576  -7.950  0.00  0.00     0.274 HD
HETATM   17  H           1     -19.442  -6.574  -6.569  0.00  0.00     0.274 HD
ENDBRANCH  13  14
ENDBRANCH   3  13
TORSDOF 6
ENDMDL
MODEL 5
REMARK VINA RESULT:      -5.3      3.257      3.998
REMARK  6 active torsions:
REMARK  status: ('A' for Active; 'I' for Inactive)
REMARK    1  A    between atoms: C_1  and  C_15 
REMARK    2  A    between atoms: C_1  and  C_11 
REMARK    3  A    between atoms: C_1  and  N_3 
REMARK       I    between atoms: N_3  and  C_12 
REMARK    4  A    between atoms: C_5  and  C_15 
REMARK    5  A    between atoms: N_8  and  C_9 
REMARK    6  A    between atoms: C_9  and  C_12 
ROOT
HETATM    1  N           1     -33.526  -3.850 -14.062  0.00  0.00    -0.345 N 
HETATM    2  O           1     -35.025  -5.087 -15.162  0.00  0.00    -0.272 OA
HETATM    3  C           1     -33.967  -4.505 -15.181  0.00  0.00     0.243 C 
HETATM    4  H           1     -32.639  -3.363 -14.077  0.00  0.00     0.163 HD
ENDROOT
BRANCH   1   5
HETATM    5  C           1     -34.329  -3.856 -12.854  0.00  0.00     0.189 C 
BRANCH   5   6
HETATM    6  C           1     -33.428  -4.077 -11.647  0.00  0.00     0.014 C 
HETATM    7  C           1     -33.013  -2.730 -11.072  0.00  0.00     0.012 C 
BRANCH   6   8
HETATM    8  C           1     -34.183  -4.870 -10.589  0.00  0.00     0.002 C 
HETATM    9  C           1     -34.012  -6.361 -10.851  0.00  0.00     0.005 C 
ENDBRANCH   6   8
ENDBRANCH   5   6
BRANCH   5  10
HETATM   10  C           1     -35.038  -2.531 -12.717  0.00  0.00     0.197 C 
HETATM   11  O           1     -35.985  -2.409 -11.910  0.00  0.00    -0.646 OA
HETATM   12  O           1     -34.678  -1.555 -13.410  0.00  0.00    -0.646 OA
ENDBRANCH   5  10
ENDBRANCH   1   5
BRANCH   3  13
HETATM   13  C           1     -33.131  -4.499 -16.436  0.00  0.00     0.332 C 
BRANCH  13  14
HETATM   14  N           1     -33.443  -3.272 -17.240  0.00  0.00    -0.071 N 
HETATM   15  H           1     -32.902  -2.460 -16.863  0.00  0.00     0.274 HD
HETATM   16  H           1     -33.180  -3.432 -18.238  0.00  0.00     0.274 HD
HETATM   17  H           1     -34.467  -3.066 -17.177  0.00  0.00     0.274 HD
ENDBRANCH  13  14
ENDBRANCH   3  13
TORSDOF 6
ENDMDL
MODEL 6
REMARK VINA RESULT:      -5.1      1.824      4.087
REMARK  6 active torsions:
REMARK  status: ('A' for Active; 'I' for Inactive)
REMARK    1  A    between atoms: C_1  and  C_15 
REMARK    2  A    between atoms: C_1  and  C_11 
REMARK    3  A    between atoms: C_1  and  N_3 
REMARK       I    between atoms: N_3  and  C_12 
REMARK    4  A    between atoms: C_5  and  C_15 
REMARK    5  A    between atoms: N_8  and  C_9 
REMARK    6  A    between atoms: C_9  and  C_12 
ROOT
HETATM    1  N           1     -35.205  -1.751 -12.374  0.00  0.00    -0.345 N 
HETATM    2  O           1     -33.515  -1.811 -10.915  0.00  0.00    -0.272 OA
HETATM    3  C           1     -34.182  -2.398 -11.733  0.00  0.00     0.243 C 
HETATM    4  H           1     -35.764  -2.242 -13.060  0.00  0.00     0.163 HD
ENDROOT
BRANCH   1   5
HETATM    5  C           1     -35.486  -0.361 -12.071  0.00  0.00     0.189 C 
BRANCH   5   6
HETATM    6  C           1     -35.832   0.378 -13.357  0.00  0.00     0.014 C 
HETATM    7  C           1     -34.616   1.159 -13.836  0.00  0.00     0.012 C 
BRANCH   6   8
HETATM    8  C           1     -36.242  -0.628 -14.424  0.00  0.00     0.002 C 
HETATM    9  C           1     -35.693  -0.189 -15.775  0.00  0.00     0.005 C 
ENDBRANCH   6   8
ENDBRANCH   5   6
BRANCH   5  10
HETATM   10  C           1     -36.651  -0.281 -11.116  0.00  0.00     0.197 C 
HETATM   11  O           1     -36.636   0.546 -10.179  0.00  0.00    -0.646 OA
HETATM   12  O           1     -37.632  -1.043 -11.261  0.00  0.00    -0.646 OA
ENDBRANCH   5  10
ENDBRANCH   1   5
BRANCH   3  13
HETATM   13  C           1     -33.890  -3.844 -12.049  0.00  0.00     0.332 C 
BRANCH  13  14
HETATM   14  N           1     -33.725  -4.010 -13.531  0.00  0.00    -0.071 N 
HETATM   15  H           1     -34.647  -4.255 -13.959  0.00  0.00     0.274 HD
HETATM   16  H           1     -33.376  -3.117 -13.944  0.00  0.00     0.274 HD
HETATM   17  H           1     -33.039  -4.775 -13.721  0.00  0.00     0.274 HD
ENDBRANCH  13  14
ENDBRANCH   3  13
TORSDOF 6
ENDMDL
MODEL 7
REMARK VINA RESULT:      -5.1      1.582      2.174
REMARK  6 active torsions:
REMARK  status: ('A' for Active; 'I' for Inactive)
REMARK    1  A    between atoms: C_1  and  C_15 
REMARK    2  A    between atoms: C_1  and  C_11 
REMARK    3  A    between atoms: C_1  and  N_3 
REMARK       I    between atoms: N_3  and  C_12 
REMARK    4  A    between atoms: C_5  and  C_15 
REMARK    5  A    between atoms: N_8  and  C_9 
REMARK    6  A    between atoms: C_9  and  C_12 
ROOT
HETATM    1  N           1     -34.827  -1.828 -13.156  0.00  0.00    -0.345 N 
HETATM    2  O           1     -36.866  -0.925 -13.268  0.00  0.00    -0.272 OA
HETATM    3  C           1     -35.765  -1.031 -13.755  0.00  0.00     0.243 C 
HETATM    4  H           1     -33.905  -1.918 -13.563  0.00  0.00     0.163 HD
ENDROOT
BRANCH   1   5
HETATM    5  C           1     -35.155  -2.546 -11.940  0.00  0.00     0.189 C 
BRANCH   5   6
HETATM    6  C           1     -34.573  -3.952 -12.008  0.00  0.00     0.014 C 
HETATM    7  C           1     -33.058  -3.866 -12.142  0.00  0.00     0.012 C 
BRANCH   6   8
HETATM    8  C           1     -34.928  -4.710 -10.736  0.00  0.00     0.002 C 
HETATM    9  C           1     -34.061  -5.957 -10.627  0.00  0.00     0.005 C 
ENDBRANCH   6   8
ENDBRANCH   5   6
BRANCH   5  10
HETATM   10  C           1     -34.571  -1.817 -10.754  0.00  0.00     0.197 C 
HETATM   11  O           1     -35.326  -1.341  -9.879  0.00  0.00    -0.646 OA
HETATM   12  O           1     -33.332  -1.689 -10.647  0.00  0.00    -0.646 OA
ENDBRANCH   5  10
ENDBRANCH   1   5
BRANCH   3  13
HETATM   13  C           1     -35.424  -0.285 -15.021  0.00  0.00     0.332 C 
BRANCH  13  14
HETATM   14  N           1     -34.344   0.717 -14.736  0.00  0.00    -0.071 N 
HETATM   15  H           1     -34.735   1.498 -14.160  0.00  0.00     0.274 HD
HETATM   16  H           1     -33.568   0.253 -14.213  0.00  0.00     0.274 HD
HETATM   17  H           1     -33.979   1.100 -15.637  0.00  0.00     0.274 HD
ENDBRANCH  13  14
ENDBRANCH   3  13
TORSDOF 6
ENDMDL
MODEL 8
REMARK VINA RESULT:      -5.0     12.203     13.677
REMARK  6 active torsions:
REMARK  status: ('A' for Active; 'I' for Inactive)
REMARK    1  A    between atoms: C_1  and  C_15 
REMARK    2  A    between atoms: C_1  and  C_11 
REMARK    3  A    between atoms: C_1  and  N_3 
REMARK       I    between atoms: N_3  and  C_12 
REMARK    4  A    between atoms: C_5  and  C_15 
REMARK    5  A    between atoms: N_8  and  C_9 
REMARK    6  A    between atoms: C_9  and  C_12 
ROOT
HETATM    1  N           1     -22.482  -4.135 -11.885  0.00  0.00    -0.345 N 
HETATM    2  O           1     -22.769  -1.950 -12.246  0.00  0.00    -0.272 OA
HETATM    3  C           1     -22.864  -3.078 -12.668  0.00  0.00     0.243 C 
HETATM    4  H           1     -22.563  -5.080 -12.237  0.00  0.00     0.163 HD
ENDROOT
BRANCH   1   5
HETATM    5  C           1     -21.965  -3.900 -10.551  0.00  0.00     0.189 C 
BRANCH   5   6
HETATM    6  C           1     -22.797  -4.677  -9.540  0.00  0.00     0.014 C 
HETATM    7  C           1     -22.699  -4.003  -8.178  0.00  0.00     0.012 C 
BRANCH   6   8
HETATM    8  C           1     -24.251  -4.701  -9.992  0.00  0.00     0.002 C 
HETATM    9  C           1     -24.929  -3.397  -9.592  0.00  0.00     0.005 C 
ENDBRANCH   6   8
ENDBRANCH   5   6
BRANCH   5  10
HETATM   10  C           1     -20.529  -4.361 -10.482  0.00  0.00     0.197 C 
HETATM   11  O           1     -20.121  -4.987  -9.481  0.00  0.00    -0.646 OA
HETATM   12  O           1     -19.748  -4.117 -11.428  0.00  0.00    -0.646 OA
ENDBRANCH   5  10
ENDBRANCH   1   5
BRANCH   3  13
HETATM   13  C           1     -23.404  -3.323 -14.055  0.00  0.00     0.332 C 
BRANCH  13  14
HETATM   14  N           1     -22.382  -2.904 -15.070  0.00  0.00    -0.071 N 
HETATM   15  H           1     -22.794  -2.971 -16.029  0.00  0.00     0.274 HD
HETATM   16  H           1     -22.089  -1.919 -14.885  0.00  0.00     0.274 HD
HETATM   17  H           1     -21.549  -3.534 -15.006  0.00  0.00     0.274 HD
ENDBRANCH  13  14
ENDBRANCH   3  13
TORSDOF 6
ENDMDL
MODEL 9
REMARK VINA RESULT:      -4.8     13.306     15.210
REMARK  6 active torsions:
REMARK  status: ('A' for Active; 'I' for Inactive)
REMARK    1  A    between atoms: C_1  and  C_15 
REMARK    2  A    between atoms: C_1  and  C_11 
REMARK    3  A    between atoms: C_1  and  N_3 
REMARK       I    between atoms: N_3  and  C_12 
REMARK    4  A    between atoms: C_5  and  C_15 
REMARK    5  A    between atoms: N_8  and  C_9 
REMARK    6  A    between atoms: C_9  and  C_12 
ROOT
HETATM    1  N           1     -21.304  -4.085  -8.372  0.00  0.00    -0.345 N 
HETATM    2  O           1     -20.725  -6.130  -7.688  0.00  0.00    -0.272 OA
HETATM    3  C           1     -20.870  -4.963  -7.415  0.00  0.00     0.243 C 
HETATM    4  H           1     -21.426  -3.107  -8.143  0.00  0.00     0.163 HD
ENDROOT
BRANCH   1   5
HETATM    5  C           1     -21.590  -4.557  -9.713  0.00  0.00     0.189 C 
BRANCH   5   6
HETATM    6  C           1     -22.855  -3.885 -10.228  0.00  0.00     0.014 C 
HETATM    7  C           1     -23.462  -4.732 -11.339  0.00  0.00     0.012 C 
BRANCH   6   8
HETATM    8  C           1     -23.856  -3.748  -9.089  0.00  0.00     0.002 C 
HETATM    9  C           1     -25.161  -3.172  -9.624  0.00  0.00     0.005 C 
ENDBRANCH   6   8
ENDBRANCH   5   6
BRANCH   5  10
HETATM   10  C           1     -20.433  -4.217 -10.621  0.00  0.00     0.197 C 
HETATM   11  O           1     -19.503  -5.035 -10.784  0.00  0.00    -0.646 OA
HETATM   12  O           1     -20.406  -3.115 -11.212  0.00  0.00    -0.646 OA
ENDBRANCH   5  10
ENDBRANCH   1   5
BRANCH   3  13
HETATM   13  C           1     -20.574  -4.471  -6.020  0.00  0.00     0.332 C 
BRANCH  13  14
HETATM   14  N           1     -20.818  -5.578  -5.037  0.00  0.00    -0.071 N 
HETATM   15  H           1     -19.903  -5.929  -4.671  0.00  0.00     0.274 HD
HETATM   16  H           1     -21.395  -5.219  -4.244  0.00  0.00     0.274 HD
HETATM   17  H           1     -21.325  -6.360  -5.512  0.00  0.00     0.274 HD
ENDBRANCH  13  14
ENDBRANCH   3  13
TORSDOF 6
ENDMDL
