MODEL 1
REMARK VINA RESULT:      -6.4      0.000      0.000
REMARK  11 active torsions:
REMARK  status: ('A' for Active; 'I' for Inactive)
REMARK    1  A    between atoms: C_3  and  C_4 
REMARK    2  A    between atoms: C_3  and  C_21 
REMARK    3  A    between atoms: C_4  and  C_5 
REMARK    4  A    between atoms: C_4  and  N_14 
REMARK       I    between atoms: C_5  and  N_6 
REMARK    5  A    between atoms: N_6  and  C_22 
REMARK    6  A    between atoms: S_8  and  C_21 
REMARK    7  A    between atoms: C_9  and  C_22 
REMARK    8  A    between atoms: C_9  and  O_19 
REMARK    9  A    between atoms: C_15  and  C_22 
REMARK   10  A    between atoms: P_18  and  O_19 
REMARK   11  A    between atoms: P_18  and  O_23 
ROOT
HETATM    1  C           1     -21.611  -4.387  -8.189  0.00  0.00     0.249 C 
HETATM    2  N           1     -21.960  -4.622  -9.492  0.00  0.00    -0.343 N 
HETATM    3  H           1     -21.717  -5.500  -9.931  0.00  0.00     0.163 HD
HETATM    4  O           1     -21.901  -3.338  -7.665  0.00  0.00    -0.271 OA
ENDROOT
BRANCH   2   5
HETATM    5  C           1     -22.678  -3.609 -10.243  0.00  0.00     0.210 C 
BRANCH   5   6
HETATM    6  C           1     -22.330  -3.732 -11.720  0.00  0.00     0.217 C 
BRANCH   6   7
HETATM    7  O           1     -22.692  -2.552 -12.385  0.00  0.00    -0.287 OA
BRANCH   7   8
HETATM    8  P           1     -23.550  -2.740 -13.741  0.00  0.00     0.406 P 
HETATM    9  O           1     -24.367  -3.970 -13.642  0.00  0.00    -0.624 OA
HETATM   10  O           1     -22.630  -2.850 -14.895  0.00  0.00    -0.624 OA
BRANCH   8  11
HETATM   11  O           1     -24.520  -1.464 -13.945  0.00  0.00    -0.300 OA
HETATM   12  H           1     -25.004  -1.649 -14.731  0.00  0.00     0.223 HD
ENDBRANCH   8  11
ENDBRANCH   7   8
ENDBRANCH   6   7
ENDBRANCH   5   6
BRANCH   5  13
HETATM   13  C           1     -24.162  -3.805 -10.057  0.00  0.00     0.198 C 
HETATM   14  O           1     -24.901  -2.819  -9.843  0.00  0.00    -0.646 OA
HETATM   15  O           1     -24.655  -4.953 -10.116  0.00  0.00    -0.646 OA
ENDBRANCH   5  13
ENDBRANCH   2   5
BRANCH   1  16
HETATM   16  C           1     -20.864  -5.440  -7.407  0.00  0.00     0.275 C 
BRANCH  16  17
HETATM   17  C           1     -21.676  -5.834  -6.180  0.00  0.00     0.053 C 
BRANCH  17  18
HETATM   18  C           1     -20.858  -5.572  -4.923  0.00  0.00     0.076 C 
BRANCH  18  19
HETATM   19  S           1     -21.266  -6.814  -3.664  0.00  0.00    -0.173 SA
HETATM   20  C           1     -21.523  -8.191  -4.819  0.00  0.00     0.089 C 
ENDBRANCH  18  19
ENDBRANCH  17  18
ENDBRANCH  16  17
BRANCH  16  21
HETATM   21  N           1     -19.537  -4.891  -6.972  0.00  0.00    -0.066 N 
HETATM   22  H           1     -19.403  -3.939  -7.382  0.00  0.00     0.275 HD
HETATM   23  H           1     -18.773  -5.523  -7.303  0.00  0.00     0.275 HD
HETATM   24  H           1     -19.511  -4.829  -5.929  0.00  0.00     0.275 HD
ENDBRANCH  16  21
ENDBRANCH   1  16
TORSDOF 11
ENDMDL
MODEL 2
REMARK VINA RESULT:      -5.5      2.651      4.160
REMARK  11 active torsions:
REMARK  status: ('A' for Active; 'I' for Inactive)
REMARK    1  A    between atoms: C_3  and  C_4 
REMARK    2  A    between atoms: C_3  and  C_21 
REMARK    3  A    between atoms: C_4  and  C_5 
REMARK    4  A    between atoms: C_4  and  N_14 
REMARK       I    between atoms: C_5  and  N_6 
REMARK    5  A    between atoms: N_6  and  C_22 
REMARK    6  A    between atoms: S_8  and  C_21 
REMARK    7  A    between atoms: C_9  and  C_22 
REMARK    8  A    between atoms: C_9  and  O_19 
REMARK    9  A    between atoms: C_15  and  C_22 
REMARK   10  A    between atoms: P_18  and  O_19 
REMARK   11  A    between atoms: P_18  and  O_23 
ROOT
HETATM    1  C           1     -21.137  -6.457  -5.832  0.00  0.00     0.249 C 
HETATM    2  N           1     -21.213  -5.184  -6.328  0.00  0.00    -0.343 N 
HETATM    3  H           1     -21.148  -4.391  -5.702  0.00  0.00     0.163 HD
HETATM    4  O           1     -21.215  -7.402  -6.579  0.00  0.00    -0.271 OA
ENDROOT
BRANCH   2   5
HETATM    5  C           1     -21.387  -4.971  -7.752  0.00  0.00     0.210 C 
BRANCH   5   6
HETATM    6  C           1     -22.284  -3.761  -7.978  0.00  0.00     0.217 C 
BRANCH   6   7
HETATM    7  O           1     -23.585  -4.192  -8.271  0.00  0.00    -0.287 OA
BRANCH   7   8
HETATM    8  P           1     -24.074  -3.979  -9.796  0.00  0.00     0.406 P 
HETATM    9  O           1     -24.095  -5.284 -10.494  0.00  0.00    -0.624 OA
HETATM   10  O           1     -23.142  -3.063 -10.490  0.00  0.00    -0.624 OA
BRANCH   8  11
HETATM   11  O           1     -25.559  -3.343  -9.801  0.00  0.00    -0.300 OA
HETATM   12  H           1     -26.138  -4.074  -9.670  0.00  0.00     0.223 HD
ENDBRANCH   8  11
ENDBRANCH   7   8
ENDBRANCH   6   7
ENDBRANCH   5   6
BRANCH   5  13
HETATM   13  C           1     -20.042  -4.728  -8.391  0.00  0.00     0.198 C 
HETATM   14  O           1     -19.908  -4.847  -9.628  0.00  0.00    -0.646 OA
HETATM   15  O           1     -19.062  -4.407  -7.684  0.00  0.00    -0.646 OA
ENDBRANCH   5  13
ENDBRANCH   2   5
BRANCH   1  16
HETATM   16  C           1     -20.956  -6.680  -4.350  0.00  0.00     0.275 C 
BRANCH  16  17
HETATM   17  C           1     -20.779  -8.167  -4.077  0.00  0.00     0.053 C 
BRANCH  17  18
HETATM   18  C           1     -21.313  -8.497  -2.690  0.00  0.00     0.076 C 
BRANCH  18  19
HETATM   19  S           1     -21.859 -10.227  -2.646  0.00  0.00    -0.173 SA
HETATM   20  C           1     -22.658 -10.144  -1.018  0.00  0.00     0.089 C 
ENDBRANCH  18  19
ENDBRANCH  17  18
ENDBRANCH  16  17
BRANCH  16  21
HETATM   21  N           1     -22.165  -6.177  -3.618  0.00  0.00    -0.066 N 
HETATM   22  H           1     -22.832  -6.967  -3.464  0.00  0.00     0.275 HD
HETATM   23  H           1     -22.631  -5.433  -4.183  0.00  0.00     0.275 HD
HETATM   24  H           1     -21.873  -5.783  -2.695  0.00  0.00     0.275 HD
ENDBRANCH  16  21
ENDBRANCH   1  16
TORSDOF 11
ENDMDL
MODEL 3
REMARK VINA RESULT:      -5.4      4.897      7.988
REMARK  11 active torsions:
REMARK  status: ('A' for Active; 'I' for Inactive)
REMARK    1  A    between atoms: C_3  and  C_4 
REMARK    2  A    between atoms: C_3  and  C_21 
REMARK    3  A    between atoms: C_4  and  C_5 
REMARK    4  A    between atoms: C_4  and  N_14 
REMARK       I    between atoms: C_5  and  N_6 
REMARK    5  A    between atoms: N_6  and  C_22 
REMARK    6  A    between atoms: S_8  and  C_21 
REMARK    7  A    between atoms: C_9  and  C_22 
REMARK    8  A    between atoms: C_9  and  O_19 
REMARK    9  A    between atoms: C_15  and  C_22 
REMARK   10  A    between atoms: P_18  and  O_19 
REMARK   11  A    between atoms: P_18  and  O_23 
ROOT
HETATM    1  C           1     -22.396  -4.264  -8.137  0.00  0.00     0.249 C 
HETATM    2  N           1     -22.092  -5.502  -7.638  0.00  0.00    -0.343 N 
HETATM    3  H           1     -22.434  -6.333  -8.104  0.00  0.00     0.163 HD
HETATM    4  O           1     -21.988  -3.272  -7.582  0.00  0.00    -0.271 OA
ENDROOT
BRANCH   2   5
HETATM    5  C           1     -21.281  -5.622  -6.442  0.00  0.00     0.210 C 
BRANCH   5   6
HETATM    6  C           1     -21.795  -6.778  -5.594  0.00  0.00     0.217 C 
BRANCH   6   7
HETATM    7  O           1     -22.473  -6.272  -4.476  0.00  0.00    -0.287 OA
BRANCH   7   8
HETATM    8  P           1     -21.671  -6.334  -3.075  0.00  0.00     0.406 P 
HETATM    9  O           1     -20.533  -5.388  -3.115  0.00  0.00    -0.624 OA
HETATM   10  O           1     -21.162  -7.707  -2.859  0.00  0.00    -0.624 OA
BRANCH   8  11
HETATM   11  O           1     -22.664  -5.930  -1.867  0.00  0.00    -0.300 OA
HETATM   12  H           1     -22.405  -5.060  -1.619  0.00  0.00     0.223 HD
ENDBRANCH   8  11
ENDBRANCH   7   8
ENDBRANCH   6   7
ENDBRANCH   5   6
BRANCH   5  13
HETATM   13  C           1     -19.847  -5.882  -6.832  0.00  0.00     0.198 C 
HETATM   14  O           1     -19.114  -4.932  -7.184  0.00  0.00    -0.646 OA
HETATM   15  O           1     -19.392  -7.046  -6.804  0.00  0.00    -0.646 OA
ENDBRANCH   5  13
ENDBRANCH   2   5
BRANCH   1  16
HETATM   16  C           1     -23.240  -4.138  -9.382  0.00  0.00     0.275 C 
BRANCH  16  17
HETATM   17  C           1     -22.444  -3.423 -10.466  0.00  0.00     0.053 C 
BRANCH  17  18
HETATM   18  C           1     -22.794  -4.012 -11.826  0.00  0.00     0.076 C 
BRANCH  18  19
HETATM   19  S           1     -23.995  -2.938 -12.661  0.00  0.00    -0.173 SA
HETATM   20  C           1     -23.078  -2.785 -14.219  0.00  0.00     0.089 C 
ENDBRANCH  18  19
ENDBRANCH  17  18
ENDBRANCH  16  17
BRANCH  16  21
HETATM   21  N           1     -24.478  -3.351  -9.069  0.00  0.00    -0.066 N 
HETATM   22  H           1     -24.858  -2.935  -9.950  0.00  0.00     0.275 HD
HETATM   23  H           1     -24.244  -2.587  -8.396  0.00  0.00     0.275 HD
HETATM   24  H           1     -25.194  -3.984  -8.645  0.00  0.00     0.275 HD
ENDBRANCH  16  21
ENDBRANCH   1  16
TORSDOF 11
ENDMDL
MODEL 4
REMARK VINA RESULT:      -5.1      5.770      8.240
REMARK  11 active torsions:
REMARK  status: ('A' for Active; 'I' for Inactive)
REMARK    1  A    between atoms: C_3  and  C_4 
REMARK    2  A    between atoms: C_3  and  C_21 
REMARK    3  A    between atoms: C_4  and  C_5 
REMARK    4  A    between atoms: C_4  and  N_14 
REMARK       I    between atoms: C_5  and  N_6 
REMARK    5  A    between atoms: N_6  and  C_22 
REMARK    6  A    between atoms: S_8  and  C_21 
REMARK    7  A    between atoms: C_9  and  C_22 
REMARK    8  A    between atoms: C_9  and  O_19 
REMARK    9  A    between atoms: C_15  and  C_22 
REMARK   10  A    between atoms: P_18  and  O_19 
REMARK   11  A    between atoms: P_18  and  O_23 
ROOT
HETATM    1  C           1     -21.248  -6.073  -5.216  0.00  0.00     0.249 C 
HETATM    2  N           1     -20.826  -6.909  -4.218  0.00  0.00    -0.343 N 
HETATM    3  H           1     -19.837  -7.067  -4.073  0.00  0.00     0.163 HD
HETATM    4  O           1     -22.429  -5.885  -5.388  0.00  0.00    -0.271 OA
ENDROOT
BRANCH   2   5
HETATM    5  C           1     -21.798  -7.571  -3.368  0.00  0.00     0.210 C 
BRANCH   5   6
HETATM    6  C           1     -21.427  -9.041  -3.222  0.00  0.00     0.217 C 
BRANCH   6   7
HETATM    7  O           1     -21.717  -9.716  -4.417  0.00  0.00    -0.287 OA
BRANCH   7   8
HETATM    8  P           1     -20.448 -10.319  -5.213  0.00  0.00     0.406 P 
HETATM    9  O           1     -19.684 -11.217  -4.318  0.00  0.00    -0.624 OA
HETATM   10  O           1     -19.575  -9.212  -5.663  0.00  0.00    -0.624 OA
BRANCH   8  11
HETATM   11  O           1     -20.965 -11.154  -6.496  0.00  0.00    -0.300 OA
HETATM   12  H           1     -21.848 -10.860  -6.638  0.00  0.00     0.223 HD
ENDBRANCH   8  11
ENDBRANCH   7   8
ENDBRANCH   6   7
ENDBRANCH   5   6
BRANCH   5  13
HETATM   13  C           1     -21.804  -6.915  -2.009  0.00  0.00     0.198 C 
HETATM   14  O           1     -22.190  -5.733  -1.887  0.00  0.00    -0.646 OA
HETATM   15  O           1     -21.423  -7.555  -1.004  0.00  0.00    -0.646 OA
ENDBRANCH   5  13
ENDBRANCH   2   5
BRANCH   1  16
HETATM   16  C           1     -20.238  -5.384  -6.101  0.00  0.00     0.275 C 
BRANCH  16  17
HETATM   17  C           1     -20.913  -4.243  -6.850  0.00  0.00     0.053 C 
BRANCH  17  18
HETATM   18  C           1     -20.245  -4.060  -8.206  0.00  0.00     0.076 C 
BRANCH  18  19
HETATM   19  S           1     -21.493  -4.179  -9.518  0.00  0.00    -0.173 SA
HETATM   20  C           1     -22.938  -4.169  -8.420  0.00  0.00     0.089 C 
ENDBRANCH  18  19
ENDBRANCH  17  18
ENDBRANCH  16  17
BRANCH  16  21
HETATM   21  N           1     -19.683  -6.370  -7.086  0.00  0.00    -0.066 N 
HETATM   22  H           1     -19.573  -5.908  -8.017  0.00  0.00     0.275 HD
HETATM   23  H           1     -20.336  -7.180  -7.174  0.00  0.00     0.275 HD
HETATM   24  H           1     -18.751  -6.707  -6.752  0.00  0.00     0.275 HD
ENDBRANCH  16  21
ENDBRANCH   1  16
TORSDOF 11
ENDMDL
MODEL 5
REMARK VINA RESULT:      -4.9     17.959     20.091
REMARK  11 active torsions:
REMARK  status: ('A' for Active; 'I' for Inactive)
REMARK    1  A    between atoms: C_3  and  C_4 
REMARK    2  A    between atoms: C_3  and  C_21 
REMARK    3  A    between atoms: C_4  and  C_5 
REMARK    4  A    between atoms: C_4  and  N_14 
REMARK       I    between atoms: C_5  and  N_6 
REMARK    5  A    between atoms: N_6  and  C_22 
REMARK    6  A    between atoms: S_8  and  C_21 
REMARK    7  A    between atoms: C_9  and  C_22 
REMARK    8  A    between atoms: C_9  and  O_19 
REMARK    9  A    between atoms: C_15  and  C_22 
REMARK   10  A    between atoms: P_18  and  O_19 
REMARK   11  A    between atoms: P_18  and  O_23 
ROOT
HETATM    1  C           1     -10.945   5.787 -21.612  0.00  0.00     0.249 C 
HETATM    2  N           1     -10.732   7.047 -21.119  0.00  0.00    -0.343 N 
HETATM    3  H           1     -10.531   7.179 -20.136  0.00  0.00     0.163 HD
HETATM    4  O           1     -11.185   5.630 -22.785  0.00  0.00    -0.271 OA
ENDROOT
BRANCH   2   5
HETATM    5  C           1     -10.796   8.192 -22.006  0.00  0.00     0.210 C 
BRANCH   5   6
HETATM    6  C           1     -12.080   8.968 -21.740  0.00  0.00     0.217 C 
BRANCH   6   7
HETATM    7  O           1     -11.909   9.780 -20.610  0.00  0.00    -0.287 OA
BRANCH   7   8
HETATM    8  P           1     -12.346   9.127 -19.198  0.00  0.00     0.406 P 
HETATM    9  O           1     -13.276  10.041 -18.498  0.00  0.00    -0.624 OA
HETATM   10  O           1     -11.145   8.910 -18.362  0.00  0.00    -0.624 OA
BRANCH   8  11
HETATM   11  O           1     -13.081   7.713 -19.464  0.00  0.00    -0.300 OA
HETATM   12  H           1     -13.026   7.252 -18.646  0.00  0.00     0.223 HD
ENDBRANCH   8  11
ENDBRANCH   7   8
ENDBRANCH   6   7
ENDBRANCH   5   6
BRANCH   5  13
HETATM   13  C           1      -9.606   9.086 -21.758  0.00  0.00     0.198 C 
HETATM   14  O           1      -9.369  10.039 -22.531  0.00  0.00    -0.646 OA
HETATM   15  O           1      -8.857   8.874 -20.779  0.00  0.00    -0.646 OA
ENDBRANCH   5  13
ENDBRANCH   2   5
BRANCH   1  16
HETATM   16  C           1     -10.878   4.595 -20.689  0.00  0.00     0.275 C 
BRANCH  16  17
HETATM   17  C           1     -11.406   3.363 -21.412  0.00  0.00     0.053 C 
BRANCH  17  18
HETATM   18  C           1     -12.851   3.112 -21.002  0.00  0.00     0.076 C 
BRANCH  18  19
HETATM   19  S           1     -13.951   3.497 -22.392  0.00  0.00    -0.173 SA
HETATM   20  C           1     -14.663   5.004 -21.673  0.00  0.00     0.089 C 
ENDBRANCH  18  19
ENDBRANCH  17  18
ENDBRANCH  16  17
BRANCH  16  21
HETATM   21  N           1     -11.716   4.857 -19.472  0.00  0.00    -0.066 N 
HETATM   22  H           1     -11.573   5.844 -19.158  0.00  0.00     0.275 HD
HETATM   23  H           1     -11.434   4.204 -18.707  0.00  0.00     0.275 HD
HETATM   24  H           1     -12.724   4.707 -19.705  0.00  0.00     0.275 HD
ENDBRANCH  16  21
ENDBRANCH   1  16
TORSDOF 11
ENDMDL
MODEL 6
REMARK VINA RESULT:      -4.9      6.141      8.678
REMARK  11 active torsions:
REMARK  status: ('A' for Active; 'I' for Inactive)
REMARK    1  A    between atoms: C_3  and  C_4 
REMARK    2  A    between atoms: C_3  and  C_21 
REMARK    3  A    between atoms: C_4  and  C_5 
REMARK    4  A    between atoms: C_4  and  N_14 
REMARK       I    between atoms: C_5  and  N_6 
REMARK    5  A    between atoms: N_6  and  C_22 
REMARK    6  A    between atoms: S_8  and  C_21 
REMARK    7  A    between atoms: C_9  and  C_22 
REMARK    8  A    between atoms: C_9  and  O_19 
REMARK    9  A    between atoms: C_15  and  C_22 
REMARK   10  A    between atoms: P_18  and  O_19 
REMARK   11  A    between atoms: P_18  and  O_23 
ROOT
HETATM    1  C           1     -20.633  -4.711  -6.089  0.00  0.00     0.249 C 
HETATM    2  N           1     -21.258  -5.892  -5.793  0.00  0.00    -0.343 N 
HETATM    3  H           1     -22.035  -6.210  -6.358  0.00  0.00     0.163 HD
HETATM    4  O           1     -19.706  -4.333  -5.414  0.00  0.00    -0.271 OA
ENDROOT
BRANCH   2   5
HETATM    5  C           1     -20.808  -6.688  -4.667  0.00  0.00     0.210 C 
BRANCH   5   6
HETATM    6  C           1     -21.869  -6.669  -3.575  0.00  0.00     0.217 C 
BRANCH   6   7
HETATM    7  O           1     -21.246  -6.655  -2.319  0.00  0.00    -0.287 OA
BRANCH   7   8
HETATM    8  P           1     -21.738  -7.784  -1.273  0.00  0.00     0.406 P 
HETATM    9  O           1     -20.618  -8.151  -0.378  0.00  0.00    -0.624 OA
HETATM   10  O           1     -22.188  -8.982  -2.016  0.00  0.00    -0.624 OA
BRANCH   8  11
HETATM   11  O           1     -22.962  -7.203  -0.393  0.00  0.00    -0.300 OA
HETATM   12  H           1     -23.351  -7.959   0.012  0.00  0.00     0.223 HD
ENDBRANCH   8  11
ENDBRANCH   7   8
ENDBRANCH   6   7
ENDBRANCH   5   6
BRANCH   5  13
HETATM   13  C           1     -20.575  -8.109  -5.119  0.00  0.00     0.198 C 
HETATM   14  O           1     -21.247  -8.583  -6.060  0.00  0.00    -0.646 OA
HETATM   15  O           1     -19.711  -8.813  -4.552  0.00  0.00    -0.646 OA
ENDBRANCH   5  13
ENDBRANCH   2   5
BRANCH   1  16
HETATM   16  C           1     -21.101  -3.882  -7.260  0.00  0.00     0.275 C 
BRANCH  16  17
HETATM   17  C           1     -22.524  -4.279  -7.627  0.00  0.00     0.053 C 
BRANCH  17  18
HETATM   18  C           1     -22.591  -4.622  -9.109  0.00  0.00     0.076 C 
BRANCH  18  19
HETATM   19  S           1     -23.937  -3.687  -9.888  0.00  0.00    -0.173 SA
HETATM   20  C           1     -23.011  -3.204 -11.373  0.00  0.00     0.089 C 
ENDBRANCH  18  19
ENDBRANCH  17  18
ENDBRANCH  16  17
BRANCH  16  21
HETATM   21  N           1     -20.197  -4.120  -8.434  0.00  0.00    -0.066 N 
HETATM   22  H           1     -19.288  -4.513  -8.099  0.00  0.00     0.275 HD
HETATM   23  H           1     -20.025  -3.218  -8.930  0.00  0.00     0.275 HD
HETATM   24  H           1     -20.650  -4.798  -9.089  0.00  0.00     0.275 HD
ENDBRANCH  16  21
ENDBRANCH   1  16
TORSDOF 11
ENDMDL
MODEL 7
REMARK VINA RESULT:      -4.9      6.881      9.763
REMARK  11 active torsions:
REMARK  status: ('A' for Active; 'I' for Inactive)
REMARK    1  A    between atoms: C_3  and  C_4 
REMARK    2  A    between atoms: C_3  and  C_21 
REMARK    3  A    between atoms: C_4  and  C_5 
REMARK    4  A    between atoms: C_4  and  N_14 
REMARK       I    between atoms: C_5  and  N_6 
REMARK    5  A    between atoms: N_6  and  C_22 
REMARK    6  A    between atoms: S_8  and  C_21 
REMARK    7  A    between atoms: C_9  and  C_22 
REMARK    8  A    between atoms: C_9  and  O_19 
REMARK    9  A    between atoms: C_15  and  C_22 
REMARK   10  A    between atoms: P_18  and  O_19 
REMARK   11  A    between atoms: P_18  and  O_23 
ROOT
HETATM    1  C           1     -20.670  -7.346  -5.157  0.00  0.00     0.249 C 
HETATM    2  N           1     -21.160  -7.764  -3.949  0.00  0.00    -0.343 N 
HETATM    3  H           1     -22.004  -7.350  -3.575  0.00  0.00     0.163 HD
HETATM    4  O           1     -19.662  -7.840  -5.604  0.00  0.00    -0.271 OA
ENDROOT
BRANCH   2   5
HETATM    5  C           1     -20.469  -8.800  -3.206  0.00  0.00     0.210 C 
BRANCH   5   6
HETATM    6  C           1     -20.397  -8.407  -1.736  0.00  0.00     0.217 C 
BRANCH   6   7
HETATM    7  O           1     -21.596  -7.784  -1.360  0.00  0.00    -0.287 OA
BRANCH   7   8
HETATM    8  P           1     -22.293  -8.344  -0.015  0.00  0.00     0.406 P 
HETATM    9  O           1     -23.422  -7.464   0.360  0.00  0.00    -0.624 OA
HETATM   10  O           1     -21.300  -8.367   1.082  0.00  0.00    -0.624 OA
BRANCH   8  11
HETATM   11  O           1     -22.842  -9.841  -0.277  0.00  0.00    -0.300 OA
HETATM   12  H           1     -23.769  -9.790  -0.125  0.00  0.00     0.223 HD
ENDBRANCH   8  11
ENDBRANCH   7   8
ENDBRANCH   6   7
ENDBRANCH   5   6
BRANCH   5  13
HETATM   13  C           1     -21.219 -10.102  -3.344  0.00  0.00     0.198 C 
HETATM   14  O           1     -21.133 -10.970  -2.449  0.00  0.00    -0.646 OA
HETATM   15  O           1     -21.925 -10.313  -4.354  0.00  0.00    -0.646 OA
ENDBRANCH   5  13
ENDBRANCH   2   5
BRANCH   1  16
HETATM   16  C           1     -21.388  -6.268  -5.931  0.00  0.00     0.275 C 
BRANCH  16  17
HETATM   17  C           1     -20.523  -5.017  -5.984  0.00  0.00     0.053 C 
BRANCH  17  18
HETATM   18  C           1     -21.188  -3.974  -6.872  0.00  0.00     0.076 C 
BRANCH  18  19
HETATM   19  S           1     -21.428  -4.659  -8.536  0.00  0.00    -0.173 SA
HETATM   20  C           1     -23.136  -4.082  -8.745  0.00  0.00     0.089 C 
ENDBRANCH  18  19
ENDBRANCH  17  18
ENDBRANCH  16  17
BRANCH  16  21
HETATM   21  N           1     -22.688  -5.949  -5.254  0.00  0.00    -0.066 N 
HETATM   22  H           1     -23.455  -5.926  -5.965  0.00  0.00     0.275 HD
HETATM   23  H           1     -22.619  -5.017  -4.787  0.00  0.00     0.275 HD
HETATM   24  H           1     -22.897  -6.683  -4.539  0.00  0.00     0.275 HD
ENDBRANCH  16  21
ENDBRANCH   1  16
TORSDOF 11
ENDMDL
MODEL 8
REMARK VINA RESULT:      -4.8      6.077      8.988
REMARK  11 active torsions:
REMARK  status: ('A' for Active; 'I' for Inactive)
REMARK    1  A    between atoms: C_3  and  C_4 
REMARK    2  A    between atoms: C_3  and  C_21 
REMARK    3  A    between atoms: C_4  and  C_5 
REMARK    4  A    between atoms: C_4  and  N_14 
REMARK       I    between atoms: C_5  and  N_6 
REMARK    5  A    between atoms: N_6  and  C_22 
REMARK    6  A    between atoms: S_8  and  C_21 
REMARK    7  A    between atoms: C_9  and  C_22 
REMARK    8  A    between atoms: C_9  and  O_19 
REMARK    9  A    between atoms: C_15  and  C_22 
REMARK   10  A    between atoms: P_18  and  O_19 
REMARK   11  A    between atoms: P_18  and  O_23 
ROOT
HETATM    1  C           1     -21.778  -5.716  -5.619  0.00  0.00     0.249 C 
HETATM    2  N           1     -21.013  -6.519  -4.816  0.00  0.00    -0.343 N 
HETATM    3  H           1     -20.003  -6.458  -4.854  0.00  0.00     0.163 HD
HETATM    4  O           1     -22.982  -5.789  -5.573  0.00  0.00    -0.271 OA
ENDROOT
BRANCH   2   5
HETATM    5  C           1     -21.650  -7.458  -3.913  0.00  0.00     0.210 C 
BRANCH   5   6
HETATM    6  C           1     -20.890  -8.777  -3.934  0.00  0.00     0.217 C 
BRANCH   6   7
HETATM    7  O           1     -21.802  -9.841  -3.996  0.00  0.00    -0.287 OA
BRANCH   7   8
HETATM    8  P           1     -21.776 -10.867  -2.748  0.00  0.00     0.406 P 
HETATM    9  O           1     -21.361 -12.207  -3.220  0.00  0.00    -0.624 OA
HETATM   10  O           1     -23.127 -10.952  -2.150  0.00  0.00    -0.624 OA
BRANCH   8  11
HETATM   11  O           1     -20.727 -10.339  -1.639  0.00  0.00    -0.300 OA
HETATM   12  H           1     -20.640 -11.050  -1.028  0.00  0.00     0.223 HD
ENDBRANCH   8  11
ENDBRANCH   7   8
ENDBRANCH   6   7
ENDBRANCH   5   6
BRANCH   5  13
HETATM   13  C           1     -21.640  -6.893  -2.514  0.00  0.00     0.198 C 
HETATM   14  O           1     -20.911  -7.407  -1.638  0.00  0.00    -0.646 OA
HETATM   15  O           1     -22.359  -5.911  -2.230  0.00  0.00    -0.646 OA
ENDBRANCH   5  13
ENDBRANCH   2   5
BRANCH   1  16
HETATM   16  C           1     -21.116  -4.739  -6.559  0.00  0.00     0.275 C 
BRANCH  16  17
HETATM   17  C           1     -21.533  -5.049  -7.990  0.00  0.00     0.053 C 
BRANCH  17  18
HETATM   18  C           1     -22.246  -3.842  -8.586  0.00  0.00     0.076 C 
BRANCH  18  19
HETATM   19  S           1     -22.246  -3.970 -10.396  0.00  0.00    -0.173 SA
HETATM   20  C           1     -23.773  -4.942 -10.527  0.00  0.00     0.089 C 
ENDBRANCH  18  19
ENDBRANCH  17  18
ENDBRANCH  16  17
BRANCH  16  21
HETATM   21  N           1     -19.626  -4.858  -6.436  0.00  0.00    -0.066 N 
HETATM   22  H           1     -19.332  -4.570  -5.475  0.00  0.00     0.275 HD
HETATM   23  H           1     -19.166  -4.238  -7.140  0.00  0.00     0.275 HD
HETATM   24  H           1     -19.341  -5.849  -6.605  0.00  0.00     0.275 HD
ENDBRANCH  16  21
ENDBRANCH   1  16
TORSDOF 11
ENDMDL
MODEL 9
REMARK VINA RESULT:      -4.8     18.443     19.749
REMARK  11 active torsions:
REMARK  status: ('A' for Active; 'I' for Inactive)
REMARK    1  A    between atoms: C_3  and  C_4 
REMARK    2  A    between atoms: C_3  and  C_21 
REMARK    3  A    between atoms: C_4  and  C_5 
REMARK    4  A    between atoms: C_4  and  N_14 
REMARK       I    between atoms: C_5  and  N_6 
REMARK    5  A    between atoms: N_6  and  C_22 
REMARK    6  A    between atoms: S_8  and  C_21 
REMARK    7  A    between atoms: C_9  and  C_22 
REMARK    8  A    between atoms: C_9  and  O_19 
REMARK    9  A    between atoms: C_15  and  C_22 
REMARK   10  A    between atoms: P_18  and  O_19 
REMARK   11  A    between atoms: P_18  and  O_23 
ROOT
HETATM    1  C           1     -11.108   5.410 -20.616  0.00  0.00     0.249 C 
HETATM    2  N           1     -11.338   6.696 -20.206  0.00  0.00    -0.343 N 
HETATM    3  H           1     -11.959   6.876 -19.428  0.00  0.00     0.163 HD
HETATM    4  O           1     -10.367   5.196 -21.545  0.00  0.00    -0.271 OA
ENDROOT
BRANCH   2   5
HETATM    5  C           1     -10.692   7.800 -20.889  0.00  0.00     0.210 C 
BRANCH   5   6
HETATM    6  C           1     -11.700   8.495 -21.796  0.00  0.00     0.217 C 
BRANCH   6   7
HETATM    7  O           1     -12.874   8.755 -21.076  0.00  0.00    -0.287 OA
BRANCH   7   8
HETATM    8  P           1     -13.308  10.308 -20.967  0.00  0.00     0.406 P 
HETATM    9  O           1     -13.685  10.619 -19.570  0.00  0.00    -0.624 OA
HETATM   10  O           1     -14.462  10.561 -21.858  0.00  0.00    -0.624 OA
BRANCH   8  11
HETATM   11  O           1     -12.068  11.244 -21.410  0.00  0.00    -0.300 OA
HETATM   12  H           1     -12.429  11.845 -22.038  0.00  0.00     0.223 HD
ENDBRANCH   8  11
ENDBRANCH   7   8
ENDBRANCH   6   7
ENDBRANCH   5   6
BRANCH   5  13
HETATM   13  C           1     -10.169   8.783 -19.870  0.00  0.00     0.198 C 
HETATM   14  O           1     -10.328   8.561 -18.650  0.00  0.00    -0.646 OA
HETATM   15  O           1      -9.578   9.818 -20.246  0.00  0.00    -0.646 OA
ENDBRANCH   5  13
ENDBRANCH   2   5
BRANCH   1  16
HETATM   16  C           1     -11.780   4.260 -19.906  0.00  0.00     0.275 C 
BRANCH  16  17
HETATM   17  C           1     -11.853   3.059 -20.839  0.00  0.00     0.053 C 
BRANCH  17  18
HETATM   18  C           1     -13.282   2.889 -21.337  0.00  0.00     0.076 C 
BRANCH  18  19
HETATM   19  S           1     -13.492   3.789 -22.899  0.00  0.00    -0.173 SA
HETATM   20  C           1     -15.056   4.596 -22.456  0.00  0.00     0.089 C 
ENDBRANCH  18  19
ENDBRANCH  17  18
ENDBRANCH  16  17
BRANCH  16  21
HETATM   21  N           1     -13.167   4.664 -19.501  0.00  0.00    -0.066 N 
HETATM   22  H           1     -13.124   5.554 -18.954  0.00  0.00     0.275 HD
HETATM   23  H           1     -13.592   3.914 -18.912  0.00  0.00     0.275 HD
HETATM   24  H           1     -13.750   4.809 -20.357  0.00  0.00     0.275 HD
ENDBRANCH  16  21
ENDBRANCH   1  16
TORSDOF 11
ENDMDL
