MODEL 1
REMARK VINA RESULT:      -7.0      0.000      0.000
REMARK  10 active torsions:
REMARK  status: ('A' for Active; 'I' for Inactive)
REMARK    1  A    between atoms: C_1  and  C_3 
REMARK    2  A    between atoms: C_2  and  C_14 
REMARK    3  A    between atoms: C_2  and  N_25 
REMARK    4  A    between atoms: C_3  and  C_12 
REMARK    5  A    between atoms: N_6  and  C_12 
REMARK       I    between atoms: N_6  and  C_9 
REMARK    6  A    between atoms: C_9  and  C_20 
REMARK    7  A    between atoms: C_12  and  C_22 
REMARK    8  A    between atoms: C_14  and  C_15 
REMARK    9  A    between atoms: C_15  and  C_20 
REMARK   10  A    between atoms: C_20  and  N_24 
ROOT
HETATM    1  N           1     -23.281  -2.881 -10.476  0.00  0.00    -0.344 N 
HETATM    2  C           1     -23.678  -2.871 -11.786  0.00  0.00     0.249 C 
HETATM    3  O           1     -24.853  -2.921 -12.062  0.00  0.00    -0.271 OA
HETATM    4  H           1     -23.177  -2.009  -9.972  0.00  0.00     0.163 HD
ENDROOT
BRANCH   2   5
HETATM    5  C           1     -22.647  -2.799 -12.885  0.00  0.00     0.274 C 
BRANCH   5   6
HETATM    6  C           1     -23.312  -3.078 -14.226  0.00  0.00     0.044 C 
BRANCH   6   7
HETATM    7  C           1     -22.992  -1.949 -15.197  0.00  0.00     0.030 C 
BRANCH   7   8
HETATM    8  C           1     -24.033  -0.846 -15.054  0.00  0.00     0.230 C 
BRANCH   8   9
HETATM    9  N           1     -23.654   0.316 -15.925  0.00  0.00    -0.079 N 
HETATM   10  H           1     -22.672   0.604 -15.713  0.00  0.00     0.274 HD
HETATM   11  H           1     -23.725   0.037 -16.929  0.00  0.00     0.274 HD
HETATM   12  H           1     -24.300   1.116 -15.739  0.00  0.00     0.274 HD
ENDBRANCH   8   9
ENDBRANCH   7   8
ENDBRANCH   6   7
ENDBRANCH   5   6
BRANCH   5  13
HETATM   13  N           1     -21.578  -3.820 -12.636  0.00  0.00    -0.067 N 
HETATM   14  H           1     -21.675  -4.602 -13.322  0.00  0.00     0.275 HD
HETATM   15  H           1     -20.638  -3.375 -12.747  0.00  0.00     0.275 HD
HETATM   16  H           1     -21.674  -4.194 -11.665  0.00  0.00     0.275 HD
ENDBRANCH   5  13
ENDBRANCH   2   5
BRANCH   1  17
HETATM   17  C           1     -23.013  -4.140  -9.809  0.00  0.00     0.189 C 
BRANCH  17  18
HETATM   18  C           1     -23.085  -3.940  -8.301  0.00  0.00     0.074 C 
BRANCH  18  19
HETATM   19  C           1     -21.756  -4.255  -7.690  0.00  0.00    -0.056 A 
HETATM   20  C           1     -20.588  -4.079  -8.433  0.00  0.00     0.007 A 
HETATM   21  C           1     -19.348  -4.371  -7.864  0.00  0.00     0.001 A 
HETATM   22  C           1     -19.277  -4.841  -6.552  0.00  0.00     0.000 A 
HETATM   23  C           1     -20.444  -5.017  -5.809  0.00  0.00     0.001 A 
HETATM   24  C           1     -21.683  -4.724  -6.378  0.00  0.00     0.007 A 
ENDBRANCH  18  19
ENDBRANCH  17  18
BRANCH  17  25
HETATM   25  C           1     -24.041  -5.161 -10.232  0.00  0.00     0.197 C 
HETATM   26  O           1     -25.133  -5.236  -9.628  0.00  0.00    -0.646 OA
HETATM   27  O           1     -23.799  -5.933 -11.185  0.00  0.00    -0.646 OA
ENDBRANCH  17  25
ENDBRANCH   1  17
TORSDOF 10
ENDMDL
MODEL 2
REMARK VINA RESULT:      -6.9      2.906      4.530
REMARK  10 active torsions:
REMARK  status: ('A' for Active; 'I' for Inactive)
REMARK    1  A    between atoms: C_1  and  C_3 
REMARK    2  A    between atoms: C_2  and  C_14 
REMARK    3  A    between atoms: C_2  and  N_25 
REMARK    4  A    between atoms: C_3  and  C_12 
REMARK    5  A    between atoms: N_6  and  C_12 
REMARK       I    between atoms: N_6  and  C_9 
REMARK    6  A    between atoms: C_9  and  C_20 
REMARK    7  A    between atoms: C_12  and  C_22 
REMARK    8  A    between atoms: C_14  and  C_15 
REMARK    9  A    between atoms: C_15  and  C_20 
REMARK   10  A    between atoms: C_20  and  N_24 
ROOT
HETATM    1  N           1     -21.739  -3.755  -7.265  0.00  0.00    -0.344 N 
HETATM    2  C           1     -22.961  -4.227  -7.664  0.00  0.00     0.249 C 
HETATM    3  O           1     -23.833  -4.408  -6.848  0.00  0.00    -0.271 OA
HETATM    4  H           1     -21.567  -2.758  -7.235  0.00  0.00     0.163 HD
ENDROOT
BRANCH   2   5
HETATM    5  C           1     -23.217  -4.522  -9.121  0.00  0.00     0.274 C 
BRANCH   5   6
HETATM    6  C           1     -22.483  -3.503  -9.983  0.00  0.00     0.044 C 
BRANCH   6   7
HETATM    7  C           1     -22.426  -4.001 -11.421  0.00  0.00     0.030 C 
BRANCH   7   8
HETATM    8  C           1     -22.834  -2.876 -12.364  0.00  0.00     0.230 C 
BRANCH   8   9
HETATM    9  N           1     -22.385  -3.204 -13.758  0.00  0.00    -0.079 N 
HETATM   10  H           1     -21.479  -3.723 -13.719  0.00  0.00     0.274 HD
HETATM   11  H           1     -23.106  -3.799 -14.225  0.00  0.00     0.274 HD
HETATM   12  H           1     -22.258  -2.320 -14.300  0.00  0.00     0.274 HD
ENDBRANCH   8   9
ENDBRANCH   7   8
ENDBRANCH   6   7
ENDBRANCH   5   6
BRANCH   5  13
HETATM   13  N           1     -24.689  -4.440  -9.396  0.00  0.00    -0.067 N 
HETATM   14  H           1     -25.095  -3.626  -8.881  0.00  0.00     0.275 HD
HETATM   15  H           1     -24.845  -4.315 -10.422  0.00  0.00     0.275 HD
HETATM   16  H           1     -25.152  -5.320  -9.076  0.00  0.00     0.275 HD
ENDBRANCH   5  13
ENDBRANCH   2   5
BRANCH   1  17
HETATM   17  C           1     -20.692  -4.683  -6.886  0.00  0.00     0.189 C 
BRANCH  17  18
HETATM   18  C           1     -21.231  -6.107  -6.947  0.00  0.00     0.074 C 
BRANCH  18  19
HETATM   19  C           1     -21.276  -6.684  -5.567  0.00  0.00    -0.056 A 
HETATM   20  C           1     -21.333  -8.067  -5.392  0.00  0.00     0.007 A 
HETATM   21  C           1     -21.375  -8.606  -4.106  0.00  0.00     0.001 A 
HETATM   22  C           1     -21.358  -7.762  -2.996  0.00  0.00     0.000 A 
HETATM   23  C           1     -21.299  -6.380  -3.170  0.00  0.00     0.001 A 
HETATM   24  C           1     -21.258  -5.841  -4.456  0.00  0.00     0.007 A 
ENDBRANCH  18  19
ENDBRANCH  17  18
BRANCH  17  25
HETATM   25  C           1     -19.529  -4.544  -7.838  0.00  0.00     0.197 C 
HETATM   26  O           1     -19.686  -4.778  -9.056  0.00  0.00    -0.646 OA
HETATM   27  O           1     -18.408  -4.195  -7.408  0.00  0.00    -0.646 OA
ENDBRANCH  17  25
ENDBRANCH   1  17
TORSDOF 10
ENDMDL
MODEL 3
REMARK VINA RESULT:      -6.7      5.339      7.809
REMARK  10 active torsions:
REMARK  status: ('A' for Active; 'I' for Inactive)
REMARK    1  A    between atoms: C_1  and  C_3 
REMARK    2  A    between atoms: C_2  and  C_14 
REMARK    3  A    between atoms: C_2  and  N_25 
REMARK    4  A    between atoms: C_3  and  C_12 
REMARK    5  A    between atoms: N_6  and  C_12 
REMARK       I    between atoms: N_6  and  C_9 
REMARK    6  A    between atoms: C_9  and  C_20 
REMARK    7  A    between atoms: C_12  and  C_22 
REMARK    8  A    between atoms: C_14  and  C_15 
REMARK    9  A    between atoms: C_15  and  C_20 
REMARK   10  A    between atoms: C_20  and  N_24 
ROOT
HETATM    1  N           1     -20.882  -7.970  -5.671  0.00  0.00    -0.344 N 
HETATM    2  C           1     -20.505  -6.756  -6.180  0.00  0.00     0.249 C 
HETATM    3  O           1     -19.624  -6.694  -7.005  0.00  0.00    -0.271 OA
HETATM    4  H           1     -21.614  -8.503  -6.123  0.00  0.00     0.163 HD
ENDROOT
BRANCH   2   5
HETATM    5  C           1     -21.190  -5.496  -5.712  0.00  0.00     0.274 C 
BRANCH   5   6
HETATM    6  C           1     -22.149  -5.008  -6.789  0.00  0.00     0.044 C 
BRANCH   6   7
HETATM    7  C           1     -21.557  -3.788  -7.482  0.00  0.00     0.030 C 
BRANCH   7   8
HETATM    8  C           1     -21.398  -4.076  -8.969  0.00  0.00     0.230 C 
BRANCH   8   9
HETATM    9  N           1     -20.054  -4.695  -9.219  0.00  0.00    -0.079 N 
HETATM   10  H           1     -20.077  -5.225 -10.118  0.00  0.00     0.274 HD
HETATM   11  H           1     -19.330  -3.944  -9.275  0.00  0.00     0.274 HD
HETATM   12  H           1     -19.819  -5.346  -8.435  0.00  0.00     0.274 HD
ENDBRANCH   8   9
ENDBRANCH   7   8
ENDBRANCH   6   7
ENDBRANCH   5   6
BRANCH   5  13
HETATM   13  N           1     -20.161  -4.439  -5.443  0.00  0.00    -0.067 N 
HETATM   14  H           1     -19.671  -4.194  -6.333  0.00  0.00     0.275 HD
HETATM   15  H           1     -20.629  -3.586  -5.059  0.00  0.00     0.275 HD
HETATM   16  H           1     -19.466  -4.797  -4.749  0.00  0.00     0.275 HD
ENDBRANCH   5  13
ENDBRANCH   2   5
BRANCH   1  17
HETATM   17  C           1     -20.231  -8.492  -4.485  0.00  0.00     0.189 C 
BRANCH  17  18
HETATM   18  C           1     -21.205  -9.379  -3.722  0.00  0.00     0.074 C 
BRANCH  18  19
HETATM   19  C           1     -21.660  -8.673  -2.483  0.00  0.00    -0.056 A 
HETATM   20  C           1     -22.017  -9.409  -1.353  0.00  0.00     0.007 A 
HETATM   21  C           1     -22.440  -8.752  -0.198  0.00  0.00     0.001 A 
HETATM   22  C           1     -22.507  -7.359  -0.173  0.00  0.00     0.000 A 
HETATM   23  C           1     -22.150  -6.623  -1.303  0.00  0.00     0.001 A 
HETATM   24  C           1     -21.727  -7.280  -2.457  0.00  0.00     0.007 A 
ENDBRANCH  18  19
ENDBRANCH  17  18
BRANCH  17  25
HETATM   25  C           1     -19.023  -9.302  -4.890  0.00  0.00     0.197 C 
HETATM   26  O           1     -18.020  -9.343  -4.146  0.00  0.00    -0.646 OA
HETATM   27  O           1     -19.027  -9.931  -5.970  0.00  0.00    -0.646 OA
ENDBRANCH  17  25
ENDBRANCH   1  17
TORSDOF 10
ENDMDL
MODEL 4
REMARK VINA RESULT:      -6.5      6.054      9.921
REMARK  10 active torsions:
REMARK  status: ('A' for Active; 'I' for Inactive)
REMARK    1  A    between atoms: C_1  and  C_3 
REMARK    2  A    between atoms: C_2  and  C_14 
REMARK    3  A    between atoms: C_2  and  N_25 
REMARK    4  A    between atoms: C_3  and  C_12 
REMARK    5  A    between atoms: N_6  and  C_12 
REMARK       I    between atoms: N_6  and  C_9 
REMARK    6  A    between atoms: C_9  and  C_20 
REMARK    7  A    between atoms: C_12  and  C_22 
REMARK    8  A    between atoms: C_14  and  C_15 
REMARK    9  A    between atoms: C_15  and  C_20 
REMARK   10  A    between atoms: C_20  and  N_24 
ROOT
HETATM    1  N           1     -22.561  -6.469  -3.898  0.00  0.00    -0.344 N 
HETATM    2  C           1     -21.957  -6.368  -2.673  0.00  0.00     0.249 C 
HETATM    3  O           1     -21.575  -5.294  -2.275  0.00  0.00    -0.271 OA
HETATM    4  H           1     -23.564  -6.367  -3.978  0.00  0.00     0.163 HD
ENDROOT
BRANCH   2   5
HETATM    5  C           1     -21.770  -7.599  -1.821  0.00  0.00     0.274 C 
BRANCH   5   6
HETATM    6  C           1     -22.437  -7.387  -0.468  0.00  0.00     0.044 C 
BRANCH   6   7
HETATM    7  C           1     -22.264  -8.637   0.385  0.00  0.00     0.030 C 
BRANCH   7   8
HETATM    8  C           1     -23.068  -9.780  -0.219  0.00  0.00     0.230 C 
BRANCH   8   9
HETATM    9  N           1     -22.278 -11.052  -0.127  0.00  0.00    -0.079 N 
HETATM   10  H           1     -22.253 -11.515  -1.063  0.00  0.00     0.274 HD
HETATM   11  H           1     -21.303 -10.835   0.180  0.00  0.00     0.274 HD
HETATM   12  H           1     -22.727 -11.692   0.567  0.00  0.00     0.274 HD
ENDBRANCH   8   9
ENDBRANCH   7   8
ENDBRANCH   6   7
ENDBRANCH   5   6
BRANCH   5  13
HETATM   13  N           1     -20.305  -7.850  -1.621  0.00  0.00    -0.067 N 
HETATM   14  H           1     -19.900  -8.264  -2.491  0.00  0.00     0.275 HD
HETATM   15  H           1     -19.823  -6.947  -1.409  0.00  0.00     0.275 HD
HETATM   16  H           1     -20.171  -8.513  -0.824  0.00  0.00     0.275 HD
ENDBRANCH   5  13
ENDBRANCH   2   5
BRANCH   1  17
HETATM   17  C           1     -21.761  -6.722  -5.081  0.00  0.00     0.189 C 
BRANCH  17  18
HETATM   18  C           1     -20.786  -5.571  -5.289  0.00  0.00     0.074 C 
BRANCH  18  19
HETATM   19  C           1     -20.911  -5.056  -6.689  0.00  0.00    -0.056 A 
HETATM   20  C           1     -19.809  -5.089  -7.544  0.00  0.00     0.007 A 
HETATM   21  C           1     -19.924  -4.610  -8.849  0.00  0.00     0.001 A 
HETATM   22  C           1     -21.141  -4.098  -9.298  0.00  0.00     0.000 A 
HETATM   23  C           1     -22.243  -4.066  -8.444  0.00  0.00     0.001 A 
HETATM   24  C           1     -22.128  -4.545  -7.139  0.00  0.00     0.007 A 
ENDBRANCH  18  19
ENDBRANCH  17  18
BRANCH  17  25
HETATM   25  C           1     -20.992  -8.008  -4.901  0.00  0.00     0.197 C 
HETATM   26  O           1     -19.750  -7.978  -4.754  0.00  0.00    -0.646 OA
HETATM   27  O           1     -21.595  -9.102  -4.900  0.00  0.00    -0.646 OA
ENDBRANCH  17  25
ENDBRANCH   1  17
TORSDOF 10
ENDMDL
MODEL 5
REMARK VINA RESULT:      -6.5      5.546      8.219
REMARK  10 active torsions:
REMARK  status: ('A' for Active; 'I' for Inactive)
REMARK    1  A    between atoms: C_1  and  C_3 
REMARK    2  A    between atoms: C_2  and  C_14 
REMARK    3  A    between atoms: C_2  and  N_25 
REMARK    4  A    between atoms: C_3  and  C_12 
REMARK    5  A    between atoms: N_6  and  C_12 
REMARK       I    between atoms: N_6  and  C_9 
REMARK    6  A    between atoms: C_9  and  C_20 
REMARK    7  A    between atoms: C_12  and  C_22 
REMARK    8  A    between atoms: C_14  and  C_15 
REMARK    9  A    between atoms: C_15  and  C_20 
REMARK   10  A    between atoms: C_20  and  N_24 
ROOT
HETATM    1  N           1     -21.366  -6.419  -3.052  0.00  0.00    -0.344 N 
HETATM    2  C           1     -21.688  -6.250  -4.372  0.00  0.00     0.249 C 
HETATM    3  O           1     -22.838  -6.068  -4.695  0.00  0.00    -0.271 OA
HETATM    4  H           1     -21.133  -5.616  -2.481  0.00  0.00     0.163 HD
ENDROOT
BRANCH   2   5
HETATM    5  C           1     -20.607  -6.293  -5.423  0.00  0.00     0.274 C 
BRANCH   5   6
HETATM    6  C           1     -20.472  -4.922  -6.071  0.00  0.00     0.044 C 
BRANCH   6   7
HETATM    7  C           1     -20.955  -4.992  -7.514  0.00  0.00     0.030 C 
BRANCH   7   8
HETATM    8  C           1     -22.004  -3.913  -7.752  0.00  0.00     0.230 C 
BRANCH   8   9
HETATM    9  N           1     -23.335  -4.389  -7.247  0.00  0.00    -0.079 N 
HETATM   10  H           1     -23.913  -4.723  -8.050  0.00  0.00     0.274 HD
HETATM   11  H           1     -23.191  -5.172  -6.571  0.00  0.00     0.274 HD
HETATM   12  H           1     -23.827  -3.601  -6.767  0.00  0.00     0.274 HD
ENDBRANCH   8   9
ENDBRANCH   7   8
ENDBRANCH   6   7
ENDBRANCH   5   6
BRANCH   5  13
HETATM   13  N           1     -20.966  -7.307  -6.469  0.00  0.00    -0.067 N 
HETATM   14  H           1     -20.157  -7.442  -7.117  0.00  0.00     0.275 HD
HETATM   15  H           1     -21.197  -8.216  -6.007  0.00  0.00     0.275 HD
HETATM   16  H           1     -21.794  -6.970  -7.010  0.00  0.00     0.275 HD
ENDBRANCH   5  13
ENDBRANCH   2   5
BRANCH   1  17
HETATM   17  C           1     -21.361  -7.747  -2.471  0.00  0.00     0.189 C 
BRANCH  17  18
HETATM   18  C           1     -19.933  -8.276  -2.430  0.00  0.00     0.074 C 
BRANCH  18  19
HETATM   19  C           1     -19.714  -9.215  -3.575  0.00  0.00    -0.056 A 
HETATM   20  C           1     -20.777  -9.970  -4.070  0.00  0.00     0.007 A 
HETATM   21  C           1     -20.574 -10.845  -5.137  0.00  0.00     0.001 A 
HETATM   22  C           1     -19.307 -10.964  -5.709  0.00  0.00     0.000 A 
HETATM   23  C           1     -18.244 -10.209  -5.214  0.00  0.00     0.001 A 
HETATM   24  C           1     -18.448  -9.334  -4.147  0.00  0.00     0.007 A 
ENDBRANCH  18  19
ENDBRANCH  17  18
BRANCH  17  25
HETATM   25  C           1     -21.916  -7.685  -1.069  0.00  0.00     0.197 C 
HETATM   26  O           1     -22.772  -6.824  -0.773  0.00  0.00    -0.646 OA
HETATM   27  O           1     -21.518  -8.494  -0.203  0.00  0.00    -0.646 OA
ENDBRANCH  17  25
ENDBRANCH   1  17
TORSDOF 10
ENDMDL
MODEL 6
REMARK VINA RESULT:      -6.4      7.665     10.831
REMARK  10 active torsions:
REMARK  status: ('A' for Active; 'I' for Inactive)
REMARK    1  A    between atoms: C_1  and  C_3 
REMARK    2  A    between atoms: C_2  and  C_14 
REMARK    3  A    between atoms: C_2  and  N_25 
REMARK    4  A    between atoms: C_3  and  C_12 
REMARK    5  A    between atoms: N_6  and  C_12 
REMARK       I    between atoms: N_6  and  C_9 
REMARK    6  A    between atoms: C_9  and  C_20 
REMARK    7  A    between atoms: C_12  and  C_22 
REMARK    8  A    between atoms: C_14  and  C_15 
REMARK    9  A    between atoms: C_15  and  C_20 
REMARK   10  A    between atoms: C_20  and  N_24 
ROOT
HETATM    1  N           1     -19.756  -8.257  -4.551  0.00  0.00    -0.344 N 
HETATM    2  C           1     -19.488  -9.572  -4.825  0.00  0.00     0.249 C 
HETATM    3  O           1     -19.631  -9.996  -5.947  0.00  0.00    -0.271 OA
HETATM    4  H           1     -19.023  -7.563  -4.635  0.00  0.00     0.163 HD
ENDROOT
BRANCH   2   5
HETATM    5  C           1     -19.015 -10.490  -3.725  0.00  0.00     0.274 C 
BRANCH   5   6
HETATM    6  C           1     -18.044  -9.742  -2.821  0.00  0.00     0.044 C 
BRANCH   6   7
HETATM    7  C           1     -16.636  -9.847  -3.391  0.00  0.00     0.030 C 
BRANCH   7   8
HETATM    8  C           1     -15.682 -10.331  -2.306  0.00  0.00     0.230 C 
BRANCH   8   9
HETATM    9  N           1     -16.406 -11.269  -1.385  0.00  0.00    -0.079 N 
HETATM   10  H           1     -16.891 -12.003  -1.948  0.00  0.00     0.274 HD
HETATM   11  H           1     -15.721 -11.721  -0.739  0.00  0.00     0.274 HD
HETATM   12  H           1     -17.110 -10.734  -0.827  0.00  0.00     0.274 HD
ENDBRANCH   8   9
ENDBRANCH   7   8
ENDBRANCH   6   7
ENDBRANCH   5   6
BRANCH   5  13
HETATM   13  N           1     -18.324 -11.676  -4.327  0.00  0.00    -0.067 N 
HETATM   14  H           1     -17.374 -11.395  -4.660  0.00  0.00     0.275 HD
HETATM   15  H           1     -18.231 -12.429  -3.607  0.00  0.00     0.275 HD
HETATM   16  H           1     -18.885 -12.033  -5.134  0.00  0.00     0.275 HD
ENDBRANCH   5  13
ENDBRANCH   2   5
BRANCH   1  17
HETATM   17  C           1     -21.089  -7.859  -4.143  0.00  0.00     0.189 C 
BRANCH  17  18
HETATM   18  C           1     -21.007  -7.078  -2.838  0.00  0.00     0.074 C 
BRANCH  18  19
HETATM   19  C           1     -21.749  -7.813  -1.767  0.00  0.00    -0.056 A 
HETATM   20  C           1     -22.334  -7.108  -0.714  0.00  0.00     0.007 A 
HETATM   21  C           1     -23.026  -7.792   0.284  0.00  0.00     0.001 A 
HETATM   22  C           1     -23.134  -9.182   0.230  0.00  0.00     0.000 A 
HETATM   23  C           1     -22.551  -9.887  -0.822  0.00  0.00     0.001 A 
HETATM   24  C           1     -21.859  -9.203  -1.821  0.00  0.00     0.007 A 
ENDBRANCH  18  19
ENDBRANCH  17  18
BRANCH  17  25
HETATM   25  C           1     -21.703  -6.989  -5.213  0.00  0.00     0.197 C 
HETATM   26  O           1     -21.251  -7.018  -6.378  0.00  0.00    -0.646 OA
HETATM   27  O           1     -22.663  -6.240  -4.934  0.00  0.00    -0.646 OA
ENDBRANCH  17  25
ENDBRANCH   1  17
TORSDOF 10
ENDMDL
MODEL 7
REMARK VINA RESULT:      -6.4      4.547      8.195
REMARK  10 active torsions:
REMARK  status: ('A' for Active; 'I' for Inactive)
REMARK    1  A    between atoms: C_1  and  C_3 
REMARK    2  A    between atoms: C_2  and  C_14 
REMARK    3  A    between atoms: C_2  and  N_25 
REMARK    4  A    between atoms: C_3  and  C_12 
REMARK    5  A    between atoms: N_6  and  C_12 
REMARK       I    between atoms: N_6  and  C_9 
REMARK    6  A    between atoms: C_9  and  C_20 
REMARK    7  A    between atoms: C_12  and  C_22 
REMARK    8  A    between atoms: C_14  and  C_15 
REMARK    9  A    between atoms: C_15  and  C_20 
REMARK   10  A    between atoms: C_20  and  N_24 
ROOT
HETATM    1  N           1     -21.763  -6.803  -6.509  0.00  0.00    -0.344 N 
HETATM    2  C           1     -22.234  -6.351  -5.305  0.00  0.00     0.249 C 
HETATM    3  O           1     -23.378  -5.973  -5.208  0.00  0.00    -0.271 OA
HETATM    4  H           1     -21.840  -7.784  -6.747  0.00  0.00     0.163 HD
ENDROOT
BRANCH   2   5
HETATM    5  C           1     -21.326  -6.326  -4.101  0.00  0.00     0.274 C 
BRANCH   5   6
HETATM    6  C           1     -20.573  -7.646  -4.003  0.00  0.00     0.044 C 
BRANCH   6   7
HETATM    7  C           1     -21.496  -8.716  -3.433  0.00  0.00     0.030 C 
BRANCH   7   8
HETATM    8  C           1     -21.489  -9.933  -4.349  0.00  0.00     0.230 C 
BRANCH   8   9
HETATM    9  N           1     -20.431  -9.764  -5.399  0.00  0.00    -0.079 N 
HETATM   10  H           1     -19.897 -10.656  -5.502  0.00  0.00     0.274 HD
HETATM   11  H           1     -20.880  -9.519  -6.310  0.00  0.00     0.274 HD
HETATM   12  H           1     -19.779  -8.997  -5.116  0.00  0.00     0.274 HD
ENDBRANCH   8   9
ENDBRANCH   7   8
ENDBRANCH   6   7
ENDBRANCH   5   6
BRANCH   5  13
HETATM   13  N           1     -22.145  -6.125  -2.861  0.00  0.00    -0.067 N 
HETATM   14  H           1     -22.991  -6.737  -2.899  0.00  0.00     0.275 HD
HETATM   15  H           1     -21.574  -6.373  -2.021  0.00  0.00     0.275 HD
HETATM   16  H           1     -22.442  -5.125  -2.799  0.00  0.00     0.275 HD
ENDBRANCH   5  13
ENDBRANCH   2   5
BRANCH   1  17
HETATM   17  C           1     -21.154  -5.876  -7.442  0.00  0.00     0.189 C 
BRANCH  17  18
HETATM   18  C           1     -21.812  -4.509  -7.300  0.00  0.00     0.074 C 
BRANCH  18  19
HETATM   19  C           1     -22.404  -4.100  -8.613  0.00  0.00    -0.056 A 
HETATM   20  C           1     -23.777  -3.876  -8.718  0.00  0.00     0.007 A 
HETATM   21  C           1     -24.329  -3.494  -9.940  0.00  0.00     0.001 A 
HETATM   22  C           1     -23.509  -3.336 -11.057  0.00  0.00     0.000 A 
HETATM   23  C           1     -22.136  -3.559 -10.952  0.00  0.00     0.001 A 
HETATM   24  C           1     -21.584  -3.941  -9.730  0.00  0.00     0.007 A 
ENDBRANCH  18  19
ENDBRANCH  17  18
BRANCH  17  25
HETATM   25  C           1     -19.679  -5.758  -7.143  0.00  0.00     0.197 C 
HETATM   26  O           1     -18.994  -6.788  -6.960  0.00  0.00    -0.646 OA
HETATM   27  O           1     -19.143  -4.631  -7.079  0.00  0.00    -0.646 OA
ENDBRANCH  17  25
ENDBRANCH   1  17
TORSDOF 10
ENDMDL
MODEL 8
REMARK VINA RESULT:      -6.3      1.817      2.410
REMARK  10 active torsions:
REMARK  status: ('A' for Active; 'I' for Inactive)
REMARK    1  A    between atoms: C_1  and  C_3 
REMARK    2  A    between atoms: C_2  and  C_14 
REMARK    3  A    between atoms: C_2  and  N_25 
REMARK    4  A    between atoms: C_3  and  C_12 
REMARK    5  A    between atoms: N_6  and  C_12 
REMARK       I    between atoms: N_6  and  C_9 
REMARK    6  A    between atoms: C_9  and  C_20 
REMARK    7  A    between atoms: C_12  and  C_22 
REMARK    8  A    between atoms: C_14  and  C_15 
REMARK    9  A    between atoms: C_15  and  C_20 
REMARK   10  A    between atoms: C_20  and  N_24 
ROOT
HETATM    1  N           1     -22.770  -3.313  -9.916  0.00  0.00    -0.344 N 
HETATM    2  C           1     -23.167  -3.709 -11.165  0.00  0.00     0.249 C 
HETATM    3  O           1     -23.851  -4.696 -11.297  0.00  0.00    -0.271 OA
HETATM    4  H           1     -23.346  -2.676  -9.380  0.00  0.00     0.163 HD
ENDROOT
BRANCH   2   5
HETATM    5  C           1     -22.750  -2.913 -12.377  0.00  0.00     0.274 C 
BRANCH   5   6
HETATM    6  C           1     -23.972  -2.616 -13.236  0.00  0.00     0.044 C 
BRANCH   6   7
HETATM    7  C           1     -23.524  -2.064 -14.582  0.00  0.00     0.030 C 
BRANCH   7   8
HETATM    8  C           1     -24.236  -0.745 -14.853  0.00  0.00     0.230 C 
BRANCH   8   9
HETATM    9  N           1     -23.539  -0.018 -15.966  0.00  0.00    -0.079 N 
HETATM   10  H           1     -23.286   0.944 -15.648  0.00  0.00     0.274 HD
HETATM   11  H           1     -22.672  -0.537 -16.231  0.00  0.00     0.274 HD
HETATM   12  H           1     -24.175   0.043 -16.793  0.00  0.00     0.274 HD
ENDBRANCH   8   9
ENDBRANCH   7   8
ENDBRANCH   6   7
ENDBRANCH   5   6
BRANCH   5  13
HETATM   13  N           1     -21.757  -3.704 -13.176  0.00  0.00    -0.067 N 
HETATM   14  H           1     -22.100  -3.803 -14.158  0.00  0.00     0.275 HD
HETATM   15  H           1     -20.837  -3.208 -13.178  0.00  0.00     0.275 HD
HETATM   16  H           1     -21.643  -4.651 -12.750  0.00  0.00     0.275 HD
ENDBRANCH   5  13
ENDBRANCH   2   5
BRANCH   1  17
HETATM   17  C           1     -21.526  -3.808  -9.360  0.00  0.00     0.189 C 
BRANCH  17  18
HETATM   18  C           1     -21.725  -5.232  -8.859  0.00  0.00     0.074 C 
BRANCH  18  19
HETATM   19  C           1     -21.358  -5.309  -7.410  0.00  0.00    -0.056 A 
HETATM   20  C           1     -21.957  -6.266  -6.589  0.00  0.00     0.007 A 
HETATM   21  C           1     -21.615  -6.339  -5.239  0.00  0.00     0.001 A 
HETATM   22  C           1     -20.675  -5.455  -4.710  0.00  0.00     0.000 A 
HETATM   23  C           1     -20.075  -4.500  -5.530  0.00  0.00     0.001 A 
HETATM   24  C           1     -20.417  -4.427  -6.880  0.00  0.00     0.007 A 
ENDBRANCH  18  19
ENDBRANCH  17  18
BRANCH  17  25
HETATM   25  C           1     -20.459  -3.794 -10.428  0.00  0.00     0.197 C 
HETATM   26  O           1     -20.049  -2.707 -10.888  0.00  0.00    -0.646 OA
HETATM   27  O           1     -19.986  -4.871 -10.851  0.00  0.00    -0.646 OA
ENDBRANCH  17  25
ENDBRANCH   1  17
TORSDOF 10
ENDMDL
MODEL 9
REMARK VINA RESULT:      -6.3      7.449     10.128
REMARK  10 active torsions:
REMARK  status: ('A' for Active; 'I' for Inactive)
REMARK    1  A    between atoms: C_1  and  C_3 
REMARK    2  A    between atoms: C_2  and  C_14 
REMARK    3  A    between atoms: C_2  and  N_25 
REMARK    4  A    between atoms: C_3  and  C_12 
REMARK    5  A    between atoms: N_6  and  C_12 
REMARK       I    between atoms: N_6  and  C_9 
REMARK    6  A    between atoms: C_9  and  C_20 
REMARK    7  A    between atoms: C_12  and  C_22 
REMARK    8  A    between atoms: C_14  and  C_15 
REMARK    9  A    between atoms: C_15  and  C_20 
REMARK   10  A    between atoms: C_20  and  N_24 
ROOT
HETATM    1  N           1     -20.975  -7.455  -1.988  0.00  0.00    -0.344 N 
HETATM    2  C           1     -21.534  -6.509  -2.805  0.00  0.00     0.249 C 
HETATM    3  O           1     -21.917  -5.462  -2.341  0.00  0.00    -0.271 OA
HETATM    4  H           1     -19.977  -7.455  -1.821  0.00  0.00     0.163 HD
ENDROOT
BRANCH   2   5
HETATM    5  C           1     -21.670  -6.775  -4.284  0.00  0.00     0.274 C 
BRANCH   5   6
HETATM    6  C           1     -20.625  -5.968  -5.044  0.00  0.00     0.044 C 
BRANCH   6   7
HETATM    7  C           1     -21.139  -5.664  -6.444  0.00  0.00     0.030 C 
BRANCH   7   8
HETATM    8  C           1     -20.818  -4.218  -6.800  0.00  0.00     0.230 C 
BRANCH   8   9
HETATM    9  N           1     -22.036  -3.564  -7.385  0.00  0.00    -0.079 N 
HETATM   10  H           1     -22.872  -3.809  -6.809  0.00  0.00     0.274 HD
HETATM   11  H           1     -21.906  -2.527  -7.388  0.00  0.00     0.274 HD
HETATM   12  H           1     -22.175  -3.900  -8.364  0.00  0.00     0.274 HD
ENDBRANCH   8   9
ENDBRANCH   7   8
ENDBRANCH   6   7
ENDBRANCH   5   6
BRANCH   5  13
HETATM   13  N           1     -23.041  -6.373  -4.739  0.00  0.00    -0.067 N 
HETATM   14  H           1     -23.085  -5.333  -4.836  0.00  0.00     0.275 HD
HETATM   15  H           1     -23.245  -6.817  -5.663  0.00  0.00     0.275 HD
HETATM   16  H           1     -23.747  -6.688  -4.037  0.00  0.00     0.275 HD
ENDBRANCH   5  13
ENDBRANCH   2   5
BRANCH   1  17
HETATM   17  C           1     -21.814  -8.457  -1.360  0.00  0.00     0.189 C 
BRANCH  17  18
HETATM   18  C           1     -21.024  -9.749  -1.196  0.00  0.00     0.074 C 
BRANCH  18  19
HETATM   19  C           1     -21.937 -10.839  -0.729  0.00  0.00    -0.056 A 
HETATM   20  C           1     -23.136 -11.080  -1.402  0.00  0.00     0.007 A 
HETATM   21  C           1     -23.987 -12.096  -0.968  0.00  0.00     0.001 A 
HETATM   22  C           1     -23.640 -12.870   0.139  0.00  0.00     0.000 A 
HETATM   23  C           1     -22.443 -12.630   0.812  0.00  0.00     0.001 A 
HETATM   24  C           1     -21.591 -11.614   0.378  0.00  0.00     0.007 A 
ENDBRANCH  18  19
ENDBRANCH  17  18
BRANCH  17  25
HETATM   25  C           1     -22.258  -7.963  -0.005  0.00  0.00     0.197 C 
HETATM   26  O           1     -23.412  -7.507   0.147  0.00  0.00    -0.646 OA
HETATM   27  O           1     -21.472  -8.010   0.966  0.00  0.00    -0.646 OA
ENDBRANCH  17  25
ENDBRANCH   1  17
TORSDOF 10
ENDMDL
