MODEL 1
REMARK VINA RESULT:      -5.9      0.000      0.000
REMARK  8 active torsions:
REMARK  status: ('A' for Active; 'I' for Inactive)
REMARK    1  A    between atoms: N_1  and  C_8 
REMARK       I    between atoms: N_1  and  C_2 
REMARK    2  A    between atoms: C_2  and  C_3 
REMARK    3  A    between atoms: C_3  and  C_4 
REMARK    4  A    between atoms: C_3  and  N_7 
REMARK    5  A    between atoms: C_4  and  O_5 
REMARK    6  A    between atoms: C_8  and  C_10 
REMARK    7  A    between atoms: C_8  and  C_11 
REMARK    8  A    between atoms: C_10  and  C_21 
ROOT
HETATM    1  N           1     -27.558  -6.925 -17.724  0.00  0.00    -0.344 N 
HETATM    2  C           1     -27.293  -6.180 -18.841  0.00  0.00     0.251 C 
HETATM    3  O           1     -28.101  -5.372 -19.233  0.00  0.00    -0.271 OA
HETATM    4  H           1     -26.881  -7.603 -17.396  0.00  0.00     0.163 HD
ENDROOT
BRANCH   2   5
HETATM    5  C           1     -25.993  -6.368 -19.583  0.00  0.00     0.302 C 
BRANCH   5   6
HETATM    6  C           1     -26.233  -7.218 -20.823  0.00  0.00     0.153 C 
HETATM    7  C           1     -24.951  -7.956 -21.189  0.00  0.00     0.042 C 
BRANCH   6   8
HETATM    8  O           1     -27.249  -8.149 -20.562  0.00  0.00    -0.393 OA
HETATM    9  H           1     -26.830  -8.983 -20.437  0.00  0.00     0.210 HD
ENDBRANCH   6   8
ENDBRANCH   5   6
BRANCH   5  10
HETATM   10  N           1     -25.003  -7.056 -18.690  0.00  0.00    -0.064 N 
HETATM   11  H           1     -24.211  -7.422 -19.264  0.00  0.00     0.275 HD
HETATM   12  H           1     -24.638  -6.375 -17.986  0.00  0.00     0.275 HD
HETATM   13  H           1     -25.472  -7.849 -18.197  0.00  0.00     0.275 HD
ENDBRANCH   5  10
ENDBRANCH   2   5
BRANCH   1  14
HETATM   14  C           1     -28.807  -6.745 -17.011  0.00  0.00     0.195 C 
BRANCH  14  15
HETATM   15  C           1     -29.655  -8.003 -17.148  0.00  0.00     0.149 C 
BRANCH  15  16
HETATM   16  C           1     -30.238  -8.069 -18.539  0.00  0.00     0.175 C 
HETATM   17  O           1     -31.315  -7.487 -18.795  0.00  0.00    -0.648 OA
HETATM   18  O           1     -29.643  -8.706 -19.435  0.00  0.00    -0.648 OA
ENDBRANCH  15  16
ENDBRANCH  14  15
BRANCH  14  19
HETATM   19  C           1     -28.520  -6.488 -15.552  0.00  0.00     0.197 C 
HETATM   20  O           1     -27.919  -7.348 -14.873  0.00  0.00    -0.646 OA
HETATM   21  O           1     -28.884  -5.415 -15.023  0.00  0.00    -0.646 OA
ENDBRANCH  14  19
ENDBRANCH   1  14
TORSDOF 8
ENDMDL
MODEL 2
REMARK VINA RESULT:      -5.6      9.618     11.804
REMARK  8 active torsions:
REMARK  status: ('A' for Active; 'I' for Inactive)
REMARK    1  A    between atoms: N_1  and  C_8 
REMARK       I    between atoms: N_1  and  C_2 
REMARK    2  A    between atoms: C_2  and  C_3 
REMARK    3  A    between atoms: C_3  and  C_4 
REMARK    4  A    between atoms: C_3  and  N_7 
REMARK    5  A    between atoms: C_4  and  O_5 
REMARK    6  A    between atoms: C_8  and  C_10 
REMARK    7  A    between atoms: C_8  and  C_11 
REMARK    8  A    between atoms: C_10  and  C_21 
ROOT
HETATM    1  N           1     -21.825  -3.993  -9.704  0.00  0.00    -0.344 N 
HETATM    2  C           1     -20.621  -4.357  -9.166  0.00  0.00     0.251 C 
HETATM    3  O           1     -19.856  -5.040  -9.805  0.00  0.00    -0.271 OA
HETATM    4  H           1     -22.467  -3.421  -9.169  0.00  0.00     0.163 HD
ENDROOT
BRANCH   2   5
HETATM    5  C           1     -20.249  -3.906  -7.775  0.00  0.00     0.302 C 
BRANCH   5   6
HETATM    6  C           1     -19.813  -5.110  -6.950  0.00  0.00     0.153 C 
HETATM    7  C           1     -20.103  -4.848  -5.477  0.00  0.00     0.042 C 
BRANCH   6   8
HETATM    8  O           1     -20.519  -6.246  -7.370  0.00  0.00    -0.393 OA
HETATM    9  H           1     -21.413  -5.980  -7.498  0.00  0.00     0.210 HD
ENDBRANCH   6   8
ENDBRANCH   5   6
BRANCH   5  10
HETATM   10  N           1     -21.437  -3.260  -7.125  0.00  0.00    -0.064 N 
HETATM   11  H           1     -22.087  -2.906  -7.861  0.00  0.00     0.275 HD
HETATM   12  H           1     -21.933  -3.962  -6.531  0.00  0.00     0.275 HD
HETATM   13  H           1     -21.117  -2.463  -6.530  0.00  0.00     0.275 HD
ENDBRANCH   5  10
ENDBRANCH   2   5
BRANCH   1  14
HETATM   14  C           1     -22.183  -4.426 -11.041  0.00  0.00     0.195 C 
BRANCH  14  15
HETATM   15  C           1     -23.644  -4.856 -11.060  0.00  0.00     0.149 C 
BRANCH  15  16
HETATM   16  C           1     -24.507  -3.734 -10.538  0.00  0.00     0.175 C 
HETATM   17  O           1     -25.187  -3.047 -11.331  0.00  0.00    -0.648 OA
HETATM   18  O           1     -24.542  -3.491  -9.313  0.00  0.00    -0.648 OA
ENDBRANCH  15  16
ENDBRANCH  14  15
BRANCH  14  19
HETATM   19  C           1     -21.981  -3.286 -12.009  0.00  0.00     0.197 C 
HETATM   20  O           1     -22.399  -3.382 -13.183  0.00  0.00    -0.646 OA
HETATM   21  O           1     -21.395  -2.247 -11.637  0.00  0.00    -0.646 OA
ENDBRANCH  14  19
ENDBRANCH   1  14
TORSDOF 8
ENDMDL
MODEL 3
REMARK VINA RESULT:      -5.6     10.275     12.619
REMARK  8 active torsions:
REMARK  status: ('A' for Active; 'I' for Inactive)
REMARK    1  A    between atoms: N_1  and  C_8 
REMARK       I    between atoms: N_1  and  C_2 
REMARK    2  A    between atoms: C_2  and  C_3 
REMARK    3  A    between atoms: C_3  and  C_4 
REMARK    4  A    between atoms: C_3  and  N_7 
REMARK    5  A    between atoms: C_4  and  O_5 
REMARK    6  A    between atoms: C_8  and  C_10 
REMARK    7  A    between atoms: C_8  and  C_11 
REMARK    8  A    between atoms: C_10  and  C_21 
ROOT
HETATM    1  N           1     -22.496  -4.686  -8.211  0.00  0.00    -0.344 N 
HETATM    2  C           1     -21.677  -4.180  -7.238  0.00  0.00     0.251 C 
HETATM    3  O           1     -21.209  -3.073  -7.359  0.00  0.00    -0.271 OA
HETATM    4  H           1     -22.887  -5.614  -8.111  0.00  0.00     0.163 HD
ENDROOT
BRANCH   2   5
HETATM    5  C           1     -21.360  -5.005  -6.015  0.00  0.00     0.302 C 
BRANCH   5   6
HETATM    6  C           1     -20.159  -5.898  -6.302  0.00  0.00     0.153 C 
HETATM    7  C           1     -20.345  -7.239  -5.603  0.00  0.00     0.042 C 
BRANCH   6   8
HETATM    8  O           1     -20.049  -6.104  -7.685  0.00  0.00    -0.393 OA
HETATM    9  H           1     -19.276  -6.624  -7.823  0.00  0.00     0.210 HD
ENDBRANCH   6   8
ENDBRANCH   5   6
BRANCH   5  10
HETATM   10  N           1     -22.544  -5.858  -5.667  0.00  0.00    -0.064 N 
HETATM   11  H           1     -23.382  -5.250  -5.528  0.00  0.00     0.275 HD
HETATM   12  H           1     -22.728  -6.532  -6.444  0.00  0.00     0.275 HD
HETATM   13  H           1     -22.346  -6.385  -4.787  0.00  0.00     0.275 HD
ENDBRANCH   5  10
ENDBRANCH   2   5
BRANCH   1  14
HETATM   14  C           1     -22.801  -3.894  -9.387  0.00  0.00     0.195 C 
BRANCH  14  15
HETATM   15  C           1     -22.153  -4.530 -10.609  0.00  0.00     0.149 C 
BRANCH  15  16
HETATM   16  C           1     -20.703  -4.118 -10.683  0.00  0.00     0.175 C 
HETATM   17  O           1     -19.818  -4.856 -10.198  0.00  0.00    -0.648 OA
HETATM   18  O           1     -20.387  -3.038 -11.228  0.00  0.00    -0.648 OA
ENDBRANCH  15  16
ENDBRANCH  14  15
BRANCH  14  19
HETATM   19  C           1     -24.297  -3.839  -9.581  0.00  0.00     0.197 C 
HETATM   20  O           1     -24.902  -2.752  -9.464  0.00  0.00    -0.646 OA
HETATM   21  O           1     -24.929  -4.881  -9.858  0.00  0.00    -0.646 OA
ENDBRANCH  14  19
ENDBRANCH   1  14
TORSDOF 8
ENDMDL
MODEL 4
REMARK VINA RESULT:      -5.4      9.351     11.655
REMARK  8 active torsions:
REMARK  status: ('A' for Active; 'I' for Inactive)
REMARK    1  A    between atoms: N_1  and  C_8 
REMARK       I    between atoms: N_1  and  C_2 
REMARK    2  A    between atoms: C_2  and  C_3 
REMARK    3  A    between atoms: C_3  and  C_4 
REMARK    4  A    between atoms: C_3  and  N_7 
REMARK    5  A    between atoms: C_4  and  O_5 
REMARK    6  A    between atoms: C_8  and  C_10 
REMARK    7  A    between atoms: C_8  and  C_11 
REMARK    8  A    between atoms: C_10  and  C_21 
ROOT
HETATM    1  N           1     -22.282  -4.944  -9.426  0.00  0.00    -0.344 N 
HETATM    2  C           1     -21.538  -4.544  -8.349  0.00  0.00     0.251 C 
HETATM    3  O           1     -21.461  -3.371  -8.070  0.00  0.00    -0.271 OA
HETATM    4  H           1     -22.345  -5.927  -9.660  0.00  0.00     0.163 HD
ENDROOT
BRANCH   2   5
HETATM    5  C           1     -20.812  -5.568  -7.511  0.00  0.00     0.302 C 
BRANCH   5   6
HETATM    6  C           1     -21.598  -5.827  -6.232  0.00  0.00     0.153 C 
HETATM    7  C           1     -20.767  -5.395  -5.030  0.00  0.00     0.042 C 
BRANCH   6   8
HETATM    8  O           1     -22.793  -5.094  -6.261  0.00  0.00    -0.393 OA
HETATM    9  H           1     -22.684  -4.369  -5.668  0.00  0.00     0.210 HD
ENDBRANCH   6   8
ENDBRANCH   5   6
BRANCH   5  10
HETATM   10  N           1     -19.448  -5.052  -7.163  0.00  0.00    -0.064 N 
HETATM   11  H           1     -18.722  -5.695  -7.552  0.00  0.00     0.275 HD
HETATM   12  H           1     -19.322  -4.098  -7.570  0.00  0.00     0.275 HD
HETATM   13  H           1     -19.348  -5.004  -6.124  0.00  0.00     0.275 HD
ENDBRANCH   5  10
ENDBRANCH   2   5
BRANCH   1  14
HETATM   14  C           1     -22.979  -3.961 -10.231  0.00  0.00     0.195 C 
BRANCH  14  15
HETATM   15  C           1     -22.905  -4.363 -11.698  0.00  0.00     0.149 C 
BRANCH  15  16
HETATM   16  C           1     -23.510  -3.274 -12.550  0.00  0.00     0.175 C 
HETATM   17  O           1     -23.004  -2.130 -12.556  0.00  0.00    -0.648 OA
HETATM   18  O           1     -24.516  -3.515 -13.251  0.00  0.00    -0.648 OA
ENDBRANCH  15  16
ENDBRANCH  14  15
BRANCH  14  19
HETATM   19  C           1     -24.423  -3.891  -9.800  0.00  0.00     0.197 C 
HETATM   20  O           1     -25.102  -4.937  -9.718  0.00  0.00    -0.646 OA
HETATM   21  O           1     -24.940  -2.786  -9.525  0.00  0.00    -0.646 OA
ENDBRANCH  14  19
ENDBRANCH   1  14
TORSDOF 8
ENDMDL
MODEL 5
REMARK VINA RESULT:      -5.4      9.984     12.337
REMARK  8 active torsions:
REMARK  status: ('A' for Active; 'I' for Inactive)
REMARK    1  A    between atoms: N_1  and  C_8 
REMARK       I    between atoms: N_1  and  C_2 
REMARK    2  A    between atoms: C_2  and  C_3 
REMARK    3  A    between atoms: C_3  and  C_4 
REMARK    4  A    between atoms: C_3  and  N_7 
REMARK    5  A    between atoms: C_4  and  O_5 
REMARK    6  A    between atoms: C_8  and  C_10 
REMARK    7  A    between atoms: C_8  and  C_11 
REMARK    8  A    between atoms: C_10  and  C_21 
ROOT
HETATM    1  N           1     -22.212  -5.287  -8.554  0.00  0.00    -0.344 N 
HETATM    2  C           1     -23.048  -4.309  -9.020  0.00  0.00     0.251 C 
HETATM    3  O           1     -22.903  -3.166  -8.654  0.00  0.00    -0.271 OA
HETATM    4  H           1     -22.334  -6.244  -8.860  0.00  0.00     0.163 HD
ENDROOT
BRANCH   2   5
HETATM    5  C           1     -24.150  -4.656  -9.990  0.00  0.00     0.302 C 
BRANCH   5   6
HETATM    6  C           1     -23.647  -4.475 -11.416  0.00  0.00     0.153 C 
HETATM    7  C           1     -24.217  -3.186 -11.995  0.00  0.00     0.042 C 
BRANCH   6   8
HETATM    8  O           1     -22.247  -4.406 -11.414  0.00  0.00    -0.393 OA
HETATM    9  H           1     -21.998  -3.920 -10.646  0.00  0.00     0.210 HD
ENDBRANCH   6   8
ENDBRANCH   5   6
BRANCH   5  10
HETATM   10  N           1     -25.324  -3.753  -9.756  0.00  0.00    -0.064 N 
HETATM   11  H           1     -25.326  -3.433  -8.762  0.00  0.00     0.275 HD
HETATM   12  H           1     -25.257  -2.924 -10.388  0.00  0.00     0.275 HD
HETATM   13  H           1     -26.209  -4.273  -9.956  0.00  0.00     0.275 HD
ENDBRANCH   5  10
ENDBRANCH   2   5
BRANCH   1  14
HETATM   14  C           1     -21.153  -4.954  -7.621  0.00  0.00     0.195 C 
BRANCH  14  15
HETATM   15  C           1     -20.923  -6.125  -6.676  0.00  0.00     0.149 C 
BRANCH  15  16
HETATM   16  C           1     -21.721  -5.918  -5.412  0.00  0.00     0.175 C 
HETATM   17  O           1     -21.133  -5.779  -4.317  0.00  0.00    -0.648 OA
HETATM   18  O           1     -22.969  -5.884  -5.460  0.00  0.00    -0.648 OA
ENDBRANCH  15  16
ENDBRANCH  14  15
BRANCH  14  19
HETATM   19  C           1     -19.884  -4.666  -8.385  0.00  0.00     0.197 C 
HETATM   20  O           1     -19.865  -4.779  -9.630  0.00  0.00    -0.646 OA
HETATM   21  O           1     -18.853  -4.314  -7.773  0.00  0.00    -0.646 OA
ENDBRANCH  14  19
ENDBRANCH   1  14
TORSDOF 8
ENDMDL
MODEL 6
REMARK VINA RESULT:      -5.4      9.552     11.931
REMARK  8 active torsions:
REMARK  status: ('A' for Active; 'I' for Inactive)
REMARK    1  A    between atoms: N_1  and  C_8 
REMARK       I    between atoms: N_1  and  C_2 
REMARK    2  A    between atoms: C_2  and  C_3 
REMARK    3  A    between atoms: C_3  and  C_4 
REMARK    4  A    between atoms: C_3  and  N_7 
REMARK    5  A    between atoms: C_4  and  O_5 
REMARK    6  A    between atoms: C_8  and  C_10 
REMARK    7  A    between atoms: C_8  and  C_11 
REMARK    8  A    between atoms: C_10  and  C_21 
ROOT
HETATM    1  N           1     -22.409  -3.535  -9.456  0.00  0.00    -0.344 N 
HETATM    2  C           1     -22.135  -4.543  -8.571  0.00  0.00     0.251 C 
HETATM    3  O           1     -21.683  -5.590  -8.971  0.00  0.00    -0.271 OA
HETATM    4  H           1     -22.788  -2.658  -9.121  0.00  0.00     0.163 HD
ENDROOT
BRANCH   2   5
HETATM    5  C           1     -22.397  -4.347  -7.098  0.00  0.00     0.302 C 
BRANCH   5   6
HETATM    6  C           1     -21.607  -5.376  -6.300  0.00  0.00     0.153 C 
HETATM    7  C           1     -20.369  -4.716  -5.706  0.00  0.00     0.042 C 
BRANCH   6   8
HETATM    8  O           1     -22.408  -5.882  -5.267  0.00  0.00    -0.393 OA
HETATM    9  H           1     -23.140  -5.295  -5.176  0.00  0.00     0.210 HD
ENDBRANCH   6   8
ENDBRANCH   5   6
BRANCH   5  10
HETATM   10  N           1     -23.861  -4.519  -6.824  0.00  0.00    -0.064 N 
HETATM   11  H           1     -23.992  -4.943  -5.878  0.00  0.00     0.275 HD
HETATM   12  H           1     -24.333  -3.587  -6.856  0.00  0.00     0.275 HD
HETATM   13  H           1     -24.279  -5.147  -7.547  0.00  0.00     0.275 HD
ENDBRANCH   5  10
ENDBRANCH   2   5
BRANCH   1  14
HETATM   14  C           1     -22.157  -3.723 -10.871  0.00  0.00     0.195 C 
BRANCH  14  15
HETATM   15  C           1     -22.977  -2.718 -11.670  0.00  0.00     0.149 C 
BRANCH  15  16
HETATM   16  C           1     -24.424  -3.145 -11.683  0.00  0.00     0.175 C 
HETATM   17  O           1     -25.037  -3.314 -10.606  0.00  0.00    -0.648 OA
HETATM   18  O           1     -25.011  -3.330 -12.772  0.00  0.00    -0.648 OA
ENDBRANCH  15  16
ENDBRANCH  14  15
BRANCH  14  19
HETATM   19  C           1     -20.690  -3.514 -11.152  0.00  0.00     0.197 C 
HETATM   20  O           1     -20.231  -2.354 -11.244  0.00  0.00    -0.646 OA
HETATM   21  O           1     -19.934  -4.499 -11.294  0.00  0.00    -0.646 OA
ENDBRANCH  14  19
ENDBRANCH   1  14
TORSDOF 8
ENDMDL
MODEL 7
REMARK VINA RESULT:      -4.8     14.789     17.402
REMARK  8 active torsions:
REMARK  status: ('A' for Active; 'I' for Inactive)
REMARK    1  A    between atoms: N_1  and  C_8 
REMARK       I    between atoms: N_1  and  C_2 
REMARK    2  A    between atoms: C_2  and  C_3 
REMARK    3  A    between atoms: C_3  and  C_4 
REMARK    4  A    between atoms: C_3  and  N_7 
REMARK    5  A    between atoms: C_4  and  O_5 
REMARK    6  A    between atoms: C_8  and  C_10 
REMARK    7  A    between atoms: C_8  and  C_11 
REMARK    8  A    between atoms: C_10  and  C_21 
ROOT
HETATM    1  N           1     -20.897  -7.688  -3.380  0.00  0.00    -0.344 N 
HETATM    2  C           1     -21.488  -8.249  -2.280  0.00  0.00     0.251 C 
HETATM    3  O           1     -21.886  -9.389  -2.325  0.00  0.00    -0.271 OA
HETATM    4  H           1     -20.564  -6.733  -3.343  0.00  0.00     0.163 HD
ENDROOT
BRANCH   2   5
HETATM    5  C           1     -21.642  -7.445  -1.013  0.00  0.00     0.302 C 
BRANCH   5   6
HETATM    6  C           1     -22.377  -8.276   0.030  0.00  0.00     0.153 C 
HETATM    7  C           1     -21.516  -8.398   1.281  0.00  0.00     0.042 C 
BRANCH   6   8
HETATM    8  O           1     -23.589  -7.651   0.358  0.00  0.00    -0.393 OA
HETATM    9  H           1     -23.472  -7.255   1.204  0.00  0.00     0.210 HD
ENDBRANCH   6   8
ENDBRANCH   5   6
BRANCH   5  10
HETATM   10  N           1     -22.428  -6.200  -1.304  0.00  0.00    -0.064 N 
HETATM   11  H           1     -23.420  -6.337  -1.006  0.00  0.00     0.275 HD
HETATM   12  H           1     -22.014  -5.397  -0.779  0.00  0.00     0.275 HD
HETATM   13  H           1     -22.397  -6.000  -2.329  0.00  0.00     0.275 HD
ENDBRANCH   5  10
ENDBRANCH   2   5
BRANCH   1  14
HETATM   14  C           1     -20.749  -8.460  -4.598  0.00  0.00     0.195 C 
BRANCH  14  15
HETATM   15  C           1     -21.222  -7.632  -5.785  0.00  0.00     0.149 C 
BRANCH  15  16
HETATM   16  C           1     -21.696  -6.284  -5.301  0.00  0.00     0.175 C 
HETATM   17  O           1     -20.904  -5.317  -5.268  0.00  0.00    -0.648 OA
HETATM   18  O           1     -22.882  -6.133  -4.935  0.00  0.00    -0.648 OA
ENDBRANCH  15  16
ENDBRANCH  14  15
BRANCH  14  19
HETATM   19  C           1     -19.297  -8.827  -4.786  0.00  0.00     0.197 C 
HETATM   20  O           1     -18.569  -9.030  -3.789  0.00  0.00    -0.646 OA
HETATM   21  O           1     -18.822  -8.928  -5.938  0.00  0.00    -0.646 OA
ENDBRANCH  14  19
ENDBRANCH   1  14
TORSDOF 8
ENDMDL
MODEL 8
REMARK VINA RESULT:      -4.8     12.287     14.704
REMARK  8 active torsions:
REMARK  status: ('A' for Active; 'I' for Inactive)
REMARK    1  A    between atoms: N_1  and  C_8 
REMARK       I    between atoms: N_1  and  C_2 
REMARK    2  A    between atoms: C_2  and  C_3 
REMARK    3  A    between atoms: C_3  and  C_4 
REMARK    4  A    between atoms: C_3  and  N_7 
REMARK    5  A    between atoms: C_4  and  O_5 
REMARK    6  A    between atoms: C_8  and  C_10 
REMARK    7  A    between atoms: C_8  and  C_11 
REMARK    8  A    between atoms: C_10  and  C_21 
ROOT
HETATM    1  N           1     -20.678  -6.327  -6.483  0.00  0.00    -0.344 N 
HETATM    2  C           1     -20.428  -4.981  -6.478  0.00  0.00     0.251 C 
HETATM    3  O           1     -20.124  -4.428  -5.448  0.00  0.00    -0.271 OA
HETATM    4  H           1     -20.933  -6.791  -7.345  0.00  0.00     0.163 HD
ENDROOT
BRANCH   2   5
HETATM    5  C           1     -20.530  -4.190  -7.759  0.00  0.00     0.302 C 
BRANCH   5   6
HETATM    6  C           1     -21.986  -3.822  -8.013  0.00  0.00     0.153 C 
HETATM    7  C           1     -22.440  -4.433  -9.333  0.00  0.00     0.042 C 
BRANCH   6   8
HETATM    8  O           1     -22.783  -4.317  -6.971  0.00  0.00    -0.393 OA
HETATM    9  H           1     -22.219  -4.429  -6.225  0.00  0.00     0.210 HD
ENDBRANCH   6   8
ENDBRANCH   5   6
BRANCH   5  10
HETATM   10  N           1     -20.017  -5.018  -8.899  0.00  0.00    -0.064 N 
HETATM   11  H           1     -20.684  -5.800  -9.090  0.00  0.00     0.275 HD
HETATM   12  H           1     -19.930  -4.420  -9.751  0.00  0.00     0.275 HD
HETATM   13  H           1     -19.082  -5.412  -8.651  0.00  0.00     0.275 HD
ENDBRANCH   5  10
ENDBRANCH   2   5
BRANCH   1  14
HETATM   14  C           1     -20.580  -7.087  -5.252  0.00  0.00     0.195 C 
BRANCH  14  15
HETATM   15  C           1     -21.928  -7.081  -4.543  0.00  0.00     0.149 C 
BRANCH  15  16
HETATM   16  C           1     -21.729  -6.745  -3.085  0.00  0.00     0.175 C 
HETATM   17  O           1     -22.475  -5.910  -2.529  0.00  0.00    -0.648 OA
HETATM   18  O           1     -20.818  -7.301  -2.435  0.00  0.00    -0.648 OA
ENDBRANCH  15  16
ENDBRANCH  14  15
BRANCH  14  19
HETATM   19  C           1     -20.185  -8.509  -5.570  0.00  0.00     0.197 C 
HETATM   20  O           1     -21.066  -9.383  -5.721  0.00  0.00    -0.646 OA
HETATM   21  O           1     -18.977  -8.811  -5.683  0.00  0.00    -0.646 OA
ENDBRANCH  14  19
ENDBRANCH   1  14
TORSDOF 8
ENDMDL
MODEL 9
REMARK VINA RESULT:      -4.8     13.750     15.399
REMARK  8 active torsions:
REMARK  status: ('A' for Active; 'I' for Inactive)
REMARK    1  A    between atoms: N_1  and  C_8 
REMARK       I    between atoms: N_1  and  C_2 
REMARK    2  A    between atoms: C_2  and  C_3 
REMARK    3  A    between atoms: C_3  and  C_4 
REMARK    4  A    between atoms: C_3  and  N_7 
REMARK    5  A    between atoms: C_4  and  O_5 
REMARK    6  A    between atoms: C_8  and  C_10 
REMARK    7  A    between atoms: C_8  and  C_11 
REMARK    8  A    between atoms: C_10  and  C_21 
ROOT
HETATM    1  N           1     -20.963  -6.810  -4.369  0.00  0.00    -0.344 N 
HETATM    2  C           1     -21.793  -6.069  -5.165  0.00  0.00     0.251 C 
HETATM    3  O           1     -22.987  -6.245  -5.122  0.00  0.00    -0.271 OA
HETATM    4  H           1     -19.962  -6.664  -4.407  0.00  0.00     0.163 HD
ENDROOT
BRANCH   2   5
HETATM    5  C           1     -21.217  -5.032  -6.098  0.00  0.00     0.302 C 
BRANCH   5   6
HETATM    6  C           1     -20.828  -5.692  -7.414  0.00  0.00     0.153 C 
HETATM    7  C           1     -20.222  -4.649  -8.345  0.00  0.00     0.042 C 
BRANCH   6   8
HETATM    8  O           1     -19.888  -6.703  -7.171  0.00  0.00    -0.393 OA
HETATM    9  H           1     -19.113  -6.479  -7.658  0.00  0.00     0.210 HD
ENDBRANCH   6   8
ENDBRANCH   5   6
BRANCH   5  10
HETATM   10  N           1     -20.001  -4.416  -5.470  0.00  0.00    -0.064 N 
HETATM   11  H           1     -19.511  -5.130  -4.885  0.00  0.00     0.275 HD
HETATM   12  H           1     -19.356  -4.079  -6.219  0.00  0.00     0.275 HD
HETATM   13  H           1     -20.289  -3.612  -4.869  0.00  0.00     0.275 HD
ENDBRANCH   5  10
ENDBRANCH   2   5
BRANCH   1  14
HETATM   14  C           1     -21.516  -7.807  -3.474  0.00  0.00     0.195 C 
BRANCH  14  15
HETATM   15  C           1     -20.782  -9.127  -3.668  0.00  0.00     0.149 C 
BRANCH  15  16
HETATM   16  C           1     -20.309  -9.235  -5.097  0.00  0.00     0.175 C 
HETATM   17  O           1     -21.131  -9.455  -6.013  0.00  0.00    -0.648 OA
HETATM   18  O           1     -19.095  -9.105  -5.364  0.00  0.00    -0.648 OA
ENDBRANCH  15  16
ENDBRANCH  14  15
BRANCH  14  19
HETATM   19  C           1     -21.352  -7.346  -2.046  0.00  0.00     0.197 C 
HETATM   20  O           1     -22.123  -6.479  -1.578  0.00  0.00    -0.646 OA
HETATM   21  O           1     -20.447  -7.829  -1.333  0.00  0.00    -0.646 OA
ENDBRANCH  14  19
ENDBRANCH   1  14
TORSDOF 8
ENDMDL
