MODEL 1
REMARK VINA RESULT:      -6.7      0.000      0.000
REMARK  11 active torsions:
REMARK  status: ('A' for Active; 'I' for Inactive)
REMARK    1  A    between atoms: C_1  and  C_21 
REMARK    2  A    between atoms: C_6  and  C_13 
REMARK    3  A    between atoms: C_6  and  C_7 
REMARK    4  A    between atoms: C_9  and  N_14 
REMARK    5  A    between atoms: C_9  and  C_10 
REMARK    6  A    between atoms: C_10  and  C_19 
REMARK    7  A    between atoms: N_12  and  C_13 
REMARK    8  A    between atoms: C_13  and  C_22 
REMARK    9  A    between atoms: C_19  and  C_20 
REMARK   10  A    between atoms: C_20  and  C_21 
REMARK   11  A    between atoms: C_21  and  N_23 
REMARK       I    between atoms: C_22  and  N_23 
ROOT
HETATM    1  H           1     -22.255  -5.761  -9.497  0.00  0.00     0.163 HD
HETATM    2  O           1     -21.713  -3.496  -7.395  0.00  0.00    -0.271 OA
HETATM    3  C           1     -21.709  -4.608  -7.867  0.00  0.00     0.249 C 
HETATM    4  N           1     -22.259  -4.829  -9.101  0.00  0.00    -0.345 N 
ENDROOT
BRANCH   4   5
HETATM    5  C           1     -22.847  -3.730  -9.841  0.00  0.00     0.185 C 
BRANCH   5   6
HETATM    6  C           1     -24.351  -3.799  -9.732  0.00  0.00     0.196 C 
HETATM    7  O           1     -24.940  -4.889  -9.902  0.00  0.00    -0.646 OA
HETATM    8  O           1     -25.006  -2.768  -9.470  0.00  0.00    -0.646 OA
ENDBRANCH   5   6
BRANCH   5   9
HETATM    9  C           1     -22.439  -3.828 -11.305  0.00  0.00     0.036 C 
BRANCH   9  10
HETATM   10  C           1     -22.782  -2.527 -12.017  0.00  0.00     0.004 C 
BRANCH  10  11
HETATM   11  C           1     -23.811  -2.798 -13.106  0.00  0.00     0.027 C 
BRANCH  11  12
HETATM   12  C           1     -23.371  -2.126 -14.400  0.00  0.00     0.229 C 
BRANCH  12  13
HETATM   13  N           1     -24.136  -0.849 -14.587  0.00  0.00    -0.079 N 
HETATM   14  H           1     -24.662  -0.627 -13.711  0.00  0.00     0.274 HD
HETATM   15  H           1     -23.471  -0.072 -14.800  0.00  0.00     0.274 HD
HETATM   16  H           1     -24.808  -0.959 -15.379  0.00  0.00     0.274 HD
ENDBRANCH  12  13
ENDBRANCH  11  12
ENDBRANCH  10  11
ENDBRANCH   9  10
ENDBRANCH   5   9
ENDBRANCH   4   5
BRANCH   3  17
HETATM   17  C           1     -21.096  -5.752  -7.097  0.00  0.00     0.275 C 
BRANCH  17  18
HETATM   18  C           1     -20.985  -5.373  -5.626  0.00  0.00     0.046 C 
BRANCH  18  19
HETATM   19  C           1     -21.819  -6.333  -4.789  0.00  0.00    -0.020 C 
HETATM   20  C           1     -21.549  -7.764  -5.236  0.00  0.00     0.009 C 
HETATM   21  C           1     -21.444  -6.183  -3.320  0.00  0.00     0.009 C 
ENDBRANCH  18  19
ENDBRANCH  17  18
BRANCH  17  22
HETATM   22  N           1     -19.730  -6.045  -7.642  0.00  0.00    -0.066 N 
HETATM   23  H           1     -19.756  -6.935  -8.189  0.00  0.00     0.275 HD
HETATM   24  H           1     -19.428  -5.262  -8.265  0.00  0.00     0.275 HD
HETATM   25  H           1     -19.054  -6.142  -6.851  0.00  0.00     0.275 HD
ENDBRANCH  17  22
ENDBRANCH   3  17
TORSDOF 11
ENDMDL
MODEL 2
REMARK VINA RESULT:      -5.9      3.130      8.244
REMARK  11 active torsions:
REMARK  status: ('A' for Active; 'I' for Inactive)
REMARK    1  A    between atoms: C_1  and  C_21 
REMARK    2  A    between atoms: C_6  and  C_13 
REMARK    3  A    between atoms: C_6  and  C_7 
REMARK    4  A    between atoms: C_9  and  N_14 
REMARK    5  A    between atoms: C_9  and  C_10 
REMARK    6  A    between atoms: C_10  and  C_19 
REMARK    7  A    between atoms: N_12  and  C_13 
REMARK    8  A    between atoms: C_13  and  C_22 
REMARK    9  A    between atoms: C_19  and  C_20 
REMARK   10  A    between atoms: C_20  and  C_21 
REMARK   11  A    between atoms: C_21  and  N_23 
REMARK       I    between atoms: C_22  and  N_23 
ROOT
HETATM    1  H           1     -22.372  -6.815  -6.625  0.00  0.00     0.163 HD
HETATM    2  O           1     -20.839  -4.080  -6.500  0.00  0.00    -0.271 OA
HETATM    3  C           1     -21.597  -4.919  -6.926  0.00  0.00     0.249 C 
HETATM    4  N           1     -21.737  -6.111  -6.268  0.00  0.00    -0.345 N 
ENDROOT
BRANCH   4   5
HETATM    5  C           1     -20.976  -6.368  -5.061  0.00  0.00     0.185 C 
BRANCH   5   6
HETATM    6  C           1     -20.054  -7.542  -5.289  0.00  0.00     0.196 C 
HETATM    7  O           1     -19.964  -8.442  -4.426  0.00  0.00    -0.646 OA
HETATM    8  O           1     -19.382  -7.613  -6.341  0.00  0.00    -0.646 OA
ENDBRANCH   5   6
BRANCH   5   9
HETATM    9  C           1     -21.930  -6.686  -3.918  0.00  0.00     0.036 C 
BRANCH   9  10
HETATM   10  C           1     -21.460  -5.982  -2.652  0.00  0.00     0.004 C 
BRANCH  10  11
HETATM   11  C           1     -22.279  -6.470  -1.464  0.00  0.00     0.027 C 
BRANCH  11  12
HETATM   12  C           1     -21.908  -7.913  -1.151  0.00  0.00     0.229 C 
BRANCH  12  13
HETATM   13  N           1     -22.635  -8.361   0.083  0.00  0.00    -0.079 N 
HETATM   14  H           1     -22.460  -9.379   0.240  0.00  0.00     0.274 HD
HETATM   15  H           1     -22.290  -7.818   0.907  0.00  0.00     0.274 HD
HETATM   16  H           1     -23.659  -8.197  -0.037  0.00  0.00     0.274 HD
ENDBRANCH  12  13
ENDBRANCH  11  12
ENDBRANCH  10  11
ENDBRANCH   9  10
ENDBRANCH   5   9
ENDBRANCH   4   5
BRANCH   3  17
HETATM   17  C           1     -22.389  -4.652  -8.182  0.00  0.00     0.275 C 
BRANCH  17  18
HETATM   18  C           1     -21.656  -3.626  -9.036  0.00  0.00     0.046 C 
BRANCH  18  19
HETATM   19  C           1     -21.407  -4.204 -10.423  0.00  0.00    -0.020 C 
HETATM   20  C           1     -21.603  -3.115 -11.470  0.00  0.00     0.009 C 
HETATM   21  C           1     -19.982  -4.734 -10.503  0.00  0.00     0.009 C 
ENDBRANCH  18  19
ENDBRANCH  17  18
BRANCH  17  22
HETATM   22  N           1     -23.743  -4.120  -7.814  0.00  0.00    -0.066 N 
HETATM   23  H           1     -23.633  -3.303  -7.171  0.00  0.00     0.275 HD
HETATM   24  H           1     -24.245  -3.817  -8.679  0.00  0.00     0.275 HD
HETATM   25  H           1     -24.292  -4.868  -7.335  0.00  0.00     0.275 HD
ENDBRANCH  17  22
ENDBRANCH   3  17
TORSDOF 11
ENDMDL
MODEL 3
REMARK VINA RESULT:      -5.6      4.636      8.393
REMARK  11 active torsions:
REMARK  status: ('A' for Active; 'I' for Inactive)
REMARK    1  A    between atoms: C_1  and  C_21 
REMARK    2  A    between atoms: C_6  and  C_13 
REMARK    3  A    between atoms: C_6  and  C_7 
REMARK    4  A    between atoms: C_9  and  N_14 
REMARK    5  A    between atoms: C_9  and  C_10 
REMARK    6  A    between atoms: C_10  and  C_19 
REMARK    7  A    between atoms: N_12  and  C_13 
REMARK    8  A    between atoms: C_13  and  C_22 
REMARK    9  A    between atoms: C_19  and  C_20 
REMARK   10  A    between atoms: C_20  and  C_21 
REMARK   11  A    between atoms: C_21  and  N_23 
REMARK       I    between atoms: C_22  and  N_23 
ROOT
HETATM    1  H           1     -21.675  -7.569  -4.186  0.00  0.00     0.163 HD
HETATM    2  O           1     -19.613  -7.217  -6.524  0.00  0.00    -0.271 OA
HETATM    3  C           1     -20.591  -6.991  -5.851  0.00  0.00     0.249 C 
HETATM    4  N           1     -20.856  -7.759  -4.749  0.00  0.00    -0.345 N 
ENDROOT
BRANCH   4   5
HETATM    5  C           1     -19.964  -8.844  -4.389  0.00  0.00     0.185 C 
BRANCH   5   6
HETATM    6  C           1     -20.503 -10.141  -4.941  0.00  0.00     0.196 C 
HETATM    7  O           1     -20.034 -10.613  -5.999  0.00  0.00    -0.646 OA
HETATM    8  O           1     -21.418 -10.743  -4.339  0.00  0.00    -0.646 OA
ENDBRANCH   5   6
BRANCH   5   9
HETATM    9  C           1     -19.866  -8.938  -2.873  0.00  0.00     0.036 C 
BRANCH   9  10
HETATM   10  C           1     -20.496  -7.702  -2.244  0.00  0.00     0.004 C 
BRANCH  10  11
HETATM   11  C           1     -21.475  -8.126  -1.158  0.00  0.00     0.027 C 
BRANCH  11  12
HETATM   12  C           1     -22.408  -6.967  -0.834  0.00  0.00     0.229 C 
BRANCH  12  13
HETATM   13  N           1     -22.293  -5.918  -1.899  0.00  0.00    -0.079 N 
HETATM   14  H           1     -23.233  -5.749  -2.323  0.00  0.00     0.274 HD
HETATM   15  H           1     -21.936  -5.030  -1.479  0.00  0.00     0.274 HD
HETATM   16  H           1     -21.630  -6.243  -2.638  0.00  0.00     0.274 HD
ENDBRANCH  12  13
ENDBRANCH  11  12
ENDBRANCH  10  11
ENDBRANCH   9  10
ENDBRANCH   5   9
ENDBRANCH   4   5
BRANCH   3  17
HETATM   17  C           1     -21.520  -5.862  -6.226  0.00  0.00     0.275 C 
BRANCH  17  18
HETATM   18  C           1     -20.790  -4.533  -6.075  0.00  0.00     0.046 C 
BRANCH  18  19
HETATM   19  C           1     -20.779  -3.805  -7.413  0.00  0.00    -0.020 C 
HETATM   20  C           1     -19.482  -4.112  -8.149  0.00  0.00     0.009 C 
HETATM   21  C           1     -21.961  -4.271  -8.253  0.00  0.00     0.009 C 
ENDBRANCH  18  19
ENDBRANCH  17  18
BRANCH  17  22
HETATM   22  N           1     -22.716  -5.879  -5.321  0.00  0.00    -0.066 N 
HETATM   23  H           1     -23.587  -5.929  -5.896  0.00  0.00     0.275 HD
HETATM   24  H           1     -22.666  -6.713  -4.693  0.00  0.00     0.275 HD
HETATM   25  H           1     -22.729  -5.008  -4.745  0.00  0.00     0.275 HD
ENDBRANCH  17  22
ENDBRANCH   3  17
TORSDOF 11
ENDMDL
MODEL 4
REMARK VINA RESULT:      -5.5      3.238      4.689
REMARK  11 active torsions:
REMARK  status: ('A' for Active; 'I' for Inactive)
REMARK    1  A    between atoms: C_1  and  C_21 
REMARK    2  A    between atoms: C_6  and  C_13 
REMARK    3  A    between atoms: C_6  and  C_7 
REMARK    4  A    between atoms: C_9  and  N_14 
REMARK    5  A    between atoms: C_9  and  C_10 
REMARK    6  A    between atoms: C_10  and  C_19 
REMARK    7  A    between atoms: N_12  and  C_13 
REMARK    8  A    between atoms: C_13  and  C_22 
REMARK    9  A    between atoms: C_19  and  C_20 
REMARK   10  A    between atoms: C_20  and  C_21 
REMARK   11  A    between atoms: C_21  and  N_23 
REMARK       I    between atoms: C_22  and  N_23 
ROOT
HETATM    1  H           1     -22.318  -6.011  -4.690  0.00  0.00     0.163 HD
HETATM    2  O           1     -20.461  -8.168  -6.014  0.00  0.00    -0.271 OA
HETATM    3  C           1     -21.213  -7.686  -5.198  0.00  0.00     0.249 C 
HETATM    4  N           1     -21.688  -6.415  -5.373  0.00  0.00    -0.345 N 
ENDROOT
BRANCH   4   5
HETATM    5  C           1     -21.290  -5.644  -6.535  0.00  0.00     0.185 C 
BRANCH   5   6
HETATM    6  C           1     -20.043  -4.858  -6.213  0.00  0.00     0.196 C 
HETATM    7  O           1     -19.146  -4.729  -7.074  0.00  0.00    -0.646 OA
HETATM    8  O           1     -19.908  -4.334  -5.086  0.00  0.00    -0.646 OA
ENDBRANCH   5   6
BRANCH   5   9
HETATM    9  C           1     -22.411  -4.686  -6.917  0.00  0.00     0.036 C 
BRANCH   9  10
HETATM   10  C           1     -22.358  -4.411  -8.414  0.00  0.00     0.004 C 
BRANCH  10  11
HETATM   11  C           1     -23.748  -4.043  -8.913  0.00  0.00     0.027 C 
BRANCH  11  12
HETATM   12  C           1     -23.947  -4.596 -10.318  0.00  0.00     0.229 C 
BRANCH  12  13
HETATM   13  N           1     -24.243  -3.469 -11.263  0.00  0.00    -0.079 N 
HETATM   14  H           1     -24.524  -2.623 -10.718  0.00  0.00     0.274 HD
HETATM   15  H           1     -23.390  -3.253 -11.826  0.00  0.00     0.274 HD
HETATM   16  H           1     -25.021  -3.747 -11.902  0.00  0.00     0.274 HD
ENDBRANCH  12  13
ENDBRANCH  11  12
ENDBRANCH  10  11
ENDBRANCH   9  10
ENDBRANCH   5   9
ENDBRANCH   4   5
BRANCH   3  17
HETATM   17  C           1     -21.627  -8.488  -3.989  0.00  0.00     0.275 C 
BRANCH  17  18
HETATM   18  C           1     -20.877  -7.982  -2.763  0.00  0.00     0.046 C 
BRANCH  18  19
HETATM   19  C           1     -21.866  -7.718  -1.635  0.00  0.00    -0.020 C 
HETATM   20  C           1     -21.240  -8.122  -0.306  0.00  0.00     0.009 C 
HETATM   21  C           1     -22.213  -6.236  -1.602  0.00  0.00     0.009 C 
ENDBRANCH  18  19
ENDBRANCH  17  18
BRANCH  17  22
HETATM   22  N           1     -21.299  -9.934  -4.213  0.00  0.00    -0.066 N 
HETATM   23  H           1     -22.142 -10.429  -4.582  0.00  0.00     0.275 HD
HETATM   24  H           1     -20.520 -10.011  -4.904  0.00  0.00     0.275 HD
HETATM   25  H           1     -21.009 -10.369  -3.308  0.00  0.00     0.275 HD
ENDBRANCH  17  22
ENDBRANCH   3  17
TORSDOF 11
ENDMDL
MODEL 5
REMARK VINA RESULT:      -5.4      4.410      7.004
REMARK  11 active torsions:
REMARK  status: ('A' for Active; 'I' for Inactive)
REMARK    1  A    between atoms: C_1  and  C_21 
REMARK    2  A    between atoms: C_6  and  C_13 
REMARK    3  A    between atoms: C_6  and  C_7 
REMARK    4  A    between atoms: C_9  and  N_14 
REMARK    5  A    between atoms: C_9  and  C_10 
REMARK    6  A    between atoms: C_10  and  C_19 
REMARK    7  A    between atoms: N_12  and  C_13 
REMARK    8  A    between atoms: C_13  and  C_22 
REMARK    9  A    between atoms: C_19  and  C_20 
REMARK   10  A    between atoms: C_20  and  C_21 
REMARK   11  A    between atoms: C_21  and  N_23 
REMARK       I    between atoms: C_22  and  N_23 
ROOT
HETATM    1  H           1     -21.762  -9.276  -4.043  0.00  0.00     0.163 HD
HETATM    2  O           1     -19.992  -7.972  -1.804  0.00  0.00    -0.271 OA
HETATM    3  C           1     -20.629  -8.830  -2.369  0.00  0.00     0.249 C 
HETATM    4  N           1     -21.229  -8.557  -3.569  0.00  0.00    -0.345 N 
ENDROOT
BRANCH   4   5
HETATM    5  C           1     -21.101  -7.240  -4.162  0.00  0.00     0.185 C 
BRANCH   5   6
HETATM    6  C           1     -22.299  -6.402  -3.785  0.00  0.00     0.196 C 
HETATM    7  O           1     -23.206  -6.198  -4.620  0.00  0.00    -0.646 OA
HETATM    8  O           1     -22.383  -5.914  -2.637  0.00  0.00    -0.646 OA
ENDBRANCH   5   6
BRANCH   5   9
HETATM    9  C           1     -21.030  -7.371  -5.677  0.00  0.00     0.036 C 
BRANCH   9  10
HETATM   10  C           1     -19.916  -6.481  -6.213  0.00  0.00     0.004 C 
BRANCH  10  11
HETATM   11  C           1     -20.421  -5.048  -6.329  0.00  0.00     0.027 C 
BRANCH  11  12
HETATM   12  C           1     -21.352  -4.933  -7.528  0.00  0.00     0.229 C 
BRANCH  12  13
HETATM   13  N           1     -22.664  -4.352  -7.090  0.00  0.00    -0.079 N 
HETATM   14  H           1     -23.019  -3.701  -7.827  0.00  0.00     0.274 HD
HETATM   15  H           1     -23.355  -5.121  -6.944  0.00  0.00     0.274 HD
HETATM   16  H           1     -22.531  -3.828  -6.196  0.00  0.00     0.274 HD
ENDBRANCH  12  13
ENDBRANCH  11  12
ENDBRANCH  10  11
ENDBRANCH   9  10
ENDBRANCH   5   9
ENDBRANCH   4   5
BRANCH   3  17
HETATM   17  C           1     -20.761 -10.201  -1.753  0.00  0.00     0.275 C 
BRANCH  17  18
HETATM   18  C           1     -21.409 -10.079  -0.379  0.00  0.00     0.046 C 
BRANCH  18  19
HETATM   19  C           1     -22.839  -9.580  -0.534  0.00  0.00    -0.020 C 
HETATM   20  C           1     -23.809 -10.680  -0.124  0.00  0.00     0.009 C 
HETATM   21  C           1     -23.050  -8.362   0.355  0.00  0.00     0.009 C 
ENDBRANCH  18  19
ENDBRANCH  17  18
BRANCH  17  22
HETATM   22  N           1     -19.401 -10.817  -1.610  0.00  0.00    -0.066 N 
HETATM   23  H           1     -19.208 -11.430  -2.435  0.00  0.00     0.275 HD
HETATM   24  H           1     -18.680 -10.063  -1.561  0.00  0.00     0.275 HD
HETATM   25  H           1     -19.368 -11.389  -0.737  0.00  0.00     0.275 HD
ENDBRANCH  17  22
ENDBRANCH   3  17
TORSDOF 11
ENDMDL
MODEL 6
REMARK VINA RESULT:      -5.4      3.775      8.017
REMARK  11 active torsions:
REMARK  status: ('A' for Active; 'I' for Inactive)
REMARK    1  A    between atoms: C_1  and  C_21 
REMARK    2  A    between atoms: C_6  and  C_13 
REMARK    3  A    between atoms: C_6  and  C_7 
REMARK    4  A    between atoms: C_9  and  N_14 
REMARK    5  A    between atoms: C_9  and  C_10 
REMARK    6  A    between atoms: C_10  and  C_19 
REMARK    7  A    between atoms: N_12  and  C_13 
REMARK    8  A    between atoms: C_13  and  C_22 
REMARK    9  A    between atoms: C_19  and  C_20 
REMARK   10  A    between atoms: C_20  and  C_21 
REMARK   11  A    between atoms: C_21  and  N_23 
REMARK       I    between atoms: C_22  and  N_23 
ROOT
HETATM    1  H           1     -19.959  -6.442  -4.762  0.00  0.00     0.163 HD
HETATM    2  O           1     -22.934  -5.844  -5.559  0.00  0.00    -0.271 OA
HETATM    3  C           1     -21.730  -5.750  -5.581  0.00  0.00     0.249 C 
HETATM    4  N           1     -20.968  -6.521  -4.744  0.00  0.00    -0.345 N 
ENDROOT
BRANCH   4   5
HETATM    5  C           1     -21.607  -7.450  -3.832  0.00  0.00     0.185 C 
BRANCH   5   6
HETATM    6  C           1     -21.568  -6.885  -2.433  0.00  0.00     0.196 C 
HETATM    7  O           1     -22.240  -5.869  -2.151  0.00  0.00    -0.646 OA
HETATM    8  O           1     -20.866  -7.433  -1.556  0.00  0.00    -0.646 OA
ENDBRANCH   5   6
BRANCH   5   9
HETATM    9  C           1     -20.867  -8.780  -3.862  0.00  0.00     0.036 C 
BRANCH   9  10
HETATM   10  C           1     -19.573  -8.625  -4.651  0.00  0.00     0.004 C 
BRANCH  10  11
HETATM   11  C           1     -18.444  -9.343  -3.924  0.00  0.00     0.027 C 
BRANCH  11  12
HETATM   12  C           1     -17.600 -10.113  -4.930  0.00  0.00     0.229 C 
BRANCH  12  13
HETATM   13  N           1     -17.996  -9.719  -6.322  0.00  0.00    -0.079 N 
HETATM   14  H           1     -17.544  -8.810  -6.569  0.00  0.00     0.274 HD
HETATM   15  H           1     -17.684 -10.456  -6.995  0.00  0.00     0.274 HD
HETATM   16  H           1     -19.034  -9.619  -6.373  0.00  0.00     0.274 HD
ENDBRANCH  12  13
ENDBRANCH  11  12
ENDBRANCH  10  11
ENDBRANCH   9  10
ENDBRANCH   5   9
ENDBRANCH   4   5
BRANCH   3  17
HETATM   17  C           1     -21.065  -4.784  -6.530  0.00  0.00     0.275 C 
BRANCH  17  18
HETATM   18  C           1     -21.252  -5.269  -7.962  0.00  0.00     0.046 C 
BRANCH  18  19
HETATM   19  C           1     -21.351  -4.071  -8.897  0.00  0.00    -0.020 C 
HETATM   20  C           1     -20.495  -4.318 -10.132  0.00  0.00     0.009 C 
HETATM   21  C           1     -22.801  -3.874  -9.317  0.00  0.00     0.009 C 
ENDBRANCH  18  19
ENDBRANCH  17  18
BRANCH  17  22
HETATM   22  N           1     -19.600  -4.704  -6.217  0.00  0.00    -0.066 N 
HETATM   23  H           1     -19.459  -4.798  -5.186  0.00  0.00     0.275 HD
HETATM   24  H           1     -19.097  -5.476  -6.709  0.00  0.00     0.275 HD
HETATM   25  H           1     -19.226  -3.783  -6.538  0.00  0.00     0.275 HD
ENDBRANCH  17  22
ENDBRANCH   3  17
TORSDOF 11
ENDMDL
MODEL 7
REMARK VINA RESULT:      -5.4      3.745      8.558
REMARK  11 active torsions:
REMARK  status: ('A' for Active; 'I' for Inactive)
REMARK    1  A    between atoms: C_1  and  C_21 
REMARK    2  A    between atoms: C_6  and  C_13 
REMARK    3  A    between atoms: C_6  and  C_7 
REMARK    4  A    between atoms: C_9  and  N_14 
REMARK    5  A    between atoms: C_9  and  C_10 
REMARK    6  A    between atoms: C_10  and  C_19 
REMARK    7  A    between atoms: N_12  and  C_13 
REMARK    8  A    between atoms: C_13  and  C_22 
REMARK    9  A    between atoms: C_19  and  C_20 
REMARK   10  A    between atoms: C_20  and  C_21 
REMARK   11  A    between atoms: C_21  and  N_23 
REMARK       I    between atoms: C_22  and  N_23 
ROOT
HETATM    1  H           1     -19.967  -6.550  -4.942  0.00  0.00     0.163 HD
HETATM    2  O           1     -22.918  -5.752  -5.647  0.00  0.00    -0.271 OA
HETATM    3  C           1     -21.711  -5.729  -5.695  0.00  0.00     0.249 C 
HETATM    4  N           1     -20.978  -6.570  -4.901  0.00  0.00    -0.345 N 
ENDROOT
BRANCH   4   5
HETATM    5  C           1     -21.650  -7.487  -4.002  0.00  0.00     0.185 C 
BRANCH   5   6
HETATM    6  C           1     -21.631  -6.923  -2.602  0.00  0.00     0.196 C 
HETATM    7  O           1     -20.863  -7.408  -1.744  0.00  0.00    -0.646 OA
HETATM    8  O           1     -22.383  -5.970  -2.303  0.00  0.00    -0.646 OA
ENDBRANCH   5   6
BRANCH   5   9
HETATM    9  C           1     -20.931  -8.830  -4.018  0.00  0.00     0.036 C 
BRANCH   9  10
HETATM   10  C           1     -21.950  -9.954  -3.883  0.00  0.00     0.004 C 
BRANCH  10  11
HETATM   11  C           1     -21.650 -10.765  -2.629  0.00  0.00     0.027 C 
BRANCH  11  12
HETATM   12  C           1     -22.869 -10.757  -1.716  0.00  0.00     0.229 C 
BRANCH  12  13
HETATM   13  N           1     -22.717  -9.676  -0.687  0.00  0.00    -0.079 N 
HETATM   14  H           1     -22.613  -8.752  -1.164  0.00  0.00     0.274 HD
HETATM   15  H           1     -23.562  -9.658  -0.073  0.00  0.00     0.274 HD
HETATM   16  H           1     -21.870  -9.866  -0.106  0.00  0.00     0.274 HD
ENDBRANCH  12  13
ENDBRANCH  11  12
ENDBRANCH  10  11
ENDBRANCH   9  10
ENDBRANCH   5   9
ENDBRANCH   4   5
BRANCH   3  17
HETATM   17  C           1     -21.012  -4.774  -6.631  0.00  0.00     0.275 C 
BRANCH  17  18
HETATM   18  C           1     -21.149  -5.274  -8.063  0.00  0.00     0.046 C 
BRANCH  18  19
HETATM   19  C           1     -21.448  -4.100  -8.986  0.00  0.00    -0.020 C 
HETATM   20  C           1     -20.558  -4.183 -10.219  0.00  0.00     0.009 C 
HETATM   21  C           1     -22.909  -4.150  -9.412  0.00  0.00     0.009 C 
ENDBRANCH  18  19
ENDBRANCH  17  18
BRANCH  17  22
HETATM   22  N           1     -19.559  -4.693  -6.267  0.00  0.00    -0.066 N 
HETATM   23  H           1     -19.379  -5.272  -5.416  0.00  0.00     0.275 HD
HETATM   24  H           1     -18.981  -5.052  -7.061  0.00  0.00     0.275 HD
HETATM   25  H           1     -19.304  -3.699  -6.072  0.00  0.00     0.275 HD
ENDBRANCH  17  22
ENDBRANCH   3  17
TORSDOF 11
ENDMDL
MODEL 8
REMARK VINA RESULT:      -5.3      6.134      8.789
REMARK  11 active torsions:
REMARK  status: ('A' for Active; 'I' for Inactive)
REMARK    1  A    between atoms: C_1  and  C_21 
REMARK    2  A    between atoms: C_6  and  C_13 
REMARK    3  A    between atoms: C_6  and  C_7 
REMARK    4  A    between atoms: C_9  and  N_14 
REMARK    5  A    between atoms: C_9  and  C_10 
REMARK    6  A    between atoms: C_10  and  C_19 
REMARK    7  A    between atoms: N_12  and  C_13 
REMARK    8  A    between atoms: C_13  and  C_22 
REMARK    9  A    between atoms: C_19  and  C_20 
REMARK   10  A    between atoms: C_20  and  C_21 
REMARK   11  A    between atoms: C_21  and  N_23 
REMARK       I    between atoms: C_22  and  N_23 
ROOT
HETATM    1  H           1     -19.646  -7.460  -4.317  0.00  0.00     0.163 HD
HETATM    2  O           1     -21.656  -9.847  -3.986  0.00  0.00    -0.271 OA
HETATM    3  C           1     -20.604  -9.291  -4.201  0.00  0.00     0.249 C 
HETATM    4  N           1     -20.527  -7.926  -4.137  0.00  0.00    -0.345 N 
ENDROOT
BRANCH   4   5
HETATM    5  C           1     -21.706  -7.147  -3.812  0.00  0.00     0.185 C 
BRANCH   5   6
HETATM    6  C           1     -22.089  -6.298  -4.999  0.00  0.00     0.196 C 
HETATM    7  O           1     -23.294  -6.057  -5.231  0.00  0.00    -0.646 OA
HETATM    8  O           1     -21.203  -5.837  -5.750  0.00  0.00    -0.646 OA
ENDBRANCH   5   6
BRANCH   5   9
HETATM    9  C           1     -21.406  -6.247  -2.620  0.00  0.00     0.036 C 
BRANCH   9  10
HETATM   10  C           1     -22.254  -6.679  -1.431  0.00  0.00     0.004 C 
BRANCH  10  11
HETATM   11  C           1     -21.557  -7.815  -0.695  0.00  0.00     0.027 C 
BRANCH  11  12
HETATM   12  C           1     -22.600  -8.777  -0.141  0.00  0.00     0.229 C 
BRANCH  12  13
HETATM   13  N           1     -23.631  -8.008   0.631  0.00  0.00    -0.079 N 
HETATM   14  H           1     -23.460  -8.129   1.655  0.00  0.00     0.274 HD
HETATM   15  H           1     -23.566  -6.994   0.386  0.00  0.00     0.274 HD
HETATM   16  H           1     -24.583  -8.364   0.391  0.00  0.00     0.274 HD
ENDBRANCH  12  13
ENDBRANCH  11  12
ENDBRANCH  10  11
ENDBRANCH   9  10
ENDBRANCH   5   9
ENDBRANCH   4   5
BRANCH   3  17
HETATM   17  C           1     -19.378 -10.102  -4.539  0.00  0.00     0.275 C 
BRANCH  17  18
HETATM   18  C           1     -18.140  -9.220  -4.434  0.00  0.00     0.046 C 
BRANCH  18  19
HETATM   19  C           1     -16.920 -10.087  -4.155  0.00  0.00    -0.020 C 
HETATM   20  C           1     -15.942  -9.978  -5.317  0.00  0.00     0.009 C 
HETATM   21  C           1     -16.242  -9.611  -2.876  0.00  0.00     0.009 C 
ENDBRANCH  18  19
ENDBRANCH  17  18
BRANCH  17  22
HETATM   22  N           1     -19.498 -10.629  -5.938  0.00  0.00    -0.066 N 
HETATM   23  H           1     -18.987 -11.538  -6.014  0.00  0.00     0.275 HD
HETATM   24  H           1     -20.506 -10.776  -6.169  0.00  0.00     0.275 HD
HETATM   25  H           1     -19.083  -9.940  -6.606  0.00  0.00     0.275 HD
ENDBRANCH  17  22
ENDBRANCH   3  17
TORSDOF 11
ENDMDL
MODEL 9
REMARK VINA RESULT:      -5.3      3.847      6.027
REMARK  11 active torsions:
REMARK  status: ('A' for Active; 'I' for Inactive)
REMARK    1  A    between atoms: C_1  and  C_21 
REMARK    2  A    between atoms: C_6  and  C_13 
REMARK    3  A    between atoms: C_6  and  C_7 
REMARK    4  A    between atoms: C_9  and  N_14 
REMARK    5  A    between atoms: C_9  and  C_10 
REMARK    6  A    between atoms: C_10  and  C_19 
REMARK    7  A    between atoms: N_12  and  C_13 
REMARK    8  A    between atoms: C_13  and  C_22 
REMARK    9  A    between atoms: C_19  and  C_20 
REMARK   10  A    between atoms: C_20  and  C_21 
REMARK   11  A    between atoms: C_21  and  N_23 
REMARK       I    between atoms: C_22  and  N_23 
ROOT
HETATM    1  H           1     -21.824  -8.474  -6.505  0.00  0.00     0.163 HD
HETATM    2  O           1     -19.585  -8.909  -4.350  0.00  0.00    -0.271 OA
HETATM    3  C           1     -20.420  -9.206  -5.172  0.00  0.00     0.249 C 
HETATM    4  N           1     -21.125  -8.225  -5.816  0.00  0.00    -0.345 N 
ENDROOT
BRANCH   4   5
HETATM    5  C           1     -20.872  -6.830  -5.511  0.00  0.00     0.185 C 
BRANCH   5   6
HETATM    6  C           1     -22.008  -6.283  -4.682  0.00  0.00     0.196 C 
HETATM    7  O           1     -23.125  -6.083  -5.208  0.00  0.00    -0.646 OA
HETATM    8  O           1     -21.833  -6.032  -3.470  0.00  0.00    -0.646 OA
ENDBRANCH   5   6
BRANCH   5   9
HETATM    9  C           1     -20.763  -6.039  -6.808  0.00  0.00     0.036 C 
BRANCH   9  10
HETATM   10  C           1     -20.341  -4.609  -6.499  0.00  0.00     0.004 C 
BRANCH  10  11
HETATM   11  C           1     -21.327  -3.639  -7.136  0.00  0.00     0.027 C 
BRANCH  11  12
HETATM   12  C           1     -22.208  -4.387  -8.127  0.00  0.00     0.229 C 
BRANCH  12  13
HETATM   13  N           1     -23.651  -4.127  -7.811  0.00  0.00    -0.079 N 
HETATM   14  H           1     -24.158  -3.867  -8.687  0.00  0.00     0.274 HD
HETATM   15  H           1     -24.080  -4.989  -7.404  0.00  0.00     0.274 HD
HETATM   16  H           1     -23.721  -3.346  -7.121  0.00  0.00     0.274 HD
ENDBRANCH  12  13
ENDBRANCH  11  12
ENDBRANCH  10  11
ENDBRANCH   9  10
ENDBRANCH   5   9
ENDBRANCH   4   5
BRANCH   3  17
HETATM   17  C           1     -20.683 -10.657  -5.489  0.00  0.00     0.275 C 
BRANCH  17  18
HETATM   18  C           1     -20.619 -11.477  -4.207  0.00  0.00     0.046 C 
BRANCH  18  19
HETATM   19  C           1     -21.974 -12.122  -3.948  0.00  0.00    -0.020 C 
HETATM   20  C           1     -22.865 -11.148  -3.188  0.00  0.00     0.009 C 
HETATM   21  C           1     -22.629 -12.478  -5.276  0.00  0.00     0.009 C 
ENDBRANCH  18  19
ENDBRANCH  17  18
BRANCH  17  22
HETATM   22  N           1     -19.645 -11.154  -6.451  0.00  0.00    -0.066 N 
HETATM   23  H           1     -18.857 -10.469  -6.498  0.00  0.00     0.275 HD
HETATM   24  H           1     -19.283 -12.079  -6.126  0.00  0.00     0.275 HD
HETATM   25  H           1     -20.071 -11.259  -7.399  0.00  0.00     0.275 HD
ENDBRANCH  17  22
ENDBRANCH   3  17
TORSDOF 11
ENDMDL
