MODEL 1
REMARK VINA RESULT:      -6.3      0.000      0.000
REMARK  5 active torsions:
REMARK  status: ('A' for Active; 'I' for Inactive)
REMARK    1  A    between atoms: C_2  and  C_24 
REMARK    2  A    between atoms: C_5  and  C_6 
REMARK    3  A    between atoms: C_6  and  C_20 
REMARK    4  A    between atoms: C_6  and  N_23 
REMARK    5  A    between atoms: O_18  and  C_20 
REMARK       I    between atoms: N_23  and  C_24 
ROOT
HETATM    1  C           1     -20.511  -3.759  -7.813  0.00  0.00     0.274 C 
HETATM    2  C           1     -20.190  -6.694  -5.836  0.00  0.00     0.027 C 
HETATM    3  C           1     -20.222  -6.167  -7.263  0.00  0.00     0.004 C 
HETATM    4  C           1     -20.911  -5.716  -4.917  0.00  0.00     0.229 C 
HETATM    5  H           1     -22.351  -2.960  -7.208  0.00  0.00     0.275 HD
HETATM    6  H           1     -22.153  -4.614  -6.832  0.00  0.00     0.275 HD
HETATM    7  C           1     -19.528  -4.813  -7.322  0.00  0.00     0.042 C 
HETATM    8  N           1     -21.677  -3.684  -6.871  0.00  0.00    -0.067 N 
HETATM    9  H           1     -22.357  -5.203  -6.342  0.00  0.00     0.274 HD
HETATM   10  H           1     -21.337  -3.427  -5.916  0.00  0.00     0.275 HD
HETATM   11  H           1     -22.811  -6.496  -5.323  0.00  0.00     0.274 HD
HETATM   12  H           1     -22.829  -4.896  -4.732  0.00  0.00     0.274 HD
HETATM   13  N           1     -22.335  -5.566  -5.362  0.00  0.00    -0.079 N 
ENDROOT
BRANCH   1  14
HETATM   14  C           1     -21.002  -4.130  -9.191  0.00  0.00     0.249 C 
HETATM   15  O           1     -20.230  -4.573 -10.008  0.00  0.00    -0.271 OA
HETATM   16  N           1     -22.322  -3.965  -9.514  0.00  0.00    -0.343 N 
HETATM   17  H           1     -22.969  -3.594  -8.830  0.00  0.00     0.163 HD
BRANCH  16  18
HETATM   18  C           1     -22.793  -4.323 -10.838  0.00  0.00     0.209 C 
BRANCH  18  19
HETATM   19  C           1     -23.181  -3.072 -11.589  0.00  0.00     0.198 C 
HETATM   20  O           1     -22.296  -2.301 -12.015  0.00  0.00    -0.646 OA
HETATM   21  O           1     -24.388  -2.809 -11.783  0.00  0.00    -0.646 OA
ENDBRANCH  18  19
BRANCH  18  22
HETATM   22  C           1     -24.005  -5.238 -10.716  0.00  0.00     0.200 C 
BRANCH  22  23
HETATM   23  O           1     -24.863  -4.748  -9.720  0.00  0.00    -0.398 OA
HETATM   24  H           1     -24.932  -3.818  -9.852  0.00  0.00     0.209 HD
ENDBRANCH  22  23
ENDBRANCH  18  22
ENDBRANCH  16  18
ENDBRANCH   1  14
TORSDOF 5
ENDMDL
MODEL 2
REMARK VINA RESULT:      -5.7     17.772     19.479
REMARK  5 active torsions:
REMARK  status: ('A' for Active; 'I' for Inactive)
REMARK    1  A    between atoms: C_2  and  C_24 
REMARK    2  A    between atoms: C_5  and  C_6 
REMARK    3  A    between atoms: C_6  and  C_20 
REMARK    4  A    between atoms: C_6  and  N_23 
REMARK    5  A    between atoms: O_18  and  C_20 
REMARK       I    between atoms: N_23  and  C_24 
ROOT
HETATM    1  C           1     -13.260   5.615 -19.966  0.00  0.00     0.274 C 
HETATM    2  C           1     -11.773   2.619 -21.167  0.00  0.00     0.027 C 
HETATM    3  C           1     -11.518   4.092 -20.880  0.00  0.00     0.004 C 
HETATM    4  C           1     -13.264   2.392 -21.378  0.00  0.00     0.229 C 
HETATM    5  H           1     -14.907   5.885 -21.232  0.00  0.00     0.275 HD
HETATM    6  H           1     -13.710   4.841 -21.859  0.00  0.00     0.275 HD
HETATM    7  C           1     -12.276   4.504 -19.624  0.00  0.00     0.042 C 
HETATM    8  N           1     -14.232   5.122 -20.998  0.00  0.00    -0.067 N 
HETATM    9  H           1     -13.563   4.227 -22.341  0.00  0.00     0.274 HD
HETATM   10  H           1     -14.753   4.298 -20.621  0.00  0.00     0.275 HD
HETATM   11  H           1     -13.216   2.935 -23.400  0.00  0.00     0.274 HD
HETATM   12  H           1     -14.759   3.061 -22.684  0.00  0.00     0.274 HD
HETATM   13  N           1     -13.737   3.216 -22.539  0.00  0.00    -0.079 N 
ENDROOT
BRANCH   1  14
HETATM   14  C           1     -12.508   6.804 -20.511  0.00  0.00     0.249 C 
HETATM   15  O           1     -12.939   7.404 -21.467  0.00  0.00    -0.271 OA
HETATM   16  N           1     -11.339   7.203 -19.922  0.00  0.00    -0.343 N 
HETATM   17  H           1     -10.978   6.700 -19.121  0.00  0.00     0.163 HD
BRANCH  16  18
HETATM   18  C           1     -10.617   8.346 -20.446  0.00  0.00     0.209 C 
BRANCH  18  19
HETATM   19  C           1      -9.232   7.918 -20.865  0.00  0.00     0.198 C 
HETATM   20  O           1      -8.839   6.756 -20.626  0.00  0.00    -0.646 OA
HETATM   21  O           1      -8.479   8.725 -21.452  0.00  0.00    -0.646 OA
ENDBRANCH  18  19
BRANCH  18  22
HETATM   22  C           1     -10.513   9.418 -19.368  0.00  0.00     0.200 C 
BRANCH  22  23
HETATM   23  O           1     -10.300   8.810 -18.123  0.00  0.00    -0.398 OA
HETATM   24  H           1      -9.569   9.251 -17.725  0.00  0.00     0.209 HD
ENDBRANCH  22  23
ENDBRANCH  18  22
ENDBRANCH  16  18
ENDBRANCH   1  14
TORSDOF 5
ENDMDL
MODEL 3
REMARK VINA RESULT:      -5.5      1.726      2.534
REMARK  5 active torsions:
REMARK  status: ('A' for Active; 'I' for Inactive)
REMARK    1  A    between atoms: C_2  and  C_24 
REMARK    2  A    between atoms: C_5  and  C_6 
REMARK    3  A    between atoms: C_6  and  C_20 
REMARK    4  A    between atoms: C_6  and  N_23 
REMARK    5  A    between atoms: O_18  and  C_20 
REMARK       I    between atoms: N_23  and  C_24 
ROOT
HETATM    1  C           1     -19.787  -4.800  -6.789  0.00  0.00     0.274 C 
HETATM    2  C           1     -21.386  -7.725  -5.558  0.00  0.00     0.027 C 
HETATM    3  C           1     -21.388  -6.700  -6.683  0.00  0.00     0.004 C 
HETATM    4  C           1     -20.737  -7.119  -4.319  0.00  0.00     0.229 C 
HETATM    5  H           1     -19.972  -3.439  -5.208  0.00  0.00     0.275 HD
HETATM    6  H           1     -21.072  -4.743  -5.136  0.00  0.00     0.275 HD
HETATM    7  C           1     -19.955  -6.298  -7.007  0.00  0.00     0.042 C 
HETATM    8  N           1     -20.088  -4.467  -5.357  0.00  0.00    -0.067 N 
HETATM    9  H           1     -21.511  -5.204  -4.663  0.00  0.00     0.274 HD
HETATM   10  H           1     -19.432  -4.987  -4.732  0.00  0.00     0.275 HD
HETATM   11  H           1     -22.494  -6.184  -3.669  0.00  0.00     0.274 HD
HETATM   12  H           1     -21.066  -5.493  -3.041  0.00  0.00     0.274 HD
HETATM   13  N           1     -21.511  -5.908  -3.890  0.00  0.00    -0.079 N 
ENDROOT
BRANCH   1  14
HETATM   14  C           1     -20.735  -4.049  -7.690  0.00  0.00     0.249 C 
HETATM   15  O           1     -21.509  -3.249  -7.220  0.00  0.00    -0.271 OA
HETATM   16  N           1     -20.719  -4.274  -9.040  0.00  0.00    -0.343 N 
HETATM   17  H           1     -20.071  -4.944  -9.434  0.00  0.00     0.163 HD
BRANCH  16  18
HETATM   18  C           1     -21.631  -3.551  -9.906  0.00  0.00     0.209 C 
BRANCH  18  19
HETATM   19  C           1     -22.737  -4.475 -10.355  0.00  0.00     0.198 C 
HETATM   20  O           1     -22.794  -4.848 -11.546  0.00  0.00    -0.646 OA
HETATM   21  O           1     -23.596  -4.866  -9.535  0.00  0.00    -0.646 OA
ENDBRANCH  18  19
BRANCH  18  22
HETATM   22  C           1     -20.874  -3.036 -11.123  0.00  0.00     0.200 C 
BRANCH  22  23
HETATM   23  O           1     -19.990  -4.025 -11.578  0.00  0.00    -0.398 OA
HETATM   24  H           1     -19.136  -3.631 -11.621  0.00  0.00     0.209 HD
ENDBRANCH  22  23
ENDBRANCH  18  22
ENDBRANCH  16  18
ENDBRANCH   1  14
TORSDOF 5
ENDMDL
MODEL 4
REMARK VINA RESULT:      -5.5      3.265      5.858
REMARK  5 active torsions:
REMARK  status: ('A' for Active; 'I' for Inactive)
REMARK    1  A    between atoms: C_2  and  C_24 
REMARK    2  A    between atoms: C_5  and  C_6 
REMARK    3  A    between atoms: C_6  and  C_20 
REMARK    4  A    between atoms: C_6  and  N_23 
REMARK    5  A    between atoms: O_18  and  C_20 
REMARK       I    between atoms: N_23  and  C_24 
ROOT
HETATM    1  C           1     -20.248  -3.999  -7.541  0.00  0.00     0.274 C 
HETATM    2  C           1     -23.225  -3.640  -9.448  0.00  0.00     0.027 C 
HETATM    3  C           1     -22.642  -4.233  -8.173  0.00  0.00     0.004 C 
HETATM    4  C           1     -22.114  -3.444 -10.472  0.00  0.00     0.229 C 
HETATM    5  H           1     -18.919  -4.915  -8.876  0.00  0.00     0.275 HD
HETATM    6  H           1     -20.563  -5.077  -9.309  0.00  0.00     0.275 HD
HETATM    7  C           1     -21.592  -3.287  -7.606  0.00  0.00     0.042 C 
HETATM    8  N           1     -19.842  -4.427  -8.921  0.00  0.00    -0.067 N 
HETATM    9  H           1     -21.077  -5.172  -9.906  0.00  0.00     0.274 HD
HETATM   10  H           1     -19.763  -3.587  -9.538  0.00  0.00     0.275 HD
HETATM   11  H           1     -22.199  -5.416 -11.170  0.00  0.00     0.274 HD
HETATM   12  H           1     -20.716  -4.632 -11.484  0.00  0.00     0.274 HD
HETATM   13  N           1     -21.478  -4.766 -10.782  0.00  0.00    -0.079 N 
ENDROOT
BRANCH   1  14
HETATM   14  C           1     -20.362  -5.212  -6.652  0.00  0.00     0.249 C 
HETATM   15  O           1     -20.035  -6.299  -7.068  0.00  0.00    -0.271 OA
HETATM   16  N           1     -20.836  -5.082  -5.375  0.00  0.00    -0.343 N 
HETATM   17  H           1     -21.110  -4.173  -5.026  0.00  0.00     0.163 HD
BRANCH  16  18
HETATM   18  C           1     -20.945  -6.249  -4.521  0.00  0.00     0.209 C 
BRANCH  18  19
HETATM   19  C           1     -22.208  -7.004  -4.860  0.00  0.00     0.198 C 
HETATM   20  O           1     -23.249  -6.379  -5.154  0.00  0.00    -0.646 OA
HETATM   21  O           1     -22.211  -8.254  -4.846  0.00  0.00    -0.646 OA
ENDBRANCH  18  19
BRANCH  18  22
HETATM   22  C           1     -20.993  -5.808  -3.063  0.00  0.00     0.200 C 
BRANCH  22  23
HETATM   23  O           1     -22.281  -6.023  -2.551  0.00  0.00    -0.398 OA
HETATM   24  H           1     -22.321  -5.585  -1.718  0.00  0.00     0.209 HD
ENDBRANCH  22  23
ENDBRANCH  18  22
ENDBRANCH  16  18
ENDBRANCH   1  14
TORSDOF 5
ENDMDL
MODEL 5
REMARK VINA RESULT:      -5.4     18.036     19.606
REMARK  5 active torsions:
REMARK  status: ('A' for Active; 'I' for Inactive)
REMARK    1  A    between atoms: C_2  and  C_24 
REMARK    2  A    between atoms: C_5  and  C_6 
REMARK    3  A    between atoms: C_6  and  C_20 
REMARK    4  A    between atoms: C_6  and  N_23 
REMARK    5  A    between atoms: O_18  and  C_20 
REMARK       I    between atoms: N_23  and  C_24 
ROOT
HETATM    1  C           1     -10.671   4.441 -20.070  0.00  0.00     0.274 C 
HETATM    2  C           1     -12.706   3.742 -22.899  0.00  0.00     0.027 C 
HETATM    3  C           1     -11.609   4.652 -22.364  0.00  0.00     0.004 C 
HETATM    4  C           1     -13.493   3.156 -21.733  0.00  0.00     0.229 C 
HETATM    5  H           1     -12.061   4.798 -18.544  0.00  0.00     0.275 HD
HETATM    6  H           1     -12.704   4.945 -20.119  0.00  0.00     0.275 HD
HETATM    7  C           1     -10.671   3.849 -21.473  0.00  0.00     0.042 C 
HETATM    8  N           1     -12.061   4.392 -19.507  0.00  0.00    -0.067 N 
HETATM    9  H           1     -13.356   4.891 -20.568  0.00  0.00     0.274 HD
HETATM   10  H           1     -12.386   3.400 -19.467  0.00  0.00     0.275 HD
HETATM   11  H           1     -14.752   4.819 -21.548  0.00  0.00     0.274 HD
HETATM   12  H           1     -14.649   3.866 -20.137  0.00  0.00     0.274 HD
HETATM   13  N           1     -14.109   4.267 -20.936  0.00  0.00    -0.079 N 
ENDROOT
BRANCH   1  14
HETATM   14  C           1     -10.203   5.874 -20.128  0.00  0.00     0.249 C 
HETATM   15  O           1      -9.021   6.125 -20.108  0.00  0.00    -0.271 OA
HETATM   16  N           1     -11.117   6.891 -20.201  0.00  0.00    -0.343 N 
HETATM   17  H           1     -12.107   6.681 -20.217  0.00  0.00     0.163 HD
BRANCH  16  18
HETATM   18  C           1     -10.666   8.267 -20.257  0.00  0.00     0.209 C 
BRANCH  18  19
HETATM   19  C           1     -10.938   8.940 -18.933  0.00  0.00     0.198 C 
HETATM   20  O           1     -10.001   9.138 -18.130  0.00  0.00    -0.646 OA
HETATM   21  O           1     -12.099   9.297 -18.641  0.00  0.00    -0.646 OA
ENDBRANCH  18  19
BRANCH  18  22
HETATM   22  C           1     -11.414   9.002 -21.362  0.00  0.00     0.200 C 
BRANCH  22  23
HETATM   23  O           1     -11.174  10.379 -21.256  0.00  0.00    -0.398 OA
HETATM   24  H           1     -11.990  10.814 -21.434  0.00  0.00     0.209 HD
ENDBRANCH  22  23
ENDBRANCH  18  22
ENDBRANCH  16  18
ENDBRANCH   1  14
TORSDOF 5
ENDMDL
MODEL 6
REMARK VINA RESULT:      -5.4      3.663      6.357
REMARK  5 active torsions:
REMARK  status: ('A' for Active; 'I' for Inactive)
REMARK    1  A    between atoms: C_2  and  C_24 
REMARK    2  A    between atoms: C_5  and  C_6 
REMARK    3  A    between atoms: C_6  and  C_20 
REMARK    4  A    between atoms: C_6  and  N_23 
REMARK    5  A    between atoms: O_18  and  C_20 
REMARK       I    between atoms: N_23  and  C_24 
ROOT
HETATM    1  C           1     -20.465  -4.301  -7.097  0.00  0.00     0.274 C 
HETATM    2  C           1     -22.397  -3.854 -10.047  0.00  0.00     0.027 C 
HETATM    3  C           1     -22.346  -4.569  -8.704  0.00  0.00     0.004 C 
HETATM    4  C           1     -20.984  -3.484 -10.480  0.00  0.00     0.229 C 
HETATM    5  H           1     -18.622  -4.987  -7.819  0.00  0.00     0.275 HD
HETATM    6  H           1     -19.914  -5.172  -8.921  0.00  0.00     0.275 HD
HETATM    7  C           1     -21.721  -3.650  -7.662  0.00  0.00     0.042 C 
HETATM    8  N           1     -19.484  -4.540  -8.207  0.00  0.00    -0.067 N 
HETATM    9  H           1     -20.121  -5.218  -9.686  0.00  0.00     0.274 HD
HETATM   10  H           1     -19.234  -3.629  -8.654  0.00  0.00     0.275 HD
HETATM   11  H           1     -20.587  -5.360 -11.322  0.00  0.00     0.274 HD
HETATM   12  H           1     -19.189  -4.475 -10.906  0.00  0.00     0.274 HD
HETATM   13  N           1     -20.157  -4.728 -10.608  0.00  0.00    -0.079 N 
ENDROOT
BRANCH   1  14
HETATM   14  C           1     -20.826  -5.617  -6.453  0.00  0.00     0.249 C 
HETATM   15  O           1     -21.027  -6.590  -7.140  0.00  0.00    -0.271 OA
HETATM   16  N           1     -20.926  -5.707  -5.091  0.00  0.00    -0.343 N 
HETATM   17  H           1     -20.759  -4.892  -4.516  0.00  0.00     0.163 HD
BRANCH  16  18
HETATM   18  C           1     -21.273  -6.972  -4.473  0.00  0.00     0.209 C 
BRANCH  18  19
HETATM   19  C           1     -21.575  -6.752  -3.011  0.00  0.00     0.198 C 
HETATM   20  O           1     -20.931  -7.376  -2.140  0.00  0.00    -0.646 OA
HETATM   21  O           1     -22.468  -5.946  -2.672  0.00  0.00    -0.646 OA
ENDBRANCH  18  19
BRANCH  18  22
HETATM   22  C           1     -20.105  -7.941  -4.610  0.00  0.00     0.200 C 
BRANCH  22  23
HETATM   23  O           1     -20.450  -8.969  -5.499  0.00  0.00    -0.398 OA
HETATM   24  H           1     -19.669  -9.471  -5.654  0.00  0.00     0.209 HD
ENDBRANCH  22  23
ENDBRANCH  18  22
ENDBRANCH  16  18
ENDBRANCH   1  14
TORSDOF 5
ENDMDL
MODEL 7
REMARK VINA RESULT:      -5.1      6.358      8.552
REMARK  5 active torsions:
REMARK  status: ('A' for Active; 'I' for Inactive)
REMARK    1  A    between atoms: C_2  and  C_24 
REMARK    2  A    between atoms: C_5  and  C_6 
REMARK    3  A    between atoms: C_6  and  C_20 
REMARK    4  A    between atoms: C_6  and  N_23 
REMARK    5  A    between atoms: O_18  and  C_20 
REMARK       I    between atoms: N_23  and  C_24 
ROOT
HETATM    1  C           1     -21.579 -11.156  -2.594  0.00  0.00     0.274 C 
HETATM    2  C           1     -23.893 -11.221   0.102  0.00  0.00     0.027 C 
HETATM    3  C           1     -23.206 -10.316  -0.910  0.00  0.00     0.004 C 
HETATM    4  C           1     -23.055 -12.475   0.315  0.00  0.00     0.229 C 
HETATM    5  H           1     -19.839 -11.974  -1.765  0.00  0.00     0.275 HD
HETATM    6  H           1     -20.955 -11.396  -0.609  0.00  0.00     0.275 HD
HETATM    7  C           1     -23.055 -11.055  -2.234  0.00  0.00     0.042 C 
HETATM    8  N           1     -20.852 -11.905  -1.517  0.00  0.00    -0.067 N 
HETATM    9  H           1     -21.227 -11.469   0.133  0.00  0.00     0.274 HD
HETATM   10  H           1     -21.255 -12.865  -1.426  0.00  0.00     0.275 HD
HETATM   11  H           1     -21.803 -11.581   1.736  0.00  0.00     0.274 HD
HETATM   12  H           1     -21.124 -12.949   0.975  0.00  0.00     0.274 HD
HETATM   13  N           1     -21.699 -12.090   0.828  0.00  0.00    -0.079 N 
ENDROOT
BRANCH   1  14
HETATM   14  C           1     -20.996  -9.770  -2.724  0.00  0.00     0.249 C 
HETATM   15  O           1     -20.089  -9.427  -2.004  0.00  0.00    -0.271 OA
HETATM   16  N           1     -21.495  -8.902  -3.658  0.00  0.00    -0.343 N 
HETATM   17  H           1     -22.256  -9.189  -4.261  0.00  0.00     0.163 HD
BRANCH  16  18
HETATM   18  C           1     -20.934  -7.571  -3.782  0.00  0.00     0.209 C 
BRANCH  18  19
HETATM   19  C           1     -22.034  -6.547  -3.649  0.00  0.00     0.198 C 
HETATM   20  O           1     -22.676  -6.185  -4.659  0.00  0.00    -0.646 OA
HETATM   21  O           1     -22.304  -6.060  -2.530  0.00  0.00    -0.646 OA
ENDBRANCH  18  19
BRANCH  18  22
HETATM   22  C           1     -20.268  -7.427  -5.145  0.00  0.00     0.200 C 
BRANCH  22  23
HETATM   23  O           1     -21.096  -7.980  -6.132  0.00  0.00    -0.398 OA
HETATM   24  H           1     -20.968  -8.912  -6.106  0.00  0.00     0.209 HD
ENDBRANCH  22  23
ENDBRANCH  18  22
ENDBRANCH  16  18
ENDBRANCH   1  14
TORSDOF 5
ENDMDL
MODEL 8
REMARK VINA RESULT:      -5.0      5.052      7.618
REMARK  5 active torsions:
REMARK  status: ('A' for Active; 'I' for Inactive)
REMARK    1  A    between atoms: C_2  and  C_24 
REMARK    2  A    between atoms: C_5  and  C_6 
REMARK    3  A    between atoms: C_6  and  C_20 
REMARK    4  A    between atoms: C_6  and  N_23 
REMARK    5  A    between atoms: O_18  and  C_20 
REMARK       I    between atoms: N_23  and  C_24 
ROOT
HETATM    1  C           1     -21.779  -6.530  -5.714  0.00  0.00     0.274 C 
HETATM    2  C           1     -19.573  -4.436  -7.552  0.00  0.00     0.027 C 
HETATM    3  C           1     -19.745  -5.201  -6.248  0.00  0.00     0.004 C 
HETATM    4  C           1     -20.942  -4.129  -8.146  0.00  0.00     0.229 C 
HETATM    5  H           1     -23.530  -5.390  -5.570  0.00  0.00     0.275 HD
HETATM    6  H           1     -22.133  -4.478  -5.935  0.00  0.00     0.275 HD
HETATM    7  C           1     -20.485  -6.505  -6.516  0.00  0.00     0.042 C 
HETATM    8  N           1     -22.642  -5.372  -6.121  0.00  0.00    -0.067 N 
HETATM    9  H           1     -21.851  -3.823  -6.284  0.00  0.00     0.274 HD
HETATM   10  H           1     -22.862  -5.443  -7.140  0.00  0.00     0.275 HD
HETATM   11  H           1     -21.224  -2.403  -6.994  0.00  0.00     0.274 HD
HETATM   12  H           1     -22.671  -3.086  -7.586  0.00  0.00     0.274 HD
HETATM   13  N           1     -21.732  -3.297  -7.180  0.00  0.00    -0.079 N 
ENDROOT
BRANCH   1  14
HETATM   14  C           1     -21.462  -6.427  -4.242  0.00  0.00     0.249 C 
HETATM   15  O           1     -21.083  -5.378  -3.778  0.00  0.00    -0.271 OA
HETATM   16  N           1     -21.603  -7.522  -3.433  0.00  0.00    -0.343 N 
HETATM   17  H           1     -21.919  -8.401  -3.822  0.00  0.00     0.163 HD
BRANCH  16  18
HETATM   18  C           1     -21.298  -7.422  -2.019  0.00  0.00     0.209 C 
BRANCH  18  19
HETATM   19  C           1     -21.357  -8.794  -1.394  0.00  0.00     0.198 C 
HETATM   20  O           1     -20.781  -9.010  -0.306  0.00  0.00    -0.646 OA
HETATM   21  O           1     -21.982  -9.715  -1.964  0.00  0.00    -0.646 OA
ENDBRANCH  18  19
BRANCH  18  22
HETATM   22  C           1     -22.316  -6.512  -1.344  0.00  0.00     0.200 C 
BRANCH  22  23
HETATM   23  O           1     -23.012  -7.233  -0.364  0.00  0.00    -0.398 OA
HETATM   24  H           1     -22.708  -6.924   0.472  0.00  0.00     0.209 HD
ENDBRANCH  22  23
ENDBRANCH  18  22
ENDBRANCH  16  18
ENDBRANCH   1  14
TORSDOF 5
ENDMDL
MODEL 9
REMARK VINA RESULT:      -4.8      3.056      5.191
REMARK  5 active torsions:
REMARK  status: ('A' for Active; 'I' for Inactive)
REMARK    1  A    between atoms: C_2  and  C_24 
REMARK    2  A    between atoms: C_5  and  C_6 
REMARK    3  A    between atoms: C_6  and  C_20 
REMARK    4  A    between atoms: C_6  and  N_23 
REMARK    5  A    between atoms: O_18  and  C_20 
REMARK       I    between atoms: N_23  and  C_24 
ROOT
HETATM    1  C           1     -21.720  -8.117  -4.850  0.00  0.00     0.274 C 
HETATM    2  C           1     -21.942  -6.189  -1.873  0.00  0.00     0.027 C 
HETATM    3  C           1     -21.592  -6.134  -3.354  0.00  0.00     0.004 C 
HETATM    4  C           1     -21.795  -7.618  -1.368  0.00  0.00     0.229 C 
HETATM    5  H           1     -20.402  -9.662  -4.336  0.00  0.00     0.275 HD
HETATM    6  H           1     -20.313  -8.299  -3.309  0.00  0.00     0.275 HD
HETATM    7  C           1     -22.531  -7.047  -4.133  0.00  0.00     0.042 C 
HETATM    8  N           1     -20.958  -8.927  -3.842  0.00  0.00    -0.067 N 
HETATM    9  H           1     -20.140  -8.039  -2.580  0.00  0.00     0.274 HD
HETATM   10  H           1     -21.628  -9.381  -3.181  0.00  0.00     0.275 HD
HETATM   11  H           1     -19.735  -7.448  -1.030  0.00  0.00     0.274 HD
HETATM   12  H           1     -20.278  -9.055  -1.217  0.00  0.00     0.274 HD
HETATM   13  N           1     -20.380  -8.075  -1.563  0.00  0.00    -0.079 N 
ENDROOT
BRANCH   1  14
HETATM   14  C           1     -20.751  -7.462  -5.804  0.00  0.00     0.249 C 
HETATM   15  O           1     -19.602  -7.831  -5.845  0.00  0.00    -0.271 OA
HETATM   16  N           1     -21.176  -6.449  -6.622  0.00  0.00    -0.343 N 
HETATM   17  H           1     -22.139  -6.140  -6.586  0.00  0.00     0.163 HD
BRANCH  16  18
HETATM   18  C           1     -20.245  -5.820  -7.538  0.00  0.00     0.209 C 
BRANCH  18  19
HETATM   19  C           1     -19.457  -4.760  -6.806  0.00  0.00     0.198 C 
HETATM   20  O           1     -19.843  -4.357  -5.688  0.00  0.00    -0.646 OA
HETATM   21  O           1     -18.421  -4.286  -7.319  0.00  0.00    -0.646 OA
ENDBRANCH  18  19
BRANCH  18  22
HETATM   22  C           1     -21.016  -5.179  -8.684  0.00  0.00     0.200 C 
BRANCH  22  23
HETATM   23  O           1     -21.236  -3.824  -8.400  0.00  0.00    -0.398 OA
HETATM   24  H           1     -20.394  -3.403  -8.404  0.00  0.00     0.209 HD
ENDBRANCH  22  23
ENDBRANCH  18  22
ENDBRANCH  16  18
ENDBRANCH   1  14
TORSDOF 5
ENDMDL
