MODEL 1
REMARK VINA RESULT:      -6.4      0.000      0.000
REMARK  12 active torsions:
REMARK  status: ('A' for Active; 'I' for Inactive)
REMARK    1  A    between atoms: N_2  and  C_20 
REMARK    2  A    between atoms: C_5  and  C_20 
REMARK    3  A    between atoms: C_5  and  C_23 
REMARK       I    between atoms: C_9  and  N_25 
REMARK    4  A    between atoms: C_9  and  C_11 
REMARK    5  A    between atoms: C_10  and  C_18 
REMARK    6  A    between atoms: C_10  and  N_15 
REMARK    7  A    between atoms: C_11  and  C_17 
REMARK    8  A    between atoms: C_11  and  N_27 
REMARK    9  A    between atoms: C_16  and  C_21 
REMARK   10  A    between atoms: C_17  and  C_18 
REMARK   11  A    between atoms: C_21  and  C_23 
REMARK   12  A    between atoms: C_21  and  N_25 
ROOT
HETATM    1  O           1     -33.611  -2.226 -11.143  0.00  0.00    -0.271 OA
HETATM    2  C           1     -34.281  -2.593 -12.079  0.00  0.00     0.249 C 
HETATM    3  H           1     -35.635  -2.004 -13.530  0.00  0.00     0.163 HD
HETATM    4  N           1     -35.074  -1.698 -12.746  0.00  0.00    -0.345 N 
ENDROOT
BRANCH   2   5
HETATM    5  C           1     -34.243  -4.037 -12.514  0.00  0.00     0.274 C 
BRANCH   5   6
HETATM    6  C           1     -33.451  -4.853 -11.501  0.00  0.00     0.044 C 
BRANCH   6   7
HETATM    7  C           1     -34.408  -5.498 -10.508  0.00  0.00     0.030 C 
BRANCH   7   8
HETATM    8  C           1     -34.304  -7.014 -10.612  0.00  0.00     0.230 C 
BRANCH   8   9
HETATM    9  N           1     -35.107  -7.647  -9.515  0.00  0.00    -0.079 N 
HETATM   10  H           1     -35.989  -8.043  -9.913  0.00  0.00     0.274 HD
HETATM   11  H           1     -35.343  -6.927  -8.795  0.00  0.00     0.274 HD
HETATM   12  H           1     -34.550  -8.412  -9.073  0.00  0.00     0.274 HD
ENDBRANCH   8   9
ENDBRANCH   7   8
ENDBRANCH   6   7
ENDBRANCH   5   6
BRANCH   5  13
HETATM   13  N           1     -33.587  -4.137 -13.859  0.00  0.00    -0.067 N 
HETATM   14  H           1     -34.321  -4.175 -14.603  0.00  0.00     0.275 HD
HETATM   15  H           1     -32.979  -3.302 -14.012  0.00  0.00     0.275 HD
HETATM   16  H           1     -33.006  -5.006 -13.900  0.00  0.00     0.275 HD
ENDBRANCH   5  13
ENDBRANCH   2   5
BRANCH   4  17
HETATM   17  C           1     -35.110  -0.309 -12.328  0.00  0.00     0.185 C 
BRANCH  17  18
HETATM   18  C           1     -36.380  -0.050 -11.556  0.00  0.00     0.196 C 
HETATM   19  O           1     -37.471  -0.484 -11.985  0.00  0.00    -0.646 OA
HETATM   20  O           1     -36.341   0.598 -10.488  0.00  0.00    -0.646 OA
ENDBRANCH  17  18
BRANCH  17  21
HETATM   21  C           1     -35.069   0.590 -13.556  0.00  0.00     0.038 C 
BRANCH  21  22
HETATM   22  C           1     -35.425  -0.223 -14.793  0.00  0.00     0.030 C 
BRANCH  22  23
HETATM   23  C           1     -36.731   0.292 -15.383  0.00  0.00     0.230 C 
BRANCH  23  24
HETATM   24  N           1     -36.509   1.649 -15.983  0.00  0.00    -0.079 N 
HETATM   25  H           1     -35.506   1.920 -15.868  0.00  0.00     0.274 HD
HETATM   26  H           1     -37.115   2.349 -15.499  0.00  0.00     0.274 HD
HETATM   27  H           1     -36.749   1.624 -16.999  0.00  0.00     0.274 HD
ENDBRANCH  23  24
ENDBRANCH  22  23
ENDBRANCH  21  22
ENDBRANCH  17  21
ENDBRANCH   4  17
TORSDOF 12
ENDMDL
MODEL 2
REMARK VINA RESULT:      -6.0     12.236     13.852
REMARK  12 active torsions:
REMARK  status: ('A' for Active; 'I' for Inactive)
REMARK    1  A    between atoms: N_2  and  C_20 
REMARK    2  A    between atoms: C_5  and  C_20 
REMARK    3  A    between atoms: C_5  and  C_23 
REMARK       I    between atoms: C_9  and  N_25 
REMARK    4  A    between atoms: C_9  and  C_11 
REMARK    5  A    between atoms: C_10  and  C_18 
REMARK    6  A    between atoms: C_10  and  N_15 
REMARK    7  A    between atoms: C_11  and  C_17 
REMARK    8  A    between atoms: C_11  and  N_27 
REMARK    9  A    between atoms: C_16  and  C_21 
REMARK   10  A    between atoms: C_17  and  C_18 
REMARK   11  A    between atoms: C_21  and  C_23 
REMARK   12  A    between atoms: C_21  and  N_25 
ROOT
HETATM    1  O           1     -21.552  -3.351  -7.297  0.00  0.00    -0.271 OA
HETATM    2  C           1     -21.564  -4.490  -7.700  0.00  0.00     0.249 C 
HETATM    3  H           1     -22.111  -5.729  -9.265  0.00  0.00     0.163 HD
HETATM    4  N           1     -22.101  -4.776  -8.926  0.00  0.00    -0.345 N 
ENDROOT
BRANCH   2   5
HETATM    5  C           1     -20.986  -5.596  -6.853  0.00  0.00     0.274 C 
BRANCH   5   6
HETATM    6  C           1     -21.925  -5.890  -5.691  0.00  0.00     0.044 C 
BRANCH   6   7
HETATM    7  C           1     -21.143  -5.862  -4.385  0.00  0.00     0.030 C 
BRANCH   7   8
HETATM    8  C           1     -21.868  -6.698  -3.339  0.00  0.00     0.230 C 
BRANCH   8   9
HETATM    9  N           1     -22.271  -5.822  -2.190  0.00  0.00    -0.079 N 
HETATM   10  H           1     -22.311  -4.827  -2.508  0.00  0.00     0.274 HD
HETATM   11  H           1     -21.571  -5.914  -1.419  0.00  0.00     0.274 HD
HETATM   12  H           1     -23.212  -6.115  -1.842  0.00  0.00     0.274 HD
ENDBRANCH   8   9
ENDBRANCH   7   8
ENDBRANCH   6   7
ENDBRANCH   5   6
BRANCH   5  13
HETATM   13  N           1     -19.650  -5.172  -6.320  0.00  0.00    -0.067 N 
HETATM   14  H           1     -18.973  -5.964  -6.405  0.00  0.00     0.275 HD
HETATM   15  H           1     -19.300  -4.355  -6.869  0.00  0.00     0.275 HD
HETATM   16  H           1     -19.745  -4.902  -5.314  0.00  0.00     0.275 HD
ENDBRANCH   5  13
ENDBRANCH   2   5
BRANCH   4  17
HETATM   17  C           1     -22.657  -3.712  -9.741  0.00  0.00     0.185 C 
BRANCH  17  18
HETATM   18  C           1     -24.161  -3.826  -9.758  0.00  0.00     0.196 C 
HETATM   19  O           1     -24.702  -4.901 -10.098  0.00  0.00    -0.646 OA
HETATM   20  O           1     -24.866  -2.848  -9.431  0.00  0.00    -0.646 OA
ENDBRANCH  17  18
BRANCH  17  21
HETATM   21  C           1     -22.123  -3.831 -11.162  0.00  0.00     0.038 C 
BRANCH  21  22
HETATM   22  C           1     -22.486  -2.578 -11.948  0.00  0.00     0.030 C 
BRANCH  22  23
HETATM   23  C           1     -23.050  -2.975 -13.306  0.00  0.00     0.230 C 
BRANCH  23  24
HETATM   24  N           1     -23.822  -4.254 -13.173  0.00  0.00    -0.079 N 
HETATM   25  H           1     -24.315  -4.458 -14.072  0.00  0.00     0.274 HD
HETATM   26  H           1     -24.524  -4.160 -12.405  0.00  0.00     0.274 HD
HETATM   27  H           1     -23.165  -5.036 -12.951  0.00  0.00     0.274 HD
ENDBRANCH  23  24
ENDBRANCH  22  23
ENDBRANCH  21  22
ENDBRANCH  17  21
ENDBRANCH   4  17
TORSDOF 12
ENDMDL
MODEL 3
REMARK VINA RESULT:      -5.7     12.809     15.589
REMARK  12 active torsions:
REMARK  status: ('A' for Active; 'I' for Inactive)
REMARK    1  A    between atoms: N_2  and  C_20 
REMARK    2  A    between atoms: C_5  and  C_20 
REMARK    3  A    between atoms: C_5  and  C_23 
REMARK       I    between atoms: C_9  and  N_25 
REMARK    4  A    between atoms: C_9  and  C_11 
REMARK    5  A    between atoms: C_10  and  C_18 
REMARK    6  A    between atoms: C_10  and  N_15 
REMARK    7  A    between atoms: C_11  and  C_17 
REMARK    8  A    between atoms: C_11  and  N_27 
REMARK    9  A    between atoms: C_16  and  C_21 
REMARK   10  A    between atoms: C_17  and  C_18 
REMARK   11  A    between atoms: C_21  and  C_23 
REMARK   12  A    between atoms: C_21  and  N_25 
ROOT
HETATM    1  O           1     -21.489  -3.419  -8.640  0.00  0.00    -0.271 OA
HETATM    2  C           1     -22.279  -4.270  -8.307  0.00  0.00     0.249 C 
HETATM    3  H           1     -22.719  -5.715  -6.892  0.00  0.00     0.163 HD
HETATM    4  N           1     -22.057  -5.003  -7.172  0.00  0.00    -0.345 N 
ENDROOT
BRANCH   2   5
HETATM    5  C           1     -23.510  -4.525  -9.142  0.00  0.00     0.274 C 
BRANCH   5   6
HETATM    6  C           1     -23.127  -4.557 -10.616  0.00  0.00     0.044 C 
BRANCH   6   7
HETATM    7  C           1     -23.834  -3.424 -11.348  0.00  0.00     0.030 C 
BRANCH   7   8
HETATM    8  C           1     -22.812  -2.601 -12.120  0.00  0.00     0.230 C 
BRANCH   8   9
HETATM    9  N           1     -21.429  -3.059 -11.764  0.00  0.00    -0.079 N 
HETATM   10  H           1     -21.473  -3.682 -10.926  0.00  0.00     0.274 HD
HETATM   11  H           1     -20.832  -2.228 -11.547  0.00  0.00     0.274 HD
HETATM   12  H           1     -21.017  -3.583 -12.568  0.00  0.00     0.274 HD
ENDBRANCH   8   9
ENDBRANCH   7   8
ENDBRANCH   6   7
ENDBRANCH   5   6
BRANCH   5  13
HETATM   13  N           1     -24.508  -3.431  -8.908  0.00  0.00    -0.067 N 
HETATM   14  H           1     -24.017  -2.582  -8.546  0.00  0.00     0.275 HD
HETATM   15  H           1     -24.988  -3.199  -9.806  0.00  0.00     0.275 HD
HETATM   16  H           1     -25.215  -3.748  -8.206  0.00  0.00     0.275 HD
ENDBRANCH   5  13
ENDBRANCH   2   5
BRANCH   4  17
HETATM   17  C           1     -20.875  -4.757  -6.370  0.00  0.00     0.185 C 
BRANCH  17  18
HETATM   18  C           1     -19.662  -5.302  -7.083  0.00  0.00     0.196 C 
HETATM   19  O           1     -18.711  -4.542  -7.368  0.00  0.00    -0.646 OA
HETATM   20  O           1     -19.608  -6.512  -7.389  0.00  0.00    -0.646 OA
ENDBRANCH  17  18
BRANCH  17  21
HETATM   21  C           1     -21.025  -5.450  -5.021  0.00  0.00     0.038 C 
BRANCH  21  22
HETATM   22  C           1     -22.186  -6.433  -5.082  0.00  0.00     0.030 C 
BRANCH  22  23
HETATM   23  C           1     -21.706  -7.814  -4.657  0.00  0.00     0.230 C 
BRANCH  23  24
HETATM   24  N           1     -21.136  -8.533  -5.844  0.00  0.00    -0.079 N 
HETATM   25  H           1     -21.729  -9.364  -6.066  0.00  0.00     0.274 HD
HETATM   26  H           1     -20.163  -8.847  -5.628  0.00  0.00     0.274 HD
HETATM   27  H           1     -21.119  -7.887  -6.666  0.00  0.00     0.274 HD
ENDBRANCH  23  24
ENDBRANCH  22  23
ENDBRANCH  21  22
ENDBRANCH  17  21
ENDBRANCH   4  17
TORSDOF 12
ENDMDL
MODEL 4
REMARK VINA RESULT:      -5.4     14.431     17.283
REMARK  12 active torsions:
REMARK  status: ('A' for Active; 'I' for Inactive)
REMARK    1  A    between atoms: N_2  and  C_20 
REMARK    2  A    between atoms: C_5  and  C_20 
REMARK    3  A    between atoms: C_5  and  C_23 
REMARK       I    between atoms: C_9  and  N_25 
REMARK    4  A    between atoms: C_9  and  C_11 
REMARK    5  A    between atoms: C_10  and  C_18 
REMARK    6  A    between atoms: C_10  and  N_15 
REMARK    7  A    between atoms: C_11  and  C_17 
REMARK    8  A    between atoms: C_11  and  N_27 
REMARK    9  A    between atoms: C_16  and  C_21 
REMARK   10  A    between atoms: C_17  and  C_18 
REMARK   11  A    between atoms: C_21  and  C_23 
REMARK   12  A    between atoms: C_21  and  N_25 
ROOT
HETATM    1  O           1     -22.621  -5.634  -5.712  0.00  0.00    -0.271 OA
HETATM    2  C           1     -21.419  -5.758  -5.718  0.00  0.00     0.249 C 
HETATM    3  H           1     -19.815  -6.770  -4.889  0.00  0.00     0.163 HD
HETATM    4  N           1     -20.821  -6.665  -4.884  0.00  0.00    -0.345 N 
ENDROOT
BRANCH   2   5
HETATM    5  C           1     -20.577  -4.916  -6.645  0.00  0.00     0.274 C 
BRANCH   5   6
HETATM    6  C           1     -21.442  -3.827  -7.267  0.00  0.00     0.044 C 
BRANCH   6   7
HETATM    7  C           1     -21.531  -4.047  -8.771  0.00  0.00     0.030 C 
BRANCH   7   8
HETATM    8  C           1     -22.993  -4.047  -9.200  0.00  0.00     0.230 C 
BRANCH   8   9
HETATM    9  N           1     -23.871  -4.064  -7.984  0.00  0.00    -0.079 N 
HETATM   10  H           1     -23.308  -3.798  -7.144  0.00  0.00     0.274 HD
HETATM   11  H           1     -24.264  -5.023  -7.851  0.00  0.00     0.274 HD
HETATM   12  H           1     -24.653  -3.382  -8.110  0.00  0.00     0.274 HD
ENDBRANCH   8   9
ENDBRANCH   7   8
ENDBRANCH   6   7
ENDBRANCH   5   6
BRANCH   5  13
HETATM   13  N           1     -20.008  -5.782  -7.728  0.00  0.00    -0.067 N 
HETATM   14  H           1     -19.433  -5.197  -8.376  0.00  0.00     0.275 HD
HETATM   15  H           1     -19.407  -6.522  -7.302  0.00  0.00     0.275 HD
HETATM   16  H           1     -20.787  -6.230  -8.262  0.00  0.00     0.275 HD
ENDBRANCH   5  13
ENDBRANCH   2   5
BRANCH   4  17
HETATM   17  C           1     -21.630  -7.475  -3.994  0.00  0.00     0.185 C 
BRANCH  17  18
HETATM   18  C           1     -21.616  -6.868  -2.612  0.00  0.00     0.196 C 
HETATM   19  O           1     -20.847  -7.323  -1.738  0.00  0.00    -0.646 OA
HETATM   20  O           1     -22.373  -5.912  -2.342  0.00  0.00    -0.646 OA
ENDBRANCH  17  18
BRANCH  17  21
HETATM   21  C           1     -21.059  -8.886  -3.934  0.00  0.00     0.038 C 
BRANCH  21  22
HETATM   22  C           1     -19.747  -8.936  -4.706  0.00  0.00     0.030 C 
BRANCH  22  23
HETATM   23  C           1     -18.615  -9.314  -3.760  0.00  0.00     0.230 C 
BRANCH  23  24
HETATM   24  N           1     -19.185  -9.715  -2.432  0.00  0.00    -0.079 N 
HETATM   25  H           1     -18.422  -9.732  -1.717  0.00  0.00     0.274 HD
HETATM   26  H           1     -19.611 -10.666  -2.508  0.00  0.00     0.274 HD
HETATM   27  H           1     -19.917  -9.027  -2.145  0.00  0.00     0.274 HD
ENDBRANCH  23  24
ENDBRANCH  22  23
ENDBRANCH  21  22
ENDBRANCH  17  21
ENDBRANCH   4  17
TORSDOF 12
ENDMDL
MODEL 5
REMARK VINA RESULT:      -5.4     14.625     17.114
REMARK  12 active torsions:
REMARK  status: ('A' for Active; 'I' for Inactive)
REMARK    1  A    between atoms: N_2  and  C_20 
REMARK    2  A    between atoms: C_5  and  C_20 
REMARK    3  A    between atoms: C_5  and  C_23 
REMARK       I    between atoms: C_9  and  N_25 
REMARK    4  A    between atoms: C_9  and  C_11 
REMARK    5  A    between atoms: C_10  and  C_18 
REMARK    6  A    between atoms: C_10  and  N_15 
REMARK    7  A    between atoms: C_11  and  C_17 
REMARK    8  A    between atoms: C_11  and  N_27 
REMARK    9  A    between atoms: C_16  and  C_21 
REMARK   10  A    between atoms: C_17  and  C_18 
REMARK   11  A    between atoms: C_21  and  C_23 
REMARK   12  A    between atoms: C_21  and  N_25 
ROOT
HETATM    1  O           1     -20.501  -4.293  -6.045  0.00  0.00    -0.271 OA
HETATM    2  C           1     -21.025  -5.123  -6.751  0.00  0.00     0.249 C 
HETATM    3  H           1     -21.605  -7.104  -6.896  0.00  0.00     0.163 HD
HETATM    4  N           1     -21.166  -6.410  -6.306  0.00  0.00    -0.345 N 
ENDROOT
BRANCH   2   5
HETATM    5  C           1     -21.524  -4.740  -8.123  0.00  0.00     0.274 C 
BRANCH   5   6
HETATM    6  C           1     -20.392  -4.100  -8.915  0.00  0.00     0.044 C 
BRANCH   6   7
HETATM    7  C           1     -20.509  -4.497 -10.380  0.00  0.00     0.030 C 
BRANCH   7   8
HETATM    8  C           1     -21.015  -3.311 -11.191  0.00  0.00     0.230 C 
BRANCH   8   9
HETATM    9  N           1     -21.581  -3.799 -12.491  0.00  0.00    -0.079 N 
HETATM   10  H           1     -21.529  -3.035 -13.202  0.00  0.00     0.274 HD
HETATM   11  H           1     -22.579  -4.079 -12.354  0.00  0.00     0.274 HD
HETATM   12  H           1     -21.031  -4.623 -12.823  0.00  0.00     0.274 HD
ENDBRANCH   8   9
ENDBRANCH   7   8
ENDBRANCH   6   7
ENDBRANCH   5   6
BRANCH   5  13
HETATM   13  N           1     -22.655  -3.764  -7.989  0.00  0.00    -0.067 N 
HETATM   14  H           1     -22.980  -3.475  -8.939  0.00  0.00     0.275 HD
HETATM   15  H           1     -23.443  -4.213  -7.472  0.00  0.00     0.275 HD
HETATM   16  H           1     -22.327  -2.922  -7.463  0.00  0.00     0.275 HD
ENDBRANCH   5  13
ENDBRANCH   2   5
BRANCH   4  17
HETATM   17  C           1     -20.687  -6.778  -4.987  0.00  0.00     0.185 C 
BRANCH  17  18
HETATM   18  C           1     -19.947  -8.090  -5.071  0.00  0.00     0.196 C 
HETATM   19  O           1     -19.229  -8.340  -6.063  0.00  0.00    -0.646 OA
HETATM   20  O           1     -20.052  -8.927  -4.149  0.00  0.00    -0.646 OA
ENDBRANCH  17  18
BRANCH  17  21
HETATM   21  C           1     -21.871  -6.921  -4.040  0.00  0.00     0.038 C 
BRANCH  21  22
HETATM   22  C           1     -21.631  -6.076  -2.796  0.00  0.00     0.030 C 
BRANCH  22  23
HETATM   23  C           1     -21.972  -6.890  -1.554  0.00  0.00     0.230 C 
BRANCH  23  24
HETATM   24  N           1     -20.963  -7.987  -1.383  0.00  0.00    -0.079 N 
HETATM   25  H           1     -21.359  -8.883  -1.746  0.00  0.00     0.274 HD
HETATM   26  H           1     -20.733  -8.094  -0.369  0.00  0.00     0.274 HD
HETATM   27  H           1     -20.095  -7.748  -1.914  0.00  0.00     0.274 HD
ENDBRANCH  23  24
ENDBRANCH  22  23
ENDBRANCH  21  22
ENDBRANCH  17  21
ENDBRANCH   4  17
TORSDOF 12
ENDMDL
MODEL 6
REMARK VINA RESULT:      -5.4     12.628     14.296
REMARK  12 active torsions:
REMARK  status: ('A' for Active; 'I' for Inactive)
REMARK    1  A    between atoms: N_2  and  C_20 
REMARK    2  A    between atoms: C_5  and  C_20 
REMARK    3  A    between atoms: C_5  and  C_23 
REMARK       I    between atoms: C_9  and  N_25 
REMARK    4  A    between atoms: C_9  and  C_11 
REMARK    5  A    between atoms: C_10  and  C_18 
REMARK    6  A    between atoms: C_10  and  N_15 
REMARK    7  A    between atoms: C_11  and  C_17 
REMARK    8  A    between atoms: C_11  and  N_27 
REMARK    9  A    between atoms: C_16  and  C_21 
REMARK   10  A    between atoms: C_17  and  C_18 
REMARK   11  A    between atoms: C_21  and  C_23 
REMARK   12  A    between atoms: C_21  and  N_25 
ROOT
HETATM    1  O           1     -20.626  -3.666  -7.447  0.00  0.00    -0.271 OA
HETATM    2  C           1     -21.493  -4.441  -7.119  0.00  0.00     0.249 C 
HETATM    3  H           1     -23.341  -5.230  -7.617  0.00  0.00     0.163 HD
HETATM    4  N           1     -22.615  -4.580  -7.891  0.00  0.00    -0.345 N 
ENDROOT
BRANCH   2   5
HETATM    5  C           1     -21.339  -5.256  -5.859  0.00  0.00     0.274 C 
BRANCH   5   6
HETATM    6  C           1     -20.334  -6.376  -6.098  0.00  0.00     0.044 C 
BRANCH   6   7
HETATM    7  C           1     -20.515  -7.455  -5.039  0.00  0.00     0.030 C 
BRANCH   7   8
HETATM    8  C           1     -19.433  -8.515  -5.202  0.00  0.00     0.230 C 
BRANCH   8   9
HETATM    9  N           1     -19.194  -9.193  -3.886  0.00  0.00    -0.079 N 
HETATM   10  H           1     -18.426  -8.702  -3.376  0.00  0.00     0.274 HD
HETATM   11  H           1     -18.922 -10.189  -4.052  0.00  0.00     0.274 HD
HETATM   12  H           1     -20.069  -9.162  -3.315  0.00  0.00     0.274 HD
ENDBRANCH   8   9
ENDBRANCH   7   8
ENDBRANCH   6   7
ENDBRANCH   5   6
BRANCH   5  13
HETATM   13  N           1     -22.664  -5.846  -5.480  0.00  0.00    -0.067 N 
HETATM   14  H           1     -22.801  -5.760  -4.447  0.00  0.00     0.275 HD
HETATM   15  H           1     -23.427  -5.335  -5.976  0.00  0.00     0.275 HD
HETATM   16  H           1     -22.686  -6.856  -5.751  0.00  0.00     0.275 HD
ENDBRANCH   5  13
ENDBRANCH   2   5
BRANCH   4  17
HETATM   17  C           1     -22.763  -3.797  -9.103  0.00  0.00     0.185 C 
BRANCH  17  18
HETATM   18  C           1     -24.208  -3.811  -9.536  0.00  0.00     0.196 C 
HETATM   19  O           1     -24.869  -2.750  -9.541  0.00  0.00    -0.646 OA
HETATM   20  O           1     -24.744  -4.883  -9.890  0.00  0.00    -0.646 OA
ENDBRANCH  17  18
BRANCH  17  21
HETATM   21  C           1     -21.897  -4.397 -10.203  0.00  0.00     0.038 C 
BRANCH  21  22
HETATM   22  C           1     -21.454  -3.296 -11.158  0.00  0.00     0.030 C 
BRANCH  22  23
HETATM   23  C           1     -22.285  -3.363 -12.432  0.00  0.00     0.230 C 
BRANCH  23  24
HETATM   24  N           1     -23.320  -2.277 -12.412  0.00  0.00    -0.079 N 
HETATM   25  H           1     -23.305  -1.799 -11.482  0.00  0.00     0.274 HD
HETATM   26  H           1     -24.265  -2.693 -12.573  0.00  0.00     0.274 HD
HETATM   27  H           1     -23.112  -1.583 -13.165  0.00  0.00     0.274 HD
ENDBRANCH  23  24
ENDBRANCH  22  23
ENDBRANCH  21  22
ENDBRANCH  17  21
ENDBRANCH   4  17
TORSDOF 12
ENDMDL
MODEL 7
REMARK VINA RESULT:      -5.3     13.895     16.720
REMARK  12 active torsions:
REMARK  status: ('A' for Active; 'I' for Inactive)
REMARK    1  A    between atoms: N_2  and  C_20 
REMARK    2  A    between atoms: C_5  and  C_20 
REMARK    3  A    between atoms: C_5  and  C_23 
REMARK       I    between atoms: C_9  and  N_25 
REMARK    4  A    between atoms: C_9  and  C_11 
REMARK    5  A    between atoms: C_10  and  C_18 
REMARK    6  A    between atoms: C_10  and  N_15 
REMARK    7  A    between atoms: C_11  and  C_17 
REMARK    8  A    between atoms: C_11  and  N_27 
REMARK    9  A    between atoms: C_16  and  C_21 
REMARK   10  A    between atoms: C_17  and  C_18 
REMARK   11  A    between atoms: C_21  and  C_23 
REMARK   12  A    between atoms: C_21  and  N_25 
ROOT
HETATM    1  O           1     -19.862  -4.422  -5.286  0.00  0.00    -0.271 OA
HETATM    2  C           1     -20.671  -4.841  -6.080  0.00  0.00     0.249 C 
HETATM    3  H           1     -22.024  -6.354  -6.483  0.00  0.00     0.163 HD
HETATM    4  N           1     -21.346  -6.003  -5.819  0.00  0.00    -0.345 N 
ENDROOT
BRANCH   2   5
HETATM    5  C           1     -20.938  -4.083  -7.357  0.00  0.00     0.274 C 
BRANCH   5   6
HETATM    6  C           1     -22.381  -4.312  -7.790  0.00  0.00     0.044 C 
BRANCH   6   7
HETATM    7  C           1     -22.445  -4.417  -9.308  0.00  0.00     0.030 C 
BRANCH   7   8
HETATM    8  C           1     -23.898  -4.369  -9.760  0.00  0.00     0.230 C 
BRANCH   8   9
HETATM    9  N           1     -24.606  -3.251  -9.054  0.00  0.00    -0.079 N 
HETATM   10  H           1     -25.589  -3.186  -9.402  0.00  0.00     0.274 HD
HETATM   11  H           1     -24.110  -2.350  -9.242  0.00  0.00     0.274 HD
HETATM   12  H           1     -24.612  -3.437  -8.026  0.00  0.00     0.274 HD
ENDBRANCH   8   9
ENDBRANCH   7   8
ENDBRANCH   6   7
ENDBRANCH   5   6
BRANCH   5  13
HETATM   13  N           1     -20.011  -4.569  -8.430  0.00  0.00    -0.067 N 
HETATM   14  H           1     -19.163  -3.959  -8.461  0.00  0.00     0.275 HD
HETATM   15  H           1     -19.725  -5.553  -8.224  0.00  0.00     0.275 HD
HETATM   16  H           1     -20.499  -4.533  -9.354  0.00  0.00     0.275 HD
ENDBRANCH   5  13
ENDBRANCH   2   5
BRANCH   4  17
HETATM   17  C           1     -21.089  -6.732  -4.591  0.00  0.00     0.185 C 
BRANCH  17  18
HETATM   18  C           1     -20.922  -8.198  -4.904  0.00  0.00     0.196 C 
HETATM   19  O           1     -20.048  -8.568  -5.718  0.00  0.00    -0.646 OA
HETATM   20  O           1     -21.656  -9.043  -4.348  0.00  0.00    -0.646 OA
ENDBRANCH  17  18
BRANCH  17  21
HETATM   21  C           1     -22.262  -6.546  -3.638  0.00  0.00     0.038 C 
BRANCH  21  22
HETATM   22  C           1     -21.748  -6.059  -2.290  0.00  0.00     0.030 C 
BRANCH  22  23
HETATM   23  C           1     -22.236  -6.994  -1.191  0.00  0.00     0.230 C 
BRANCH  23  24
HETATM   24  N           1     -21.508  -8.302  -1.288  0.00  0.00    -0.079 N 
HETATM   25  H           1     -22.169  -9.084  -1.080  0.00  0.00     0.274 HD
HETATM   26  H           1     -20.723  -8.317  -0.598  0.00  0.00     0.274 HD
HETATM   27  H           1     -21.125  -8.416  -2.254  0.00  0.00     0.274 HD
ENDBRANCH  23  24
ENDBRANCH  22  23
ENDBRANCH  21  22
ENDBRANCH  17  21
ENDBRANCH   4  17
TORSDOF 12
ENDMDL
MODEL 8
REMARK VINA RESULT:      -5.3      1.886      3.068
REMARK  12 active torsions:
REMARK  status: ('A' for Active; 'I' for Inactive)
REMARK    1  A    between atoms: N_2  and  C_20 
REMARK    2  A    between atoms: C_5  and  C_20 
REMARK    3  A    between atoms: C_5  and  C_23 
REMARK       I    between atoms: C_9  and  N_25 
REMARK    4  A    between atoms: C_9  and  C_11 
REMARK    5  A    between atoms: C_10  and  C_18 
REMARK    6  A    between atoms: C_10  and  N_15 
REMARK    7  A    between atoms: C_11  and  C_17 
REMARK    8  A    between atoms: C_11  and  N_27 
REMARK    9  A    between atoms: C_16  and  C_21 
REMARK   10  A    between atoms: C_17  and  C_18 
REMARK   11  A    between atoms: C_21  and  C_23 
REMARK   12  A    between atoms: C_21  and  N_25 
ROOT
HETATM    1  O           1     -34.176  -1.396 -11.654  0.00  0.00    -0.271 OA
HETATM    2  C           1     -34.685  -2.121 -12.476  0.00  0.00     0.249 C 
HETATM    3  H           1     -36.023  -2.222 -14.052  0.00  0.00     0.163 HD
HETATM    4  N           1     -35.598  -1.615 -13.363  0.00  0.00    -0.345 N 
ENDROOT
BRANCH   2   5
HETATM    5  C           1     -34.313  -3.583 -12.527  0.00  0.00     0.274 C 
BRANCH   5   6
HETATM    6  C           1     -33.187  -3.855 -11.538  0.00  0.00     0.044 C 
BRANCH   6   7
HETATM    7  C           1     -33.110  -5.349 -11.255  0.00  0.00     0.030 C 
BRANCH   7   8
HETATM    8  C           1     -34.435  -5.828 -10.677  0.00  0.00     0.230 C 
BRANCH   8   9
HETATM    9  N           1     -34.532  -7.318 -10.812  0.00  0.00    -0.079 N 
HETATM   10  H           1     -33.574  -7.719 -10.935  0.00  0.00     0.274 HD
HETATM   11  H           1     -35.118  -7.556 -11.645  0.00  0.00     0.274 HD
HETATM   12  H           1     -34.970  -7.718  -9.952  0.00  0.00     0.274 HD
ENDBRANCH   8   9
ENDBRANCH   7   8
ENDBRANCH   6   7
ENDBRANCH   5   6
BRANCH   5  13
HETATM   13  N           1     -33.858  -3.935 -13.912  0.00  0.00    -0.067 N 
HETATM   14  H           1     -33.316  -3.137 -14.314  0.00  0.00     0.275 HD
HETATM   15  H           1     -33.251  -4.784 -13.873  0.00  0.00     0.275 HD
HETATM   16  H           1     -34.692  -4.128 -14.514  0.00  0.00     0.275 HD
ENDBRANCH   5  13
ENDBRANCH   2   5
BRANCH   4  17
HETATM   17  C           1     -35.954  -0.211 -13.314  0.00  0.00     0.185 C 
BRANCH  17  18
HETATM   18  C           1     -34.876   0.605 -13.984  0.00  0.00     0.196 C 
HETATM   19  O           1     -34.432   1.632 -13.426  0.00  0.00    -0.646 OA
HETATM   20  O           1     -34.425   0.253 -15.095  0.00  0.00    -0.646 OA
ENDBRANCH  17  18
BRANCH  17  21
HETATM   21  C           1     -36.094   0.227 -11.862  0.00  0.00     0.038 C 
BRANCH  21  22
HETATM   22  C           1     -37.508  -0.065 -11.378  0.00  0.00     0.030 C 
BRANCH  22  23
HETATM   23  C           1     -37.493  -0.296  -9.872  0.00  0.00     0.230 C 
BRANCH  23  24
HETATM   24  N           1     -36.078  -0.469  -9.407  0.00  0.00    -0.079 N 
HETATM   25  H           1     -35.431  -0.392 -10.224  0.00  0.00     0.274 HD
HETATM   26  H           1     -35.968  -1.409  -8.964  0.00  0.00     0.274 HD
HETATM   27  H           1     -35.848   0.274  -8.709  0.00  0.00     0.274 HD
ENDBRANCH  23  24
ENDBRANCH  22  23
ENDBRANCH  21  22
ENDBRANCH  17  21
ENDBRANCH   4  17
TORSDOF 12
ENDMDL
MODEL 9
REMARK VINA RESULT:      -5.2     14.301     16.357
REMARK  12 active torsions:
REMARK  status: ('A' for Active; 'I' for Inactive)
REMARK    1  A    between atoms: N_2  and  C_20 
REMARK    2  A    between atoms: C_5  and  C_20 
REMARK    3  A    between atoms: C_5  and  C_23 
REMARK       I    between atoms: C_9  and  N_25 
REMARK    4  A    between atoms: C_9  and  C_11 
REMARK    5  A    between atoms: C_10  and  C_18 
REMARK    6  A    between atoms: C_10  and  N_15 
REMARK    7  A    between atoms: C_11  and  C_17 
REMARK    8  A    between atoms: C_11  and  N_27 
REMARK    9  A    between atoms: C_16  and  C_21 
REMARK   10  A    between atoms: C_17  and  C_18 
REMARK   11  A    between atoms: C_21  and  C_23 
REMARK   12  A    between atoms: C_21  and  N_25 
ROOT
HETATM    1  O           1     -22.008  -7.593  -4.742  0.00  0.00    -0.271 OA
HETATM    2  C           1     -21.499  -6.637  -4.205  0.00  0.00     0.249 C 
HETATM    3  H           1     -20.659  -4.770  -4.508  0.00  0.00     0.163 HD
HETATM    4  N           1     -21.085  -5.570  -4.957  0.00  0.00    -0.345 N 
ENDROOT
BRANCH   2   5
HETATM    5  C           1     -21.320  -6.619  -2.707  0.00  0.00     0.274 C 
BRANCH   5   6
HETATM    6  C           1     -21.480  -8.032  -2.160  0.00  0.00     0.044 C 
BRANCH   6   7
HETATM    7  C           1     -22.214  -7.980  -0.827  0.00  0.00     0.030 C 
BRANCH   7   8
HETATM    8  C           1     -21.272  -8.408   0.290  0.00  0.00     0.230 C 
BRANCH   8   9
HETATM    9  N           1     -21.419  -9.882   0.531  0.00  0.00    -0.079 N 
HETATM   10  H           1     -20.837 -10.407  -0.160  0.00  0.00     0.274 HD
HETATM   11  H           1     -22.422 -10.155   0.420  0.00  0.00     0.274 HD
HETATM   12  H           1     -21.101 -10.110   1.500  0.00  0.00     0.274 HD
ENDBRANCH   8   9
ENDBRANCH   7   8
ENDBRANCH   6   7
ENDBRANCH   5   6
BRANCH   5  13
HETATM   13  N           1     -22.354  -5.724  -2.091  0.00  0.00    -0.067 N 
HETATM   14  H           1     -22.169  -4.735  -2.372  0.00  0.00     0.275 HD
HETATM   15  H           1     -23.302  -6.009  -2.422  0.00  0.00     0.275 HD
HETATM   16  H           1     -22.307  -5.805  -1.050  0.00  0.00     0.275 HD
ENDBRANCH   5  13
ENDBRANCH   2   5
BRANCH   4  17
HETATM   17  C           1     -21.258  -5.587  -6.397  0.00  0.00     0.185 C 
BRANCH  17  18
HETATM   18  C           1     -19.923  -5.825  -7.060  0.00  0.00     0.196 C 
HETATM   19  O           1     -19.375  -6.946  -6.976  0.00  0.00    -0.646 OA
HETATM   20  O           1     -19.365  -4.903  -7.692  0.00  0.00    -0.646 OA
ENDBRANCH  17  18
BRANCH  17  21
HETATM   21  C           1     -21.821  -4.248  -6.856  0.00  0.00     0.038 C 
BRANCH  21  22
HETATM   22  C           1     -23.202  -4.458  -7.460  0.00  0.00     0.030 C 
BRANCH  22  23
HETATM   23  C           1     -23.229  -3.897  -8.876  0.00  0.00     0.230 C 
BRANCH  23  24
HETATM   24  N           1     -24.559  -3.252  -9.133  0.00  0.00    -0.079 N 
HETATM   25  H           1     -24.615  -2.956 -10.134  0.00  0.00     0.274 HD
HETATM   26  H           1     -24.666  -2.415  -8.517  0.00  0.00     0.274 HD
HETATM   27  H           1     -25.322  -3.936  -8.928  0.00  0.00     0.274 HD
ENDBRANCH  23  24
ENDBRANCH  22  23
ENDBRANCH  21  22
ENDBRANCH  17  21
ENDBRANCH   4  17
TORSDOF 12
ENDMDL
