MODEL 1
REMARK VINA RESULT:      -7.4      0.000      0.000
REMARK  8 active torsions:
REMARK  status: ('A' for Active; 'I' for Inactive)
REMARK    1  A    between atoms: N_4  and  C_7 
REMARK    2  A    between atoms: S_5  and  C_6 
REMARK    3  A    between atoms: C_6  and  C_7 
REMARK    4  A    between atoms: C_7  and  C_8 
REMARK       I    between atoms: C_8  and  N_9 
REMARK    5  A    between atoms: N_9  and  C_18 
REMARK    6  A    between atoms: C_18  and  C_20 
REMARK    7  A    between atoms: C_18  and  C_22 
REMARK    8  A    between atoms: C_22  and  C_23 
ROOT
HETATM    1  C           1     -35.091   0.452 -14.049  0.00  0.00     0.249 C 
HETATM    2  N           1     -34.797  -0.826 -13.655  0.00  0.00    -0.344 N 
HETATM    3  O           1     -34.440   1.378 -13.626  0.00  0.00    -0.271 OA
HETATM    4  H           1     -34.136  -1.379 -14.184  0.00  0.00     0.163 HD
ENDROOT
BRANCH   2   5
HETATM    5  C           1     -35.436  -1.387 -12.480  0.00  0.00     0.189 C 
BRANCH   5   6
HETATM    6  C           1     -36.481  -0.426 -11.970  0.00  0.00     0.197 C 
HETATM    7  O           1     -37.651  -0.487 -12.405  0.00  0.00    -0.646 OA
HETATM    8  O           1     -36.177   0.431 -11.113  0.00  0.00    -0.646 OA
ENDBRANCH   5   6
BRANCH   5   9
HETATM    9  C           1     -34.390  -1.623 -11.398  0.00  0.00     0.074 C 
BRANCH   9  10
HETATM   10  C           1     -34.097  -3.088 -11.299  0.00  0.00    -0.056 A 
HETATM   11  C           1     -35.043  -3.952 -10.749  0.00  0.00     0.007 A 
HETATM   12  C           1     -34.769  -5.318 -10.656  0.00  0.00     0.001 A 
HETATM   13  C           1     -33.549  -5.817 -11.112  0.00  0.00     0.000 A 
HETATM   14  C           1     -32.604  -4.951 -11.662  0.00  0.00     0.001 A 
HETATM   15  C           1     -32.877  -3.587 -11.755  0.00  0.00     0.007 A 
ENDBRANCH   9  10
ENDBRANCH   5   9
ENDBRANCH   2   5
BRANCH   1  16
HETATM   16  C           1     -36.226   0.703 -15.011  0.00  0.00     0.283 C 
BRANCH  16  17
HETATM   17  N           1     -35.966   1.969 -15.771  0.00  0.00    -0.066 N 
HETATM   18  H           1     -36.455   2.764 -15.301  0.00  0.00     0.275 HD
HETATM   19  H           1     -34.939   2.156 -15.794  0.00  0.00     0.275 HD
HETATM   20  H           1     -36.326   1.869 -16.748  0.00  0.00     0.275 HD
ENDBRANCH  16  17
BRANCH  16  21
HETATM   21  C           1     -36.331  -0.462 -15.987  0.00  0.00     0.113 C 
BRANCH  21  22
HETATM   22  S           1     -38.075  -0.913 -16.209  0.00  0.00    -0.180 SA
HETATM   23  H           1     -38.237  -1.450 -14.987  0.00  0.00     0.101 HD
ENDBRANCH  21  22
ENDBRANCH  16  21
ENDBRANCH   1  16
TORSDOF 8
ENDMDL
MODEL 2
REMARK VINA RESULT:      -7.3      1.775      2.244
REMARK  8 active torsions:
REMARK  status: ('A' for Active; 'I' for Inactive)
REMARK    1  A    between atoms: N_4  and  C_7 
REMARK    2  A    between atoms: S_5  and  C_6 
REMARK    3  A    between atoms: C_6  and  C_7 
REMARK    4  A    between atoms: C_7  and  C_8 
REMARK       I    between atoms: C_8  and  N_9 
REMARK    5  A    between atoms: N_9  and  C_18 
REMARK    6  A    between atoms: C_18  and  C_20 
REMARK    7  A    between atoms: C_18  and  C_22 
REMARK    8  A    between atoms: C_22  and  C_23 
ROOT
HETATM    1  C           1     -36.748  -0.342 -13.157  0.00  0.00     0.249 C 
HETATM    2  N           1     -36.670   0.048 -11.847  0.00  0.00    -0.344 N 
HETATM    3  O           1     -37.793  -0.752 -13.604  0.00  0.00    -0.271 OA
HETATM    4  H           1     -36.863   1.007 -11.593  0.00  0.00     0.163 HD
ENDROOT
BRANCH   2   5
HETATM    5  C           1     -36.310  -0.916 -10.825  0.00  0.00     0.189 C 
BRANCH   5   6
HETATM    6  C           1     -36.761  -0.410  -9.477  0.00  0.00     0.197 C 
HETATM    7  O           1     -35.915  -0.126  -8.601  0.00  0.00    -0.646 OA
HETATM    8  O           1     -37.979  -0.276  -9.235  0.00  0.00    -0.646 OA
ENDBRANCH   5   6
BRANCH   5   9
HETATM    9  C           1     -34.799  -1.107 -10.817  0.00  0.00     0.074 C 
BRANCH   9  10
HETATM   10  C           1     -34.478  -2.560 -10.981  0.00  0.00    -0.056 A 
HETATM   11  C           1     -35.471  -3.519 -10.787  0.00  0.00     0.007 A 
HETATM   12  C           1     -35.172  -4.874 -10.939  0.00  0.00     0.001 A 
HETATM   13  C           1     -33.879  -5.268 -11.285  0.00  0.00     0.000 A 
HETATM   14  C           1     -32.887  -4.307 -11.480  0.00  0.00     0.001 A 
HETATM   15  C           1     -33.186  -2.954 -11.327  0.00  0.00     0.007 A 
ENDBRANCH   9  10
ENDBRANCH   5   9
ENDBRANCH   2   5
BRANCH   1  16
HETATM   16  C           1     -35.528  -0.259 -14.043  0.00  0.00     0.283 C 
BRANCH  16  17
HETATM   17  N           1     -34.974  -1.635 -14.260  0.00  0.00    -0.066 N 
HETATM   18  H           1     -35.421  -2.062 -15.103  0.00  0.00     0.275 HD
HETATM   19  H           1     -33.942  -1.575 -14.407  0.00  0.00     0.275 HD
HETATM   20  H           1     -35.175  -2.228 -13.423  0.00  0.00     0.275 HD
ENDBRANCH  16  17
BRANCH  16  21
HETATM   21  C           1     -35.916   0.351 -15.384  0.00  0.00     0.113 C 
BRANCH  21  22
HETATM   22  S           1     -35.948  -0.947 -16.653  0.00  0.00    -0.180 SA
HETATM   23  H           1     -34.614  -1.089 -16.742  0.00  0.00     0.101 HD
ENDBRANCH  21  22
ENDBRANCH  16  21
ENDBRANCH   1  16
TORSDOF 8
ENDMDL
MODEL 3
REMARK VINA RESULT:      -7.0      3.117      5.350
REMARK  8 active torsions:
REMARK  status: ('A' for Active; 'I' for Inactive)
REMARK    1  A    between atoms: N_4  and  C_7 
REMARK    2  A    between atoms: S_5  and  C_6 
REMARK    3  A    between atoms: C_6  and  C_7 
REMARK    4  A    between atoms: C_7  and  C_8 
REMARK       I    between atoms: C_8  and  N_9 
REMARK    5  A    between atoms: N_9  and  C_18 
REMARK    6  A    between atoms: C_18  and  C_20 
REMARK    7  A    between atoms: C_18  and  C_22 
REMARK    8  A    between atoms: C_22  and  C_23 
ROOT
HETATM    1  C           1     -34.825  -2.008 -10.567  0.00  0.00     0.249 C 
HETATM    2  N           1     -35.873  -1.313 -10.025  0.00  0.00    -0.344 N 
HETATM    3  O           1     -33.698  -1.793 -10.189  0.00  0.00    -0.271 OA
HETATM    4  H           1     -36.350  -1.672  -9.209  0.00  0.00     0.163 HD
ENDROOT
BRANCH   2   5
HETATM    5  C           1     -36.300  -0.063 -10.623  0.00  0.00     0.189 C 
BRANCH   5   6
HETATM    6  C           1     -36.959   0.797  -9.573  0.00  0.00     0.197 C 
HETATM    7  O           1     -38.074   1.315  -9.799  0.00  0.00    -0.646 OA
HETATM    8  O           1     -36.390   0.993  -8.478  0.00  0.00    -0.646 OA
ENDBRANCH   5   6
BRANCH   5   9
HETATM    9  C           1     -37.292  -0.348 -11.743  0.00  0.00     0.074 C 
BRANCH   9  10
HETATM   10  C           1     -36.684   0.030 -13.058  0.00  0.00    -0.056 A 
HETATM   11  C           1     -37.453  -0.012 -14.220  0.00  0.00     0.007 A 
HETATM   12  C           1     -36.885   0.340 -15.445  0.00  0.00     0.001 A 
HETATM   13  C           1     -35.548   0.734 -15.506  0.00  0.00     0.000 A 
HETATM   14  C           1     -34.780   0.777 -14.343  0.00  0.00     0.001 A 
HETATM   15  C           1     -35.347   0.424 -13.119  0.00  0.00     0.007 A 
ENDBRANCH   9  10
ENDBRANCH   5   9
ENDBRANCH   2   5
BRANCH   1  16
HETATM   16  C           1     -35.079  -3.043 -11.636  0.00  0.00     0.283 C 
BRANCH  16  17
HETATM   17  N           1     -33.964  -3.008 -12.639  0.00  0.00    -0.066 N 
HETATM   18  H           1     -33.627  -3.981 -12.819  0.00  0.00     0.275 HD
HETATM   19  H           1     -34.311  -2.589 -13.530  0.00  0.00     0.275 HD
HETATM   20  H           1     -33.176  -2.432 -12.264  0.00  0.00     0.275 HD
ENDBRANCH  16  17
BRANCH  16  21
HETATM   21  C           1     -35.146  -4.425 -10.999  0.00  0.00     0.113 C 
BRANCH  21  22
HETATM   22  S           1     -33.560  -5.278 -11.232  0.00  0.00    -0.180 SA
HETATM   23  H           1     -33.913  -5.922 -12.358  0.00  0.00     0.101 HD
ENDBRANCH  21  22
ENDBRANCH  16  21
ENDBRANCH   1  16
TORSDOF 8
ENDMDL
MODEL 4
REMARK VINA RESULT:      -6.6     11.932     13.543
REMARK  8 active torsions:
REMARK  status: ('A' for Active; 'I' for Inactive)
REMARK    1  A    between atoms: N_4  and  C_7 
REMARK    2  A    between atoms: S_5  and  C_6 
REMARK    3  A    between atoms: C_6  and  C_7 
REMARK    4  A    between atoms: C_7  and  C_8 
REMARK       I    between atoms: C_8  and  N_9 
REMARK    5  A    between atoms: N_9  and  C_18 
REMARK    6  A    between atoms: C_18  and  C_20 
REMARK    7  A    between atoms: C_18  and  C_22 
REMARK    8  A    between atoms: C_22  and  C_23 
ROOT
HETATM    1  C           1     -22.326  -3.072 -12.278  0.00  0.00     0.249 C 
HETATM    2  N           1     -21.759  -4.159 -11.669  0.00  0.00    -0.344 N 
HETATM    3  O           1     -21.945  -1.959 -12.001  0.00  0.00    -0.271 OA
HETATM    4  H           1     -20.952  -4.607 -12.082  0.00  0.00     0.163 HD
ENDROOT
BRANCH   2   5
HETATM    5  C           1     -22.318  -4.669 -10.431  0.00  0.00     0.189 C 
BRANCH   5   6
HETATM    6  C           1     -23.771  -5.018 -10.642  0.00  0.00     0.197 C 
HETATM    7  O           1     -24.664  -4.295 -10.151  0.00  0.00    -0.646 OA
HETATM    8  O           1     -24.081  -6.029 -11.307  0.00  0.00    -0.646 OA
ENDBRANCH   5   6
BRANCH   5   9
HETATM    9  C           1     -22.202  -3.607  -9.346  0.00  0.00     0.074 C 
BRANCH   9  10
HETATM   10  C           1     -21.445  -4.165  -8.181  0.00  0.00    -0.056 A 
HETATM   11  C           1     -22.134  -4.736  -7.111  0.00  0.00     0.007 A 
HETATM   12  C           1     -21.427  -5.256  -6.025  0.00  0.00     0.001 A 
HETATM   13  C           1     -20.034  -5.202  -6.010  0.00  0.00     0.000 A 
HETATM   14  C           1     -19.346  -4.631  -7.080  0.00  0.00     0.001 A 
HETATM   15  C           1     -20.051  -4.112  -8.165  0.00  0.00     0.007 A 
ENDBRANCH   9  10
ENDBRANCH   5   9
ENDBRANCH   2   5
BRANCH   1  16
HETATM   16  C           1     -23.425  -3.264 -13.294  0.00  0.00     0.283 C 
BRANCH  16  17
HETATM   17  N           1     -24.671  -2.579 -12.818  0.00  0.00    -0.066 N 
HETATM   18  H           1     -25.507  -3.041 -13.242  0.00  0.00     0.275 HD
HETATM   19  H           1     -24.728  -2.646 -11.777  0.00  0.00     0.275 HD
HETATM   20  H           1     -24.647  -1.573 -13.103  0.00  0.00     0.275 HD
ENDBRANCH  16  17
BRANCH  16  21
HETATM   21  C           1     -22.994  -2.664 -14.627  0.00  0.00     0.113 C 
BRANCH  21  22
HETATM   22  S           1     -23.829  -1.071 -14.873  0.00  0.00    -0.180 SA
HETATM   23  H           1     -22.735  -0.310 -14.693  0.00  0.00     0.101 HD
ENDBRANCH  21  22
ENDBRANCH  16  21
ENDBRANCH   1  16
TORSDOF 8
ENDMDL
MODEL 5
REMARK VINA RESULT:      -6.4     17.393     19.414
REMARK  8 active torsions:
REMARK  status: ('A' for Active; 'I' for Inactive)
REMARK    1  A    between atoms: N_4  and  C_7 
REMARK    2  A    between atoms: S_5  and  C_6 
REMARK    3  A    between atoms: C_6  and  C_7 
REMARK    4  A    between atoms: C_7  and  C_8 
REMARK       I    between atoms: C_8  and  N_9 
REMARK    5  A    between atoms: N_9  and  C_18 
REMARK    6  A    between atoms: C_18  and  C_20 
REMARK    7  A    between atoms: C_18  and  C_22 
REMARK    8  A    between atoms: C_22  and  C_23 
ROOT
HETATM    1  C           1     -19.367  -9.500  -4.802  0.00  0.00     0.249 C 
HETATM    2  N           1     -19.698  -8.197  -4.541  0.00  0.00    -0.344 N 
HETATM    3  O           1     -19.486  -9.940  -5.920  0.00  0.00    -0.271 OA
HETATM    4  H           1     -19.000  -7.471  -4.627  0.00  0.00     0.163 HD
ENDROOT
BRANCH   2   5
HETATM    5  C           1     -21.050  -7.859  -4.139  0.00  0.00     0.189 C 
BRANCH   5   6
HETATM    6  C           1     -21.703  -7.031  -5.218  0.00  0.00     0.197 C 
HETATM    7  O           1     -22.686  -6.310  -4.944  0.00  0.00    -0.646 OA
HETATM    8  O           1     -21.261  -7.067  -6.387  0.00  0.00    -0.646 OA
ENDBRANCH   5   6
BRANCH   5   9
HETATM    9  C           1     -21.010  -7.063  -2.841  0.00  0.00     0.074 C 
BRANCH   9  10
HETATM   10  C           1     -21.739  -7.814  -1.771  0.00  0.00    -0.056 A 
HETATM   11  C           1     -22.315  -7.125  -0.704  0.00  0.00     0.007 A 
HETATM   12  C           1     -22.994  -7.826   0.293  0.00  0.00     0.001 A 
HETATM   13  C           1     -23.097  -9.215   0.222  0.00  0.00     0.000 A 
HETATM   14  C           1     -22.521  -9.903  -0.846  0.00  0.00     0.001 A 
HETATM   15  C           1     -21.841  -9.203  -1.842  0.00  0.00     0.007 A 
ENDBRANCH   9  10
ENDBRANCH   5   9
ENDBRANCH   2   5
BRANCH   1  16
HETATM   16  C           1     -18.855 -10.384  -3.692  0.00  0.00     0.283 C 
BRANCH  16  17
HETATM   17  N           1     -17.972 -11.450  -4.269  0.00  0.00    -0.066 N 
HETATM   18  H           1     -17.032 -11.408  -3.816  0.00  0.00     0.275 HD
HETATM   19  H           1     -18.401 -12.387  -4.098  0.00  0.00     0.275 HD
HETATM   20  H           1     -17.868 -11.296  -5.299  0.00  0.00     0.275 HD
ENDBRANCH  16  17
BRANCH  16  21
HETATM   21  C           1     -18.056  -9.545  -2.702  0.00  0.00     0.113 C 
BRANCH  21  22
HETATM   22  S           1     -16.287  -9.676  -3.086  0.00  0.00    -0.180 SA
HETATM   23  H           1     -15.864  -8.924  -2.054  0.00  0.00     0.101 HD
ENDBRANCH  21  22
ENDBRANCH  16  21
ENDBRANCH   1  16
TORSDOF 8
ENDMDL
MODEL 6
REMARK VINA RESULT:      -6.3     17.965     19.112
REMARK  8 active torsions:
REMARK  status: ('A' for Active; 'I' for Inactive)
REMARK    1  A    between atoms: N_4  and  C_7 
REMARK    2  A    between atoms: S_5  and  C_6 
REMARK    3  A    between atoms: C_6  and  C_7 
REMARK    4  A    between atoms: C_7  and  C_8 
REMARK       I    between atoms: C_8  and  N_9 
REMARK    5  A    between atoms: N_9  and  C_18 
REMARK    6  A    between atoms: C_18  and  C_20 
REMARK    7  A    between atoms: C_18  and  C_22 
REMARK    8  A    between atoms: C_22  and  C_23 
ROOT
HETATM    1  C           1     -19.835  -8.606  -4.798  0.00  0.00     0.249 C 
HETATM    2  N           1     -20.016  -7.969  -3.600  0.00  0.00    -0.344 N 
HETATM    3  O           1     -19.910  -7.984  -5.831  0.00  0.00    -0.271 OA
HETATM    4  H           1     -19.225  -7.565  -3.117  0.00  0.00     0.163 HD
ENDROOT
BRANCH   2   5
HETATM    5  C           1     -21.343  -7.874  -3.023  0.00  0.00     0.189 C 
BRANCH   5   6
HETATM    6  C           1     -21.833  -6.450  -3.121  0.00  0.00     0.197 C 
HETATM    7  O           1     -22.208  -5.846  -2.093  0.00  0.00    -0.646 OA
HETATM    8  O           1     -21.865  -5.874  -4.230  0.00  0.00    -0.646 OA
ENDBRANCH   5   6
BRANCH   5   9
HETATM    9  C           1     -21.292  -8.295  -1.560  0.00  0.00     0.074 C 
BRANCH   9  10
HETATM   10  C           1     -22.247  -9.425  -1.333  0.00  0.00    -0.056 A 
HETATM   11  C           1     -23.012  -9.468  -0.168  0.00  0.00     0.007 A 
HETATM   12  C           1     -23.902 -10.523   0.044  0.00  0.00     0.001 A 
HETATM   13  C           1     -24.025 -11.533  -0.910  0.00  0.00     0.000 A 
HETATM   14  C           1     -23.259 -11.489  -2.075  0.00  0.00     0.001 A 
HETATM   15  C           1     -22.370 -10.436  -2.287  0.00  0.00     0.007 A 
ENDBRANCH   9  10
ENDBRANCH   5   9
ENDBRANCH   2   5
BRANCH   1  16
HETATM   16  C           1     -19.543 -10.086  -4.828  0.00  0.00     0.283 C 
BRANCH  16  17
HETATM   17  N           1     -18.827 -10.429  -6.100  0.00  0.00    -0.066 N 
HETATM   18  H           1     -18.740  -9.573  -6.693  0.00  0.00     0.275 HD
HETATM   19  H           1     -17.876 -10.796  -5.877  0.00  0.00     0.275 HD
HETATM   20  H           1     -19.370 -11.157  -6.620  0.00  0.00     0.275 HD
ENDBRANCH  16  17
BRANCH  16  21
HETATM   21  C           1     -18.665 -10.454  -3.638  0.00  0.00     0.113 C 
BRANCH  21  22
HETATM   22  S           1     -16.928 -10.111  -4.037  0.00  0.00    -0.180 SA
HETATM   23  H           1     -16.809  -9.038  -3.234  0.00  0.00     0.101 HD
ENDBRANCH  21  22
ENDBRANCH  16  21
ENDBRANCH   1  16
TORSDOF 8
ENDMDL
MODEL 7
REMARK VINA RESULT:      -6.2     18.744     20.212
REMARK  8 active torsions:
REMARK  status: ('A' for Active; 'I' for Inactive)
REMARK    1  A    between atoms: N_4  and  C_7 
REMARK    2  A    between atoms: S_5  and  C_6 
REMARK    3  A    between atoms: C_6  and  C_7 
REMARK    4  A    between atoms: C_7  and  C_8 
REMARK       I    between atoms: C_8  and  N_9 
REMARK    5  A    between atoms: N_9  and  C_18 
REMARK    6  A    between atoms: C_18  and  C_20 
REMARK    7  A    between atoms: C_18  and  C_22 
REMARK    8  A    between atoms: C_22  and  C_23 
ROOT
HETATM    1  C           1     -19.639  -8.951  -3.119  0.00  0.00     0.249 C 
HETATM    2  N           1     -20.072  -8.044  -2.189  0.00  0.00    -0.344 N 
HETATM    3  O           1     -19.859  -8.765  -4.292  0.00  0.00    -0.271 OA
HETATM    4  H           1     -19.475  -7.273  -1.918  0.00  0.00     0.163 HD
ENDROOT
BRANCH   2   5
HETATM    5  C           1     -21.385  -8.189  -1.592  0.00  0.00     0.189 C 
BRANCH   5   6
HETATM    6  C           1     -22.103  -6.862  -1.628  0.00  0.00     0.197 C 
HETATM    7  O           1     -22.785  -6.494  -0.647  0.00  0.00    -0.646 OA
HETATM    8  O           1     -22.016  -6.131  -2.638  0.00  0.00    -0.646 OA
ENDBRANCH   5   6
BRANCH   5   9
HETATM    9  C           1     -21.239  -8.650  -0.148  0.00  0.00     0.074 C 
BRANCH   9  10
HETATM   10  C           1     -21.985  -9.933   0.045  0.00  0.00    -0.056 A 
HETATM   11  C           1     -21.325 -11.054   0.547  0.00  0.00     0.007 A 
HETATM   12  C           1     -22.021 -12.251   0.727  0.00  0.00     0.001 A 
HETATM   13  C           1     -23.376 -12.324   0.404  0.00  0.00     0.000 A 
HETATM   14  C           1     -24.035 -11.201  -0.098  0.00  0.00     0.001 A 
HETATM   15  C           1     -23.340 -10.006  -0.277  0.00  0.00     0.007 A 
ENDBRANCH   9  10
ENDBRANCH   5   9
ENDBRANCH   2   5
BRANCH   1  16
HETATM   16  C           1     -18.886 -10.182  -2.677  0.00  0.00     0.283 C 
BRANCH  16  17
HETATM   17  N           1     -19.804 -11.368  -2.713  0.00  0.00    -0.066 N 
HETATM   18  H           1     -20.787 -11.053  -2.553  0.00  0.00     0.275 HD
HETATM   19  H           1     -19.735 -11.833  -3.646  0.00  0.00     0.275 HD
HETATM   20  H           1     -19.529 -12.044  -1.964  0.00  0.00     0.275 HD
ENDBRANCH  16  17
BRANCH  16  21
HETATM   21  C           1     -17.710 -10.422  -3.616  0.00  0.00     0.113 C 
BRANCH  21  22
HETATM   22  S           1     -16.221  -9.640  -2.934  0.00  0.00    -0.180 SA
HETATM   23  H           1     -15.845  -9.037  -4.076  0.00  0.00     0.101 HD
ENDBRANCH  21  22
ENDBRANCH  16  21
ENDBRANCH   1  16
TORSDOF 8
ENDMDL
MODEL 8
REMARK VINA RESULT:      -5.9     24.882     26.447
REMARK  8 active torsions:
REMARK  status: ('A' for Active; 'I' for Inactive)
REMARK    1  A    between atoms: N_4  and  C_7 
REMARK    2  A    between atoms: S_5  and  C_6 
REMARK    3  A    between atoms: C_6  and  C_7 
REMARK    4  A    between atoms: C_7  and  C_8 
REMARK       I    between atoms: C_8  and  N_9 
REMARK    5  A    between atoms: N_9  and  C_18 
REMARK    6  A    between atoms: C_18  and  C_20 
REMARK    7  A    between atoms: C_18  and  C_22 
REMARK    8  A    between atoms: C_22  and  C_23 
ROOT
HETATM    1  C           1     -12.449   6.878 -20.124  0.00  0.00     0.249 C 
HETATM    2  N           1     -12.219   8.081 -20.734  0.00  0.00    -0.344 N 
HETATM    3  O           1     -13.572   6.570 -19.800  0.00  0.00    -0.271 OA
HETATM    4  H           1     -12.257   8.152 -21.743  0.00  0.00     0.163 HD
ENDROOT
BRANCH   2   5
HETATM    5  C           1     -11.920   9.254 -19.935  0.00  0.00     0.189 C 
BRANCH   5   6
HETATM    6  C           1     -10.457   9.250 -19.565  0.00  0.00     0.197 C 
HETATM    7  O           1     -10.104   8.903 -18.417  0.00  0.00    -0.646 OA
HETATM    8  O           1      -9.599   9.594 -20.406  0.00  0.00    -0.646 OA
ENDBRANCH   5   6
BRANCH   5   9
HETATM    9  C           1     -12.766   9.234 -18.668  0.00  0.00     0.074 C 
BRANCH   9  10
HETATM   10  C           1     -13.727  10.381 -18.692  0.00  0.00    -0.056 A 
HETATM   11  C           1     -13.737  11.261 -19.774  0.00  0.00     0.007 A 
HETATM   12  C           1     -14.634  12.330 -19.795  0.00  0.00     0.001 A 
HETATM   13  C           1     -15.518  12.519 -18.733  0.00  0.00     0.000 A 
HETATM   14  C           1     -15.507  11.639 -17.651  0.00  0.00     0.001 A 
HETATM   15  C           1     -14.611  10.570 -17.630  0.00  0.00     0.007 A 
ENDBRANCH   9  10
ENDBRANCH   5   9
ENDBRANCH   2   5
BRANCH   1  16
HETATM   16  C           1     -11.300   5.937 -19.855  0.00  0.00     0.283 C 
BRANCH  16  17
HETATM   17  N           1     -11.837   4.591 -19.469  0.00  0.00    -0.066 N 
HETATM   18  H           1     -11.222   4.167 -18.738  0.00  0.00     0.275 HD
HETATM   19  H           1     -12.804   4.698 -19.090  0.00  0.00     0.275 HD
HETATM   20  H           1     -11.857   3.969 -20.309  0.00  0.00     0.275 HD
ENDBRANCH  16  17
BRANCH  16  21
HETATM   21  C           1     -10.450   5.802 -21.113  0.00  0.00     0.113 C 
BRANCH  21  22
HETATM   22  S           1     -11.109   4.466 -22.150  0.00  0.00    -0.180 SA
HETATM   23  H           1     -11.877   5.255 -22.922  0.00  0.00     0.101 HD
ENDBRANCH  21  22
ENDBRANCH  16  21
ENDBRANCH   1  16
TORSDOF 8
ENDMDL
MODEL 9
REMARK VINA RESULT:      -5.9     16.686     18.649
REMARK  8 active torsions:
REMARK  status: ('A' for Active; 'I' for Inactive)
REMARK    1  A    between atoms: N_4  and  C_7 
REMARK    2  A    between atoms: S_5  and  C_6 
REMARK    3  A    between atoms: C_6  and  C_7 
REMARK    4  A    between atoms: C_7  and  C_8 
REMARK       I    between atoms: C_8  and  N_9 
REMARK    5  A    between atoms: N_9  and  C_18 
REMARK    6  A    between atoms: C_18  and  C_20 
REMARK    7  A    between atoms: C_18  and  C_22 
REMARK    8  A    between atoms: C_22  and  C_23 
ROOT
HETATM    1  C           1     -20.427  -7.621  -5.713  0.00  0.00     0.249 C 
HETATM    2  N           1     -20.620  -8.810  -5.062  0.00  0.00    -0.344 N 
HETATM    3  O           1     -19.393  -7.418  -6.305  0.00  0.00    -0.271 OA
HETATM    4  H           1     -21.041  -9.591  -5.548  0.00  0.00     0.163 HD
ENDROOT
BRANCH   2   5
HETATM    5  C           1     -20.222  -8.950  -3.674  0.00  0.00     0.189 C 
BRANCH   5   6
HETATM    6  C           1     -18.813  -9.485  -3.607  0.00  0.00     0.197 C 
HETATM    7  O           1     -18.082  -9.200  -2.634  0.00  0.00    -0.646 OA
HETATM    8  O           1     -18.376 -10.213  -4.525  0.00  0.00    -0.646 OA
ENDBRANCH   5   6
BRANCH   5   9
HETATM    9  C           1     -21.167  -9.914  -2.970  0.00  0.00     0.074 C 
BRANCH   9  10
HETATM   10  C           1     -21.818  -9.220  -1.814  0.00  0.00    -0.056 A 
HETATM   11  C           1     -22.601  -9.945  -0.917  0.00  0.00     0.007 A 
HETATM   12  C           1     -23.208  -9.297   0.161  0.00  0.00     0.001 A 
HETATM   13  C           1     -23.032  -7.925   0.338  0.00  0.00     0.000 A 
HETATM   14  C           1     -22.248  -7.201  -0.560  0.00  0.00     0.001 A 
HETATM   15  C           1     -21.642  -7.848  -1.636  0.00  0.00     0.007 A 
ENDBRANCH   9  10
ENDBRANCH   5   9
ENDBRANCH   2   5
BRANCH   1  16
HETATM   16  C           1     -21.505  -6.566  -5.691  0.00  0.00     0.283 C 
BRANCH  16  17
HETATM   17  N           1     -21.248  -5.612  -4.563  0.00  0.00    -0.066 N 
HETATM   18  H           1     -20.251  -5.299  -4.591  0.00  0.00     0.275 HD
HETATM   19  H           1     -21.876  -4.783  -4.659  0.00  0.00     0.275 HD
HETATM   20  H           1     -21.436  -6.091  -3.652  0.00  0.00     0.275 HD
ENDBRANCH  16  17
BRANCH  16  21
HETATM   21  C           1     -21.497  -5.805  -7.011  0.00  0.00     0.113 C 
BRANCH  21  22
HETATM   22  S           1     -20.880  -4.120  -6.736  0.00  0.00    -0.180 SA
HETATM   23  H           1     -20.164  -4.047  -7.872  0.00  0.00     0.101 HD
ENDBRANCH  21  22
ENDBRANCH  16  21
ENDBRANCH   1  16
TORSDOF 8
ENDMDL
