MODEL 1
REMARK VINA RESULT:      -6.6      0.000      0.000
REMARK  9 active torsions:
REMARK  status: ('A' for Active; 'I' for Inactive)
REMARK    1  A    between atoms: N_1  and  C_20 
REMARK       I    between atoms: N_1  and  C_19 
REMARK    2  A    between atoms: N_7  and  C_18 
REMARK    3  A    between atoms: C_10  and  C_11 
REMARK       I    between atoms: C_10  and  N_16 
REMARK    4  A    between atoms: C_11  and  C_17 
REMARK       I    between atoms: C_12  and  N_15 
REMARK    5  A    between atoms: C_12  and  C_14 
REMARK    6  A    between atoms: C_14  and  C_20 
REMARK    7  A    between atoms: C_17  and  C_18 
REMARK    8  A    between atoms: C_18  and  C_19 
REMARK    9  A    between atoms: C_20  and  C_21 
ROOT
HETATM    1  N           1     -23.444  -4.122  -8.782  0.00  0.00    -0.344 N 
HETATM    2  O           1     -21.305  -3.657  -8.341  0.00  0.00    -0.271 OA
HETATM    3  C           1     -22.357  -4.103  -7.949  0.00  0.00     0.249 C 
HETATM    4  H           1     -24.325  -4.497  -8.454  0.00  0.00     0.163 HD
ENDROOT
BRANCH   3   5
HETATM    5  C           1     -22.473  -4.641  -6.544  0.00  0.00     0.275 C 
BRANCH   5   6
HETATM    6  N           1     -23.876  -5.114  -6.305  0.00  0.00    -0.066 N 
HETATM    7  H           1     -24.139  -4.937  -5.309  0.00  0.00     0.275 HD
HETATM    8  H           1     -24.530  -4.598  -6.936  0.00  0.00     0.275 HD
HETATM    9  H           1     -23.936  -6.139  -6.504  0.00  0.00     0.275 HD
ENDBRANCH   5   6
BRANCH   5  10
HETATM   10  C           1     -21.506  -5.804  -6.364  0.00  0.00     0.052 C 
BRANCH  10  11
HETATM   11  C           1     -20.838  -5.704  -4.999  0.00  0.00     0.105 C 
BRANCH  11  12
HETATM   12  C           1     -21.593  -6.550  -4.004  0.00  0.00     0.215 C 
HETATM   13  O           1     -22.138  -6.031  -3.059  0.00  0.00    -0.274 OA
HETATM   14  N           1     -21.661  -7.907  -4.172  0.00  0.00    -0.370 N 
HETATM   15  H           1     -22.167  -8.475  -3.505  0.00  0.00     0.159 HD
HETATM   16  H           1     -21.204  -8.342  -4.963  0.00  0.00     0.159 HD
ENDBRANCH  11  12
ENDBRANCH  10  11
ENDBRANCH   5  10
ENDBRANCH   3   5
BRANCH   1  17
HETATM   17  C           1     -23.333  -3.606 -10.132  0.00  0.00     0.194 C 
BRANCH  17  18
HETATM   18  C           1     -22.713  -4.667 -11.031  0.00  0.00     0.138 C 
BRANCH  18  19
HETATM   19  C           1     -21.628  -4.042 -11.873  0.00  0.00     0.217 C 
HETATM   20  O           1     -20.487  -4.032 -11.477  0.00  0.00    -0.274 OA
HETATM   21  N           1     -21.936  -3.487 -13.086  0.00  0.00    -0.370 N 
HETATM   22  H           1     -21.208  -3.068 -13.651  0.00  0.00     0.159 HD
HETATM   23  H           1     -22.892  -3.496 -13.418  0.00  0.00     0.159 HD
ENDBRANCH  18  19
ENDBRANCH  17  18
BRANCH  17  24
HETATM   24  C           1     -24.706  -3.249 -10.647  0.00  0.00     0.197 C 
HETATM   25  O           1     -25.661  -3.129  -9.850  0.00  0.00    -0.646 OA
HETATM   26  O           1     -24.887  -3.073 -11.872  0.00  0.00    -0.646 OA
ENDBRANCH  17  24
ENDBRANCH   1  17
TORSDOF 9
ENDMDL
MODEL 2
REMARK VINA RESULT:      -6.3      1.769      6.734
REMARK  9 active torsions:
REMARK  status: ('A' for Active; 'I' for Inactive)
REMARK    1  A    between atoms: N_1  and  C_20 
REMARK       I    between atoms: N_1  and  C_19 
REMARK    2  A    between atoms: N_7  and  C_18 
REMARK    3  A    between atoms: C_10  and  C_11 
REMARK       I    between atoms: C_10  and  N_16 
REMARK    4  A    between atoms: C_11  and  C_17 
REMARK       I    between atoms: C_12  and  N_15 
REMARK    5  A    between atoms: C_12  and  C_14 
REMARK    6  A    between atoms: C_14  and  C_20 
REMARK    7  A    between atoms: C_17  and  C_18 
REMARK    8  A    between atoms: C_18  and  C_19 
REMARK    9  A    between atoms: C_20  and  C_21 
ROOT
HETATM    1  N           1     -22.056  -4.812  -7.364  0.00  0.00    -0.344 N 
HETATM    2  O           1     -21.491  -3.321  -8.928  0.00  0.00    -0.271 OA
HETATM    3  C           1     -22.291  -4.135  -8.531  0.00  0.00     0.249 C 
HETATM    4  H           1     -22.726  -5.493  -7.031  0.00  0.00     0.163 HD
ENDROOT
BRANCH   3   5
HETATM    5  C           1     -23.548  -4.405  -9.320  0.00  0.00     0.275 C 
BRANCH   5   6
HETATM    6  N           1     -24.565  -3.346  -9.017  0.00  0.00    -0.066 N 
HETATM    7  H           1     -24.079  -2.438  -8.835  0.00  0.00     0.275 HD
HETATM    8  H           1     -25.210  -3.238  -9.831  0.00  0.00     0.275 HD
HETATM    9  H           1     -25.114  -3.621  -8.171  0.00  0.00     0.275 HD
ENDBRANCH   5   6
BRANCH   5  10
HETATM   10  C           1     -23.227  -4.389 -10.809  0.00  0.00     0.052 C 
BRANCH  10  11
HETATM   11  C           1     -24.162  -3.419 -11.521  0.00  0.00     0.105 C 
BRANCH  11  12
HETATM   12  C           1     -23.550  -3.002 -12.835  0.00  0.00     0.215 C 
HETATM   13  O           1     -24.191  -2.340 -13.617  0.00  0.00    -0.274 OA
HETATM   14  N           1     -22.270  -3.374 -13.143  0.00  0.00    -0.370 N 
HETATM   15  H           1     -21.859  -3.095 -14.025  0.00  0.00     0.159 HD
HETATM   16  H           1     -21.733  -3.929 -12.489  0.00  0.00     0.159 HD
ENDBRANCH  11  12
ENDBRANCH  10  11
ENDBRANCH   5  10
ENDBRANCH   3   5
BRANCH   1  17
HETATM   17  C           1     -20.848  -4.552  -6.605  0.00  0.00     0.194 C 
BRANCH  17  18
HETATM   18  C           1     -20.976  -5.173  -5.220  0.00  0.00     0.138 C 
BRANCH  18  19
HETATM   19  C           1     -21.976  -6.301  -5.264  0.00  0.00     0.217 C 
HETATM   20  O           1     -23.152  -6.072  -5.109  0.00  0.00    -0.274 OA
HETATM   21  N           1     -21.552  -7.584  -5.479  0.00  0.00    -0.370 N 
HETATM   22  H           1     -22.224  -8.341  -5.508  0.00  0.00     0.159 HD
HETATM   23  H           1     -20.567  -7.776  -5.609  0.00  0.00     0.159 HD
ENDBRANCH  18  19
ENDBRANCH  17  18
BRANCH  17  24
HETATM   24  C           1     -19.665  -5.158  -7.321  0.00  0.00     0.197 C 
HETATM   25  O           1     -19.710  -6.345  -7.708  0.00  0.00    -0.646 OA
HETATM   26  O           1     -18.641  -4.471  -7.526  0.00  0.00    -0.646 OA
ENDBRANCH  17  24
ENDBRANCH   1  17
TORSDOF 9
ENDMDL
MODEL 3
REMARK VINA RESULT:      -6.1      2.301      7.144
REMARK  9 active torsions:
REMARK  status: ('A' for Active; 'I' for Inactive)
REMARK    1  A    between atoms: N_1  and  C_20 
REMARK       I    between atoms: N_1  and  C_19 
REMARK    2  A    between atoms: N_7  and  C_18 
REMARK    3  A    between atoms: C_10  and  C_11 
REMARK       I    between atoms: C_10  and  N_16 
REMARK    4  A    between atoms: C_11  and  C_17 
REMARK       I    between atoms: C_12  and  N_15 
REMARK    5  A    between atoms: C_12  and  C_14 
REMARK    6  A    between atoms: C_14  and  C_20 
REMARK    7  A    between atoms: C_17  and  C_18 
REMARK    8  A    between atoms: C_18  and  C_19 
REMARK    9  A    between atoms: C_20  and  C_21 
ROOT
HETATM    1  N           1     -20.860  -6.653  -4.833  0.00  0.00    -0.344 N 
HETATM    2  O           1     -22.573  -5.532  -5.725  0.00  0.00    -0.271 OA
HETATM    3  C           1     -21.380  -5.725  -5.695  0.00  0.00     0.249 C 
HETATM    4  H           1     -19.861  -6.815  -4.808  0.00  0.00     0.163 HD
ENDROOT
BRANCH   3   5
HETATM    5  C           1     -20.466  -4.943  -6.606  0.00  0.00     0.275 C 
BRANCH   5   6
HETATM    6  N           1     -19.966  -5.841  -7.699  0.00  0.00    -0.066 N 
HETATM    7  H           1     -19.144  -6.388  -7.354  0.00  0.00     0.275 HD
HETATM    8  H           1     -20.726  -6.498  -7.986  0.00  0.00     0.275 HD
HETATM    9  H           1     -19.677  -5.262  -8.520  0.00  0.00     0.275 HD
ENDBRANCH   5   6
BRANCH   5  10
HETATM   10  C           1     -21.232  -3.777  -7.217  0.00  0.00     0.052 C 
BRANCH  10  11
HETATM   11  C           1     -21.439  -4.028  -8.705  0.00  0.00     0.105 C 
BRANCH  11  12
HETATM   12  C           1     -22.909  -3.936  -9.032  0.00  0.00     0.215 C 
HETATM   13  O           1     -23.264  -3.766 -10.174  0.00  0.00    -0.274 OA
HETATM   14  N           1     -23.840  -4.045  -8.035  0.00  0.00    -0.370 N 
HETATM   15  H           1     -24.826  -3.982  -8.254  0.00  0.00     0.159 HD
HETATM   16  H           1     -23.542  -4.187  -7.078  0.00  0.00     0.159 HD
ENDBRANCH  11  12
ENDBRANCH  10  11
ENDBRANCH   5  10
ENDBRANCH   3   5
BRANCH   1  17
HETATM   17  C           1     -21.738  -7.404  -3.957  0.00  0.00     0.194 C 
BRANCH  17  18
HETATM   18  C           1     -21.347  -8.875  -3.987  0.00  0.00     0.138 C 
BRANCH  18  19
HETATM   19  C           1     -19.933  -9.011  -4.497  0.00  0.00     0.217 C 
HETATM   20  O           1     -19.724  -9.067  -5.686  0.00  0.00    -0.274 OA
HETATM   21  N           1     -18.889  -9.070  -3.615  0.00  0.00    -0.370 N 
HETATM   22  H           1     -17.941  -9.161  -3.958  0.00  0.00     0.159 HD
HETATM   23  H           1     -19.065  -9.023  -2.619  0.00  0.00     0.159 HD
ENDBRANCH  18  19
ENDBRANCH  17  18
BRANCH  17  24
HETATM   24  C           1     -21.613  -6.877  -2.549  0.00  0.00     0.197 C 
HETATM   25  O           1     -20.840  -7.434  -1.740  0.00  0.00    -0.646 OA
HETATM   26  O           1     -22.282  -5.883  -2.191  0.00  0.00    -0.646 OA
ENDBRANCH  17  24
ENDBRANCH   1  17
TORSDOF 9
ENDMDL
MODEL 4
REMARK VINA RESULT:      -6.0      1.803      2.196
REMARK  9 active torsions:
REMARK  status: ('A' for Active; 'I' for Inactive)
REMARK    1  A    between atoms: N_1  and  C_20 
REMARK       I    between atoms: N_1  and  C_19 
REMARK    2  A    between atoms: N_7  and  C_18 
REMARK    3  A    between atoms: C_10  and  C_11 
REMARK       I    between atoms: C_10  and  N_16 
REMARK    4  A    between atoms: C_11  and  C_17 
REMARK       I    between atoms: C_12  and  N_15 
REMARK    5  A    between atoms: C_12  and  C_14 
REMARK    6  A    between atoms: C_14  and  C_20 
REMARK    7  A    between atoms: C_17  and  C_18 
REMARK    8  A    between atoms: C_18  and  C_19 
REMARK    9  A    between atoms: C_20  and  C_21 
ROOT
HETATM    1  N           1     -22.317  -4.613  -9.419  0.00  0.00    -0.344 N 
HETATM    2  O           1     -20.447  -3.555 -10.028  0.00  0.00    -0.271 OA
HETATM    3  C           1     -20.969  -4.390  -9.329  0.00  0.00     0.249 C 
HETATM    4  H           1     -22.754  -5.314  -8.834  0.00  0.00     0.163 HD
ENDROOT
BRANCH   3   5
HETATM    5  C           1     -20.135  -5.188  -8.357  0.00  0.00     0.275 C 
BRANCH   5   6
HETATM    6  N           1     -19.174  -4.273  -7.656  0.00  0.00    -0.066 N 
HETATM    7  H           1     -19.708  -3.555  -7.115  0.00  0.00     0.275 HD
HETATM    8  H           1     -18.577  -4.829  -7.003  0.00  0.00     0.275 HD
HETATM    9  H           1     -18.569  -3.797  -8.362  0.00  0.00     0.275 HD
ENDBRANCH   5   6
BRANCH   5  10
HETATM   10  C           1     -21.045  -5.850  -7.331  0.00  0.00     0.052 C 
BRANCH  10  11
HETATM   11  C           1     -20.395  -5.782  -5.955  0.00  0.00     0.105 C 
BRANCH  11  12
HETATM   12  C           1     -21.256  -6.512  -4.954  0.00  0.00     0.215 C 
HETATM   13  O           1     -21.787  -5.903  -4.055  0.00  0.00    -0.274 OA
HETATM   14  N           1     -21.437  -7.864  -5.064  0.00  0.00    -0.370 N 
HETATM   15  H           1     -22.015  -8.354  -4.392  0.00  0.00     0.159 HD
HETATM   16  H           1     -20.993  -8.375  -5.816  0.00  0.00     0.159 HD
ENDBRANCH  11  12
ENDBRANCH  10  11
ENDBRANCH   5  10
ENDBRANCH   3   5
BRANCH   1  17
HETATM   17  C           1     -23.118  -3.847 -10.353  0.00  0.00     0.194 C 
BRANCH  17  18
HETATM   18  C           1     -22.920  -4.395 -11.760  0.00  0.00     0.138 C 
BRANCH  18  19
HETATM   19  C           1     -23.630  -3.507 -12.752  0.00  0.00     0.217 C 
HETATM   20  O           1     -24.349  -3.995 -13.592  0.00  0.00    -0.274 OA
HETATM   21  N           1     -23.461  -2.150 -12.700  0.00  0.00    -0.370 N 
HETATM   22  H           1     -23.938  -1.555 -13.366  0.00  0.00     0.159 HD
HETATM   23  H           1     -22.859  -1.742 -11.997  0.00  0.00     0.159 HD
ENDBRANCH  18  19
ENDBRANCH  17  18
BRANCH  17  24
HETATM   24  C           1     -24.574  -3.955  -9.972  0.00  0.00     0.197 C 
HETATM   25  O           1     -25.059  -5.065  -9.662  0.00  0.00    -0.646 OA
HETATM   26  O           1     -25.296  -2.933  -9.965  0.00  0.00    -0.646 OA
ENDBRANCH  17  24
ENDBRANCH   1  17
TORSDOF 9
ENDMDL
MODEL 5
REMARK VINA RESULT:      -5.9      2.507      7.139
REMARK  9 active torsions:
REMARK  status: ('A' for Active; 'I' for Inactive)
REMARK    1  A    between atoms: N_1  and  C_20 
REMARK       I    between atoms: N_1  and  C_19 
REMARK    2  A    between atoms: N_7  and  C_18 
REMARK    3  A    between atoms: C_10  and  C_11 
REMARK       I    between atoms: C_10  and  N_16 
REMARK    4  A    between atoms: C_11  and  C_17 
REMARK       I    between atoms: C_12  and  N_15 
REMARK    5  A    between atoms: C_12  and  C_14 
REMARK    6  A    between atoms: C_14  and  C_20 
REMARK    7  A    between atoms: C_17  and  C_18 
REMARK    8  A    between atoms: C_18  and  C_19 
REMARK    9  A    between atoms: C_20  and  C_21 
ROOT
HETATM    1  N           1     -21.002  -6.290  -6.260  0.00  0.00    -0.344 N 
HETATM    2  O           1     -20.171  -4.423  -5.359  0.00  0.00    -0.271 OA
HETATM    3  C           1     -20.692  -4.957  -6.309  0.00  0.00     0.249 C 
HETATM    4  H           1     -21.438  -6.737  -7.056  0.00  0.00     0.163 HD
ENDROOT
BRANCH   3   5
HETATM    5  C           1     -21.000  -4.155  -7.550  0.00  0.00     0.275 C 
BRANCH   5   6
HETATM    6  N           1     -20.236  -4.719  -8.711  0.00  0.00    -0.066 N 
HETATM    7  H           1     -19.903  -5.681  -8.475  0.00  0.00     0.275 HD
HETATM    8  H           1     -20.858  -4.762  -9.549  0.00  0.00     0.275 HD
HETATM    9  H           1     -19.414  -4.108  -8.917  0.00  0.00     0.275 HD
ENDBRANCH   5   6
BRANCH   5  10
HETATM   10  C           1     -22.493  -4.226  -7.842  0.00  0.00     0.052 C 
BRANCH  10  11
HETATM   11  C           1     -22.769  -3.648  -9.225  0.00  0.00     0.105 C 
BRANCH  11  12
HETATM   12  C           1     -23.993  -4.307  -9.811  0.00  0.00     0.215 C 
HETATM   13  O           1     -23.878  -5.292 -10.501  0.00  0.00    -0.274 OA
HETATM   14  N           1     -25.235  -3.790  -9.560  0.00  0.00    -0.370 N 
HETATM   15  H           1     -26.057  -4.231  -9.954  0.00  0.00     0.159 HD
HETATM   16  H           1     -25.332  -2.964  -8.982  0.00  0.00     0.159 HD
ENDBRANCH  11  12
ENDBRANCH  10  11
ENDBRANCH   5  10
ENDBRANCH   3   5
BRANCH   1  17
HETATM   17  C           1     -20.705  -7.061  -5.069  0.00  0.00     0.194 C 
BRANCH  17  18
HETATM   18  C           1     -21.954  -7.156  -4.203  0.00  0.00     0.138 C 
BRANCH  18  19
HETATM   19  C           1     -21.606  -6.809  -2.776  0.00  0.00     0.217 C 
HETATM   20  O           1     -20.702  -7.384  -2.218  0.00  0.00    -0.274 OA
HETATM   21  N           1     -22.314  -5.843  -2.114  0.00  0.00    -0.370 N 
HETATM   22  H           1     -22.081  -5.611  -1.157  0.00  0.00     0.159 HD
HETATM   23  H           1     -23.072  -5.362  -2.581  0.00  0.00     0.159 HD
ENDBRANCH  18  19
ENDBRANCH  17  18
BRANCH  17  24
HETATM   24  C           1     -20.260  -8.447  -5.465  0.00  0.00     0.197 C 
HETATM   25  O           1     -21.108  -9.348  -5.645  0.00  0.00    -0.646 OA
HETATM   26  O           1     -19.043  -8.694  -5.614  0.00  0.00    -0.646 OA
ENDBRANCH  17  24
ENDBRANCH   1  17
TORSDOF 9
ENDMDL
MODEL 6
REMARK VINA RESULT:      -5.8      2.498      6.741
REMARK  9 active torsions:
REMARK  status: ('A' for Active; 'I' for Inactive)
REMARK    1  A    between atoms: N_1  and  C_20 
REMARK       I    between atoms: N_1  and  C_19 
REMARK    2  A    between atoms: N_7  and  C_18 
REMARK    3  A    between atoms: C_10  and  C_11 
REMARK       I    between atoms: C_10  and  N_16 
REMARK    4  A    between atoms: C_11  and  C_17 
REMARK       I    between atoms: C_12  and  N_15 
REMARK    5  A    between atoms: C_12  and  C_14 
REMARK    6  A    between atoms: C_14  and  C_20 
REMARK    7  A    between atoms: C_17  and  C_18 
REMARK    8  A    between atoms: C_18  and  C_19 
REMARK    9  A    between atoms: C_20  and  C_21 
ROOT
HETATM    1  N           1     -22.999  -4.303  -8.765  0.00  0.00    -0.344 N 
HETATM    2  O           1     -21.812  -4.949 -10.542  0.00  0.00    -0.271 OA
HETATM    3  C           1     -22.799  -4.398 -10.116  0.00  0.00     0.249 C 
HETATM    4  H           1     -23.825  -3.840  -8.407  0.00  0.00     0.163 HD
ENDROOT
BRANCH   3   5
HETATM    5  C           1     -23.809  -3.813 -11.072  0.00  0.00     0.275 C 
BRANCH   5   6
HETATM    6  N           1     -24.993  -3.311 -10.300  0.00  0.00    -0.066 N 
HETATM    7  H           1     -25.670  -2.857 -10.956  0.00  0.00     0.275 HD
HETATM    8  H           1     -25.459  -4.111  -9.817  0.00  0.00     0.275 HD
HETATM    9  H           1     -24.676  -2.612  -9.591  0.00  0.00     0.275 HD
ENDBRANCH   5   6
BRANCH   5  10
HETATM   10  C           1     -23.176  -2.659 -11.838  0.00  0.00     0.052 C 
BRANCH  10  11
HETATM   11  C           1     -22.614  -3.172 -13.158  0.00  0.00     0.105 C 
BRANCH  11  12
HETATM   12  C           1     -23.122  -2.314 -14.290  0.00  0.00     0.215 C 
HETATM   13  O           1     -22.723  -2.499 -15.415  0.00  0.00    -0.274 OA
HETATM   14  N           1     -24.035  -1.325 -14.042  0.00  0.00    -0.370 N 
HETATM   15  H           1     -24.376  -0.749 -14.801  0.00  0.00     0.159 HD
HETATM   16  H           1     -24.369  -1.170 -13.100  0.00  0.00     0.159 HD
ENDBRANCH  11  12
ENDBRANCH  10  11
ENDBRANCH   5  10
ENDBRANCH   3   5
BRANCH   1  17
HETATM   17  C           1     -22.028  -4.864  -7.846  0.00  0.00     0.194 C 
BRANCH  17  18
HETATM   18  C           1     -20.866  -3.894  -7.680  0.00  0.00     0.138 C 
BRANCH  18  19
HETATM   19  C           1     -19.573  -4.666  -7.590  0.00  0.00     0.217 C 
HETATM   20  O           1     -18.517  -4.082  -7.637  0.00  0.00    -0.274 OA
HETATM   21  N           1     -19.597  -6.027  -7.456  0.00  0.00    -0.370 N 
HETATM   22  H           1     -18.729  -6.545  -7.396  0.00  0.00     0.159 HD
HETATM   23  H           1     -20.482  -6.517  -7.416  0.00  0.00     0.159 HD
ENDBRANCH  18  19
ENDBRANCH  17  18
BRANCH  17  24
HETATM   24  C           1     -22.682  -5.100  -6.506  0.00  0.00     0.197 C 
HETATM   25  O           1     -22.023  -5.597  -5.568  0.00  0.00    -0.646 OA
HETATM   26  O           1     -23.884  -4.798  -6.336  0.00  0.00    -0.646 OA
ENDBRANCH  17  24
ENDBRANCH   1  17
TORSDOF 9
ENDMDL
MODEL 7
REMARK VINA RESULT:      -5.7      2.527      7.420
REMARK  9 active torsions:
REMARK  status: ('A' for Active; 'I' for Inactive)
REMARK    1  A    between atoms: N_1  and  C_20 
REMARK       I    between atoms: N_1  and  C_19 
REMARK    2  A    between atoms: N_7  and  C_18 
REMARK    3  A    between atoms: C_10  and  C_11 
REMARK       I    between atoms: C_10  and  N_16 
REMARK    4  A    between atoms: C_11  and  C_17 
REMARK       I    between atoms: C_12  and  N_15 
REMARK    5  A    between atoms: C_12  and  C_14 
REMARK    6  A    between atoms: C_14  and  C_20 
REMARK    7  A    between atoms: C_17  and  C_18 
REMARK    8  A    between atoms: C_18  and  C_19 
REMARK    9  A    between atoms: C_20  and  C_21 
ROOT
HETATM    1  N           1     -21.476  -6.690  -5.615  0.00  0.00    -0.344 N 
HETATM    2  O           1     -20.523  -4.671  -5.630  0.00  0.00    -0.271 OA
HETATM    3  C           1     -21.311  -5.434  -6.134  0.00  0.00     0.249 C 
HETATM    4  H           1     -22.137  -7.330  -6.037  0.00  0.00     0.163 HD
ENDROOT
BRANCH   3   5
HETATM    5  C           1     -22.115  -5.003  -7.337  0.00  0.00     0.275 C 
BRANCH   5   6
HETATM    6  N           1     -23.439  -4.463  -6.884  0.00  0.00    -0.066 N 
HETATM    7  H           1     -24.101  -5.255  -6.718  0.00  0.00     0.275 HD
HETATM    8  H           1     -23.310  -3.924  -5.998  0.00  0.00     0.275 HD
HETATM    9  H           1     -23.829  -3.834  -7.622  0.00  0.00     0.275 HD
ENDBRANCH   5   6
BRANCH   5  10
HETATM   10  C           1     -21.356  -3.921  -8.093  0.00  0.00     0.052 C 
BRANCH  10  11
HETATM   11  C           1     -21.859  -3.856  -9.530  0.00  0.00     0.105 C 
BRANCH  11  12
HETATM   12  C           1     -20.704  -4.062 -10.478  0.00  0.00     0.215 C 
HETATM   13  O           1     -19.883  -4.919 -10.253  0.00  0.00    -0.274 OA
HETATM   14  N           1     -20.585  -3.277 -11.593  0.00  0.00    -0.370 N 
HETATM   15  H           1     -19.809  -3.414 -12.229  0.00  0.00     0.159 HD
HETATM   16  H           1     -21.273  -2.558 -11.781  0.00  0.00     0.159 HD
ENDBRANCH  11  12
ENDBRANCH  10  11
ENDBRANCH   5  10
ENDBRANCH   3   5
BRANCH   1  17
HETATM   17  C           1     -20.704  -7.105  -4.460  0.00  0.00     0.194 C 
BRANCH  17  18
HETATM   18  C           1     -21.644  -7.630  -3.383  0.00  0.00     0.138 C 
BRANCH  18  19
HETATM   19  C           1     -21.857  -6.565  -2.336  0.00  0.00     0.217 C 
HETATM   20  O           1     -21.545  -5.421  -2.566  0.00  0.00    -0.274 OA
HETATM   21  N           1     -22.402  -6.894  -1.125  0.00  0.00    -0.370 N 
HETATM   22  H           1     -22.545  -6.179  -0.422  0.00  0.00     0.159 HD
HETATM   23  H           1     -22.664  -7.852  -0.932  0.00  0.00     0.159 HD
ENDBRANCH  18  19
ENDBRANCH  17  18
BRANCH  17  24
HETATM   24  C           1     -19.742  -8.195  -4.863  0.00  0.00     0.197 C 
HETATM   25  O           1     -19.331  -9.013  -4.012  0.00  0.00    -0.646 OA
HETATM   26  O           1     -19.355  -8.280  -6.049  0.00  0.00    -0.646 OA
ENDBRANCH  17  24
ENDBRANCH   1  17
TORSDOF 9
ENDMDL
MODEL 8
REMARK VINA RESULT:      -5.5     18.328     20.500
REMARK  9 active torsions:
REMARK  status: ('A' for Active; 'I' for Inactive)
REMARK    1  A    between atoms: N_1  and  C_20 
REMARK       I    between atoms: N_1  and  C_19 
REMARK    2  A    between atoms: N_7  and  C_18 
REMARK    3  A    between atoms: C_10  and  C_11 
REMARK       I    between atoms: C_10  and  N_16 
REMARK    4  A    between atoms: C_11  and  C_17 
REMARK       I    between atoms: C_12  and  N_15 
REMARK    5  A    between atoms: C_12  and  C_14 
REMARK    6  A    between atoms: C_14  and  C_20 
REMARK    7  A    between atoms: C_17  and  C_18 
REMARK    8  A    between atoms: C_18  and  C_19 
REMARK    9  A    between atoms: C_20  and  C_21 
ROOT
HETATM    1  N           1     -12.047   6.661 -22.051  0.00  0.00    -0.344 N 
HETATM    2  O           1     -13.727   8.079 -22.440  0.00  0.00    -0.271 OA
HETATM    3  C           1     -12.535   7.887 -22.418  0.00  0.00     0.249 C 
HETATM    4  H           1     -11.048   6.499 -22.033  0.00  0.00     0.163 HD
ENDROOT
BRANCH   3   5
HETATM    5  C           1     -11.584   8.996 -22.795  0.00  0.00     0.275 C 
BRANCH   5   6
HETATM    6  N           1     -12.323  10.301 -22.816  0.00  0.00    -0.066 N 
HETATM    7  H           1     -11.828  10.992 -22.208  0.00  0.00     0.275 HD
HETATM    8  H           1     -12.362  10.664 -23.795  0.00  0.00     0.275 HD
HETATM    9  H           1     -13.294  10.157 -22.459  0.00  0.00     0.275 HD
ENDBRANCH   5   6
BRANCH   5  10
HETATM   10  C           1     -10.456   9.067 -21.774  0.00  0.00     0.052 C 
BRANCH  10  11
HETATM   11  C           1     -11.025   9.449 -20.414  0.00  0.00     0.105 C 
BRANCH  11  12
HETATM   12  C           1     -10.364   8.621 -19.340  0.00  0.00     0.215 C 
HETATM   13  O           1     -10.260   9.057 -18.218  0.00  0.00    -0.274 OA
HETATM   14  N           1      -9.882   7.375 -19.637  0.00  0.00    -0.370 N 
HETATM   15  H           1      -9.438   6.819 -18.917  0.00  0.00     0.159 HD
HETATM   16  H           1      -9.969   7.009 -20.577  0.00  0.00     0.159 HD
ENDBRANCH  11  12
ENDBRANCH  10  11
ENDBRANCH   5  10
ENDBRANCH   3   5
BRANCH   1  17
HETATM   17  C           1     -12.961   5.595 -21.688  0.00  0.00     0.194 C 
BRANCH  17  18
HETATM   18  C           1     -12.351   4.253 -22.071  0.00  0.00     0.138 C 
BRANCH  18  19
HETATM   19  C           1     -13.419   3.187 -22.038  0.00  0.00     0.217 C 
HETATM   20  O           1     -13.336   2.274 -21.251  0.00  0.00    -0.274 OA
HETATM   21  N           1     -14.480   3.254 -22.899  0.00  0.00    -0.370 N 
HETATM   22  H           1     -15.196   2.539 -22.877  0.00  0.00     0.159 HD
HETATM   23  H           1     -14.549   4.019 -23.558  0.00  0.00     0.159 HD
ENDBRANCH  18  19
ENDBRANCH  17  18
BRANCH  17  24
HETATM   24  C           1     -13.207   5.630 -20.200  0.00  0.00     0.197 C 
HETATM   25  O           1     -12.243   5.589 -19.405  0.00  0.00    -0.646 OA
HETATM   26  O           1     -14.376   5.699 -19.762  0.00  0.00    -0.646 OA
ENDBRANCH  17  24
ENDBRANCH   1  17
TORSDOF 9
ENDMDL
MODEL 9
REMARK VINA RESULT:      -5.4     17.714     19.706
REMARK  9 active torsions:
REMARK  status: ('A' for Active; 'I' for Inactive)
REMARK    1  A    between atoms: N_1  and  C_20 
REMARK       I    between atoms: N_1  and  C_19 
REMARK    2  A    between atoms: N_7  and  C_18 
REMARK    3  A    between atoms: C_10  and  C_11 
REMARK       I    between atoms: C_10  and  N_16 
REMARK    4  A    between atoms: C_11  and  C_17 
REMARK       I    between atoms: C_12  and  N_15 
REMARK    5  A    between atoms: C_12  and  C_14 
REMARK    6  A    between atoms: C_14  and  C_20 
REMARK    7  A    between atoms: C_17  and  C_18 
REMARK    8  A    between atoms: C_18  and  C_19 
REMARK    9  A    between atoms: C_20  and  C_21 
ROOT
HETATM    1  N           1     -12.734   5.859 -21.693  0.00  0.00    -0.344 N 
HETATM    2  O           1     -13.898   7.544 -22.583  0.00  0.00    -0.271 OA
HETATM    3  C           1     -12.862   7.162 -22.094  0.00  0.00     0.249 C 
HETATM    4  H           1     -11.865   5.539 -21.284  0.00  0.00     0.163 HD
ENDROOT
BRANCH   3   5
HETATM    5  C           1     -11.708   8.121 -21.926  0.00  0.00     0.275 C 
BRANCH   5   6
HETATM    6  N           1     -12.150   9.504 -22.302  0.00  0.00    -0.066 N 
HETATM    7  H           1     -12.887   9.828 -21.635  0.00  0.00     0.275 HD
HETATM    8  H           1     -11.333  10.154 -22.261  0.00  0.00     0.275 HD
HETATM    9  H           1     -12.540   9.493 -23.271  0.00  0.00     0.275 HD
ENDBRANCH   5   6
BRANCH   5  10
HETATM   10  C           1     -11.248   8.112 -20.474  0.00  0.00     0.052 C 
BRANCH  10  11
HETATM   11  C           1      -9.995   7.257 -20.342  0.00  0.00     0.105 C 
BRANCH  11  12
HETATM   12  C           1     -10.251   6.134 -19.368  0.00  0.00     0.215 C 
HETATM   13  O           1     -11.384   5.853 -19.055  0.00  0.00    -0.274 OA
HETATM   14  N           1      -9.202   5.432 -18.841  0.00  0.00    -0.370 N 
HETATM   15  H           1      -9.374   4.678 -18.187  0.00  0.00     0.159 HD
HETATM   16  H           1      -8.253   5.667 -19.103  0.00  0.00     0.159 HD
ENDBRANCH  11  12
ENDBRANCH  10  11
ENDBRANCH   5  10
ENDBRANCH   3   5
BRANCH   1  17
HETATM   17  C           1     -13.842   4.938 -21.854  0.00  0.00     0.194 C 
BRANCH  17  18
HETATM   18  C           1     -13.303   3.539 -22.121  0.00  0.00     0.138 C 
BRANCH  18  19
HETATM   19  C           1     -11.866   3.457 -21.668  0.00  0.00     0.217 C 
HETATM   20  O           1     -10.978   3.792 -22.414  0.00  0.00    -0.274 OA
HETATM   21  N           1     -11.569   3.003 -20.411  0.00  0.00    -0.370 N 
HETATM   22  H           1     -10.605   2.948 -20.107  0.00  0.00     0.159 HD
HETATM   23  H           1     -12.314   2.723 -19.786  0.00  0.00     0.159 HD
ENDBRANCH  18  19
ENDBRANCH  17  18
BRANCH  17  24
HETATM   24  C           1     -14.673   4.927 -20.595  0.00  0.00     0.197 C 
HETATM   25  O           1     -14.192   4.477 -19.533  0.00  0.00    -0.646 OA
HETATM   26  O           1     -15.843   5.367 -20.615  0.00  0.00    -0.646 OA
ENDBRANCH  17  24
ENDBRANCH   1  17
TORSDOF 9
ENDMDL
