MODEL 1
REMARK VINA RESULT:      -5.4      0.000      0.000
REMARK  6 active torsions:
REMARK  status: ('A' for Active; 'I' for Inactive)
REMARK    1  A    between atoms: O_2  and  C_4 
REMARK    2  A    between atoms: C_3  and  C_9 
REMARK    3  A    between atoms: C_4  and  C_11 
REMARK    4  A    between atoms: N_5  and  C_11 
REMARK    5  A    between atoms: C_9  and  N_12 
REMARK    6  A    between atoms: C_11  and  C_13 
REMARK       I    between atoms: N_12  and  C_13 
ROOT
HETATM    1  H           1     -34.002  -0.430 -14.203  0.00  0.00     0.163 HD
HETATM    2  O           1     -36.615  -1.248 -12.672  0.00  0.00    -0.271 OA
HETATM    3  N           1     -34.994  -0.532 -14.031  0.00  0.00    -0.345 N 
HETATM    4  C           1     -35.431  -1.126 -12.877  0.00  0.00     0.251 C 
ENDROOT
BRANCH   4   5
HETATM    5  C           1     -34.433  -1.628 -11.863  0.00  0.00     0.297 C 
BRANCH   5   6
HETATM    6  C           1     -34.030  -3.055 -12.209  0.00  0.00     0.206 C 
BRANCH   6   7
HETATM    7  O           1     -34.391  -3.335 -13.535  0.00  0.00    -0.398 OA
HETATM    8  H           1     -35.330  -3.403 -13.555  0.00  0.00     0.209 HD
ENDBRANCH   6   7
ENDBRANCH   5   6
BRANCH   5   9
HETATM    9  N           1     -35.053  -1.601 -10.497  0.00  0.00    -0.064 N 
HETATM   10  H           1     -35.897  -0.986 -10.510  0.00  0.00     0.275 HD
HETATM   11  H           1     -35.333  -2.570 -10.223  0.00  0.00     0.275 HD
HETATM   12  H           1     -34.361  -1.230  -9.807  0.00  0.00     0.275 HD
ENDBRANCH   5   9
ENDBRANCH   4   5
BRANCH   3  13
HETATM   13  C           1     -35.953  -0.050 -15.006  0.00  0.00     0.181 C 
HETATM   14  C           1     -35.585   1.369 -15.421  0.00  0.00     0.043 C 
BRANCH  13  15
HETATM   15  C           1     -35.934  -0.950 -16.217  0.00  0.00     0.196 C 
HETATM   16  O           1     -36.705  -0.726 -17.175  0.00  0.00    -0.646 OA
HETATM   17  O           1     -35.147  -1.920 -16.262  0.00  0.00    -0.646 OA
ENDBRANCH  13  15
ENDBRANCH   3  13
TORSDOF 6
ENDMDL
MODEL 2
REMARK VINA RESULT:      -5.2     12.356     14.379
REMARK  6 active torsions:
REMARK  status: ('A' for Active; 'I' for Inactive)
REMARK    1  A    between atoms: O_2  and  C_4 
REMARK    2  A    between atoms: C_3  and  C_9 
REMARK    3  A    between atoms: C_4  and  C_11 
REMARK    4  A    between atoms: N_5  and  C_11 
REMARK    5  A    between atoms: C_9  and  N_12 
REMARK    6  A    between atoms: C_11  and  C_13 
REMARK       I    between atoms: N_12  and  C_13 
ROOT
HETATM    1  H           1     -21.890  -2.519  -9.974  0.00  0.00     0.163 HD
HETATM    2  O           1     -22.699  -5.088 -11.582  0.00  0.00    -0.271 OA
HETATM    3  N           1     -22.015  -3.505 -10.163  0.00  0.00    -0.345 N 
HETATM    4  C           1     -22.550  -3.911 -11.357  0.00  0.00     0.251 C 
ENDROOT
BRANCH   4   5
HETATM    5  C           1     -22.951  -2.887 -12.390  0.00  0.00     0.297 C 
BRANCH   5   6
HETATM    6  C           1     -24.467  -2.882 -12.537  0.00  0.00     0.206 C 
BRANCH   6   7
HETATM    7  O           1     -25.060  -3.160 -11.297  0.00  0.00    -0.398 OA
HETATM    8  H           1     -24.666  -3.954 -10.977  0.00  0.00     0.209 HD
ENDBRANCH   6   7
ENDBRANCH   5   6
BRANCH   5   9
HETATM    9  N           1     -22.323  -3.234 -13.707  0.00  0.00    -0.064 N 
HETATM   10  H           1     -23.059  -3.258 -14.449  0.00  0.00     0.275 HD
HETATM   11  H           1     -21.607  -2.514 -13.952  0.00  0.00     0.275 HD
HETATM   12  H           1     -21.866  -4.172 -13.639  0.00  0.00     0.275 HD
ENDBRANCH   5   9
ENDBRANCH   4   5
BRANCH   3  13
HETATM   13  C           1     -21.629  -4.489  -9.170  0.00  0.00     0.181 C 
HETATM   14  C           1     -20.112  -4.625  -9.155  0.00  0.00     0.043 C 
BRANCH  13  15
HETATM   15  C           1     -22.108  -4.044  -7.810  0.00  0.00     0.196 C 
HETATM   16  O           1     -23.259  -4.342  -7.425  0.00  0.00    -0.646 OA
HETATM   17  O           1     -21.354  -3.377  -7.069  0.00  0.00    -0.646 OA
ENDBRANCH  13  15
ENDBRANCH   3  13
TORSDOF 6
ENDMDL
MODEL 3
REMARK VINA RESULT:      -5.1      1.624      4.369
REMARK  6 active torsions:
REMARK  status: ('A' for Active; 'I' for Inactive)
REMARK    1  A    between atoms: O_2  and  C_4 
REMARK    2  A    between atoms: C_3  and  C_9 
REMARK    3  A    between atoms: C_4  and  C_11 
REMARK    4  A    between atoms: N_5  and  C_11 
REMARK    5  A    between atoms: C_9  and  N_12 
REMARK    6  A    between atoms: C_11  and  C_13 
REMARK       I    between atoms: N_12  and  C_13 
ROOT
HETATM    1  H           1     -36.810  -1.500 -13.357  0.00  0.00     0.163 HD
HETATM    2  O           1     -34.504   0.459 -14.183  0.00  0.00    -0.271 OA
HETATM    3  N           1     -35.928  -1.009 -13.287  0.00  0.00    -0.345 N 
HETATM    4  C           1     -35.556  -0.127 -14.266  0.00  0.00     0.251 C 
ENDROOT
BRANCH   4   5
HETATM    5  C           1     -36.463   0.113 -15.449  0.00  0.00     0.297 C 
BRANCH   5   6
HETATM    6  C           1     -36.107  -0.858 -16.567  0.00  0.00     0.206 C 
BRANCH   6   7
HETATM    7  O           1     -35.214  -1.825 -16.081  0.00  0.00    -0.398 OA
HETATM    8  H           1     -35.421  -2.633 -16.519  0.00  0.00     0.209 HD
ENDBRANCH   6   7
ENDBRANCH   5   6
BRANCH   5   9
HETATM    9  N           1     -36.286   1.521 -15.936  0.00  0.00    -0.064 N 
HETATM   10  H           1     -36.241   2.169 -15.118  0.00  0.00     0.275 HD
HETATM   11  H           1     -35.399   1.591 -16.484  0.00  0.00     0.275 HD
HETATM   12  H           1     -37.094   1.783 -16.545  0.00  0.00     0.275 HD
ENDBRANCH   5   9
ENDBRANCH   4   5
BRANCH   3  13
HETATM   13  C           1     -35.057  -1.239 -12.150  0.00  0.00     0.181 C 
HETATM   14  C           1     -35.895  -1.334 -10.882  0.00  0.00     0.043 C 
BRANCH  13  15
HETATM   15  C           1     -34.300  -2.528 -12.352  0.00  0.00     0.196 C 
HETATM   16  O           1     -33.533  -2.949 -11.459  0.00  0.00    -0.646 OA
HETATM   17  O           1     -34.438  -3.176 -13.413  0.00  0.00    -0.646 OA
ENDBRANCH  13  15
ENDBRANCH   3  13
TORSDOF 6
ENDMDL
MODEL 4
REMARK VINA RESULT:      -5.0      9.027     10.286
REMARK  6 active torsions:
REMARK  status: ('A' for Active; 'I' for Inactive)
REMARK    1  A    between atoms: O_2  and  C_4 
REMARK    2  A    between atoms: C_3  and  C_9 
REMARK    3  A    between atoms: C_4  and  C_11 
REMARK    4  A    between atoms: N_5  and  C_11 
REMARK    5  A    between atoms: C_9  and  N_12 
REMARK    6  A    between atoms: C_11  and  C_13 
REMARK       I    between atoms: N_12  and  C_13 
ROOT
HETATM    1  H           1     -28.030  -8.032 -16.025  0.00  0.00     0.163 HD
HETATM    2  O           1     -26.529  -5.630 -17.372  0.00  0.00    -0.271 OA
HETATM    3  N           1     -27.914  -7.183 -16.562  0.00  0.00    -0.345 N 
HETATM    4  C           1     -26.667  -6.644 -16.730  0.00  0.00     0.251 C 
ENDROOT
BRANCH   4   5
HETATM    5  C           1     -25.465  -7.317 -16.114  0.00  0.00     0.297 C 
BRANCH   5   6
HETATM    6  C           1     -24.959  -6.481 -14.945  0.00  0.00     0.206 C 
BRANCH   6   7
HETATM    7  O           1     -24.554  -5.222 -15.411  0.00  0.00    -0.398 OA
HETATM    8  H           1     -24.978  -4.580 -14.868  0.00  0.00     0.209 HD
ENDBRANCH   6   7
ENDBRANCH   5   6
BRANCH   5   9
HETATM    9  N           1     -24.382  -7.444 -17.143  0.00  0.00    -0.064 N 
HETATM   10  H           1     -24.176  -8.455 -17.310  0.00  0.00     0.275 HD
HETATM   11  H           1     -24.697  -7.002 -18.036  0.00  0.00     0.275 HD
HETATM   12  H           1     -23.518  -6.964 -16.802  0.00  0.00     0.275 HD
ENDBRANCH   5   9
ENDBRANCH   4   5
BRANCH   3  13
HETATM   13  C           1     -29.070  -6.537 -17.155  0.00  0.00     0.181 C 
HETATM   14  C           1     -30.012  -7.595 -17.713  0.00  0.00     0.043 C 
BRANCH  13  15
HETATM   15  C           1     -29.787  -5.728 -16.102  0.00  0.00     0.196 C 
HETATM   16  O           1     -30.852  -5.138 -16.385  0.00  0.00    -0.646 OA
HETATM   17  O           1     -29.316  -5.647 -14.947  0.00  0.00    -0.646 OA
ENDBRANCH  13  15
ENDBRANCH   3  13
TORSDOF 6
ENDMDL
MODEL 5
REMARK VINA RESULT:      -4.8     11.954     13.134
REMARK  6 active torsions:
REMARK  status: ('A' for Active; 'I' for Inactive)
REMARK    1  A    between atoms: O_2  and  C_4 
REMARK    2  A    between atoms: C_3  and  C_9 
REMARK    3  A    between atoms: C_4  and  C_11 
REMARK    4  A    between atoms: N_5  and  C_11 
REMARK    5  A    between atoms: C_9  and  N_12 
REMARK    6  A    between atoms: C_11  and  C_13 
REMARK       I    between atoms: N_12  and  C_13 
ROOT
HETATM    1  H           1     -21.815  -2.651 -12.630  0.00  0.00     0.163 HD
HETATM    2  O           1     -23.248  -5.262 -11.646  0.00  0.00    -0.271 OA
HETATM    3  N           1     -22.517  -3.379 -12.597  0.00  0.00    -0.345 N 
HETATM    4  C           1     -22.409  -4.394 -11.685  0.00  0.00     0.251 C 
ENDROOT
BRANCH   4   5
HETATM    5  C           1     -21.242  -4.428 -10.729  0.00  0.00     0.297 C 
BRANCH   5   6
HETATM    6  C           1     -21.651  -3.794  -9.406  0.00  0.00     0.206 C 
BRANCH   6   7
HETATM    7  O           1     -23.006  -3.438  -9.456  0.00  0.00    -0.398 OA
HETATM    8  H           1     -23.319  -3.425  -8.567  0.00  0.00     0.209 HD
ENDBRANCH   6   7
ENDBRANCH   5   6
BRANCH   5   9
HETATM    9  N           1     -20.094  -3.662 -11.316  0.00  0.00    -0.064 N 
HETATM   10  H           1     -19.475  -3.318 -10.547  0.00  0.00     0.275 HD
HETATM   11  H           1     -19.546  -4.287 -11.949  0.00  0.00     0.275 HD
HETATM   12  H           1     -20.459  -2.848 -11.860  0.00  0.00     0.275 HD
ENDBRANCH   5   9
ENDBRANCH   4   5
BRANCH   3  13
HETATM   13  C           1     -23.639  -3.346 -13.516  0.00  0.00     0.181 C 
HETATM   14  C           1     -24.874  -2.829 -12.790  0.00  0.00     0.043 C 
BRANCH  13  15
HETATM   15  C           1     -23.315  -2.431 -14.671  0.00  0.00     0.196 C 
HETATM   16  O           1     -22.352  -2.692 -15.424  0.00  0.00    -0.646 OA
HETATM   17  O           1     -24.009  -1.411 -14.875  0.00  0.00    -0.646 OA
ENDBRANCH  13  15
ENDBRANCH   3  13
TORSDOF 6
ENDMDL
MODEL 6
REMARK VINA RESULT:      -4.8      6.943      8.205
REMARK  6 active torsions:
REMARK  status: ('A' for Active; 'I' for Inactive)
REMARK    1  A    between atoms: O_2  and  C_4 
REMARK    2  A    between atoms: C_3  and  C_9 
REMARK    3  A    between atoms: C_4  and  C_11 
REMARK    4  A    between atoms: N_5  and  C_11 
REMARK    5  A    between atoms: C_9  and  N_12 
REMARK    6  A    between atoms: C_11  and  C_13 
REMARK       I    between atoms: N_12  and  C_13 
ROOT
HETATM    1  H           1     -31.496  -6.406 -18.568  0.00  0.00     0.163 HD
HETATM    2  O           1     -30.388  -5.239 -15.875  0.00  0.00    -0.271 OA
HETATM    3  N           1     -30.851  -6.272 -17.800  0.00  0.00    -0.345 N 
HETATM    4  C           1     -31.158  -5.398 -16.792  0.00  0.00     0.251 C 
ENDROOT
BRANCH   4   5
HETATM    5  C           1     -32.459  -4.635 -16.826  0.00  0.00     0.297 C 
BRANCH   5   6
HETATM    6  C           1     -32.264  -3.332 -17.589  0.00  0.00     0.206 C 
BRANCH   6   7
HETATM    7  O           1     -30.945  -3.258 -18.061  0.00  0.00    -0.398 OA
HETATM    8  H           1     -30.866  -3.893 -18.753  0.00  0.00     0.209 HD
ENDBRANCH   6   7
ENDBRANCH   5   6
BRANCH   5   9
HETATM    9  N           1     -32.898  -4.332 -15.424  0.00  0.00    -0.064 N 
HETATM   10  H           1     -33.442  -3.439 -15.415  0.00  0.00     0.275 HD
HETATM   11  H           1     -33.500  -5.110 -15.072  0.00  0.00     0.275 HD
HETATM   12  H           1     -32.058  -4.234 -14.810  0.00  0.00     0.275 HD
ENDBRANCH   5   9
ENDBRANCH   4   5
BRANCH   3  13
HETATM   13  C           1     -29.600  -7.006 -17.767  0.00  0.00     0.181 C 
HETATM   14  C           1     -29.658  -8.152 -18.768  0.00  0.00     0.043 C 
BRANCH  13  15
HETATM   15  C           1     -28.465  -6.080 -18.127  0.00  0.00     0.196 C 
HETATM   16  O           1     -28.612  -5.234 -19.036  0.00  0.00    -0.646 OA
HETATM   17  O           1     -27.377  -6.158 -17.516  0.00  0.00    -0.646 OA
ENDBRANCH  13  15
ENDBRANCH   3  13
TORSDOF 6
ENDMDL
MODEL 7
REMARK VINA RESULT:      -4.7      9.756     11.146
REMARK  6 active torsions:
REMARK  status: ('A' for Active; 'I' for Inactive)
REMARK    1  A    between atoms: O_2  and  C_4 
REMARK    2  A    between atoms: C_3  and  C_9 
REMARK    3  A    between atoms: C_4  and  C_11 
REMARK    4  A    between atoms: N_5  and  C_11 
REMARK    5  A    between atoms: C_9  and  N_12 
REMARK    6  A    between atoms: C_11  and  C_13 
REMARK       I    between atoms: N_12  and  C_13 
ROOT
HETATM    1  H           1     -26.833  -7.427 -17.357  0.00  0.00     0.163 HD
HETATM    2  O           1     -28.092  -5.571 -19.551  0.00  0.00    -0.271 OA
HETATM    3  N           1     -27.523  -6.831 -17.797  0.00  0.00    -0.345 N 
HETATM    4  C           1     -27.269  -6.281 -19.026  0.00  0.00     0.251 C 
ENDROOT
BRANCH   4   5
HETATM    5  C           1     -25.961  -6.565 -19.723  0.00  0.00     0.297 C 
BRANCH   5   6
HETATM    6  C           1     -26.173  -7.635 -20.786  0.00  0.00     0.206 C 
BRANCH   6   7
HETATM    7  O           1     -27.411  -8.261 -20.579  0.00  0.00    -0.398 OA
HETATM    8  H           1     -27.403  -9.056 -21.084  0.00  0.00     0.209 HD
ENDBRANCH   6   7
ENDBRANCH   5   6
BRANCH   5   9
HETATM    9  N           1     -24.956  -7.050 -18.720  0.00  0.00    -0.064 N 
HETATM   10  H           1     -24.104  -6.445 -18.760  0.00  0.00     0.275 HD
HETATM   11  H           1     -25.370  -7.003 -17.762  0.00  0.00     0.275 HD
HETATM   12  H           1     -24.693  -8.037 -18.940  0.00  0.00     0.275 HD
ENDBRANCH   5   9
ENDBRANCH   4   5
BRANCH   3  13
HETATM   13  C           1     -28.780  -6.559 -17.127  0.00  0.00     0.181 C 
HETATM   14  C           1     -29.784  -7.651 -17.470  0.00  0.00     0.043 C 
BRANCH  13  15
HETATM   15  C           1     -28.557  -6.529 -15.635  0.00  0.00     0.196 C 
HETATM   16  O           1     -29.029  -5.596 -14.951  0.00  0.00    -0.646 OA
HETATM   17  O           1     -27.900  -7.439 -15.083  0.00  0.00    -0.646 OA
ENDBRANCH  13  15
ENDBRANCH   3  13
TORSDOF 6
ENDMDL
MODEL 8
REMARK VINA RESULT:      -4.7     12.922     14.533
REMARK  6 active torsions:
REMARK  status: ('A' for Active; 'I' for Inactive)
REMARK    1  A    between atoms: O_2  and  C_4 
REMARK    2  A    between atoms: C_3  and  C_9 
REMARK    3  A    between atoms: C_4  and  C_11 
REMARK    4  A    between atoms: N_5  and  C_11 
REMARK    5  A    between atoms: C_9  and  N_12 
REMARK    6  A    between atoms: C_11  and  C_13 
REMARK       I    between atoms: N_12  and  C_13 
ROOT
HETATM    1  H           1     -22.260  -5.677  -9.631  0.00  0.00     0.163 HD
HETATM    2  O           1     -21.840  -3.617  -7.303  0.00  0.00    -0.271 OA
HETATM    3  N           1     -22.285  -4.786  -9.153  0.00  0.00    -0.345 N 
HETATM    4  C           1     -21.810  -4.681  -7.873  0.00  0.00     0.251 C 
ENDROOT
BRANCH   4   5
HETATM    5  C           1     -21.248  -5.896  -7.176  0.00  0.00     0.297 C 
BRANCH   5   6
HETATM    6  C           1     -21.388  -5.727  -5.669  0.00  0.00     0.206 C 
BRANCH   6   7
HETATM    7  O           1     -22.731  -5.898  -5.301  0.00  0.00    -0.398 OA
HETATM    8  H           1     -23.244  -5.807  -6.086  0.00  0.00     0.209 HD
ENDBRANCH   6   7
ENDBRANCH   5   6
BRANCH   5   9
HETATM    9  N           1     -19.798  -6.048  -7.528  0.00  0.00    -0.064 N 
HETATM   10  H           1     -19.611  -7.036  -7.813  0.00  0.00     0.275 HD
HETATM   11  H           1     -19.563  -5.408  -8.320  0.00  0.00     0.275 HD
HETATM   12  H           1     -19.210  -5.808  -6.698  0.00  0.00     0.275 HD
ENDBRANCH   5   9
ENDBRANCH   4   5
BRANCH   3  13
HETATM   13  C           1     -22.825  -3.618  -9.823  0.00  0.00     0.181 C 
HETATM   14  C           1     -21.989  -3.312 -11.059  0.00  0.00     0.043 C 
BRANCH  13  15
HETATM   15  C           1     -24.251  -3.890 -10.234  0.00  0.00     0.196 C 
HETATM   16  O           1     -24.837  -3.108 -11.013  0.00  0.00    -0.646 OA
HETATM   17  O           1     -24.847  -4.897  -9.793  0.00  0.00    -0.646 OA
ENDBRANCH  13  15
ENDBRANCH   3  13
TORSDOF 6
ENDMDL
MODEL 9
REMARK VINA RESULT:      -4.7     11.471     13.224
REMARK  6 active torsions:
REMARK  status: ('A' for Active; 'I' for Inactive)
REMARK    1  A    between atoms: O_2  and  C_4 
REMARK    2  A    between atoms: C_3  and  C_9 
REMARK    3  A    between atoms: C_4  and  C_11 
REMARK    4  A    between atoms: N_5  and  C_11 
REMARK    5  A    between atoms: C_9  and  N_12 
REMARK    6  A    between atoms: C_11  and  C_13 
REMARK       I    between atoms: N_12  and  C_13 
ROOT
HETATM    1  H           1     -22.078  -2.314 -11.205  0.00  0.00     0.163 HD
HETATM    2  O           1     -23.910  -4.335 -12.754  0.00  0.00    -0.271 OA
HETATM    3  N           1     -22.624  -3.150 -11.365  0.00  0.00    -0.345 N 
HETATM    4  C           1     -23.258  -3.336 -12.564  0.00  0.00     0.251 C 
ENDROOT
BRANCH   4   5
HETATM    5  C           1     -23.141  -2.293 -13.648  0.00  0.00     0.297 C 
BRANCH   5   6
HETATM    6  C           1     -24.528  -1.774 -14.005  0.00  0.00     0.206 C 
BRANCH   6   7
HETATM    7  O           1     -24.416  -0.759 -14.967  0.00  0.00    -0.398 OA
HETATM    8  H           1     -24.369  -1.183 -15.807  0.00  0.00     0.209 HD
ENDBRANCH   6   7
ENDBRANCH   5   6
BRANCH   5   9
HETATM    9  N           1     -22.510  -2.904 -14.863  0.00  0.00    -0.064 N 
HETATM   10  H           1     -21.902  -3.705 -14.575  0.00  0.00     0.275 HD
HETATM   11  H           1     -23.256  -3.250 -15.507  0.00  0.00     0.275 HD
HETATM   12  H           1     -21.930  -2.186 -15.354  0.00  0.00     0.275 HD
ENDBRANCH   5   9
ENDBRANCH   4   5
BRANCH   3  13
HETATM   13  C           1     -22.736  -4.153 -10.323  0.00  0.00     0.181 C 
HETATM   14  C           1     -21.381  -4.341  -9.653  0.00  0.00     0.043 C 
BRANCH  13  15
HETATM   15  C           1     -23.746  -3.701  -9.298  0.00  0.00     0.196 C 
HETATM   16  O           1     -24.698  -2.967  -9.640  0.00  0.00    -0.646 OA
HETATM   17  O           1     -23.632  -4.061  -8.106  0.00  0.00    -0.646 OA
ENDBRANCH  13  15
ENDBRANCH   3  13
TORSDOF 6
ENDMDL
