MODEL 1
REMARK VINA RESULT:      -6.3      0.000      0.000
REMARK  10 active torsions:
REMARK  status: ('A' for Active; 'I' for Inactive)
REMARK    1  A    between atoms: C_1  and  C_3 
REMARK    2  A    between atoms: C_1  and  C_2 
REMARK    3  A    between atoms: C_1  and  N_6 
REMARK    4  A    between atoms: C_2  and  C_19 
REMARK       I    between atoms: C_3  and  N_18 
REMARK    5  A    between atoms: N_7  and  C_22 
REMARK    6  A    between atoms: C_8  and  C_20 
REMARK    7  A    between atoms: C_8  and  C_12 
REMARK    8  A    between atoms: C_8  and  N_18 
REMARK    9  A    between atoms: C_12  and  C_23 
REMARK   10  A    between atoms: C_19  and  C_22 
ROOT
HETATM    1  C           1     -21.660  -3.955  -7.561  0.00  0.00     0.249 C 
HETATM    2  H           1     -23.665  -4.453  -7.430  0.00  0.00     0.163 HD
HETATM    3  N           1     -22.950  -4.032  -8.011  0.00  0.00    -0.344 N 
HETATM    4  O           1     -21.293  -2.988  -6.938  0.00  0.00    -0.271 OA
ENDROOT
BRANCH   1   5
HETATM    5  C           1     -20.694  -5.081  -7.845  0.00  0.00     0.274 C 
BRANCH   5   6
HETATM    6  C           1     -21.001  -6.257  -6.926  0.00  0.00     0.044 C 
BRANCH   6   7
HETATM    7  C           1     -20.340  -6.031  -5.574  0.00  0.00     0.033 C 
BRANCH   7   8
HETATM    8  C           1     -21.313  -6.405  -4.463  0.00  0.00     0.620 C 
BRANCH   8   9
HETATM    9  N           1     -22.721  -6.217  -4.945  0.00  0.00    -0.077 N 
HETATM   10  H           1     -23.375  -6.241  -4.131  0.00  0.00     0.274 HD
HETATM   11  H           1     -22.966  -6.984  -5.610  0.00  0.00     0.274 HD
HETATM   12  H           1     -22.802  -5.295  -5.431  0.00  0.00     0.274 HD
ENDBRANCH   8   9
ENDBRANCH   7   8
ENDBRANCH   6   7
ENDBRANCH   5   6
BRANCH   5  13
HETATM   13  N           1     -19.291  -4.609  -7.600  0.00  0.00    -0.067 N 
HETATM   14  H           1     -18.860  -4.311  -8.503  0.00  0.00     0.275 HD
HETATM   15  H           1     -19.307  -3.798  -6.938  0.00  0.00     0.275 HD
HETATM   16  H           1     -18.730  -5.386  -7.185  0.00  0.00     0.275 HD
ENDBRANCH   5  13
ENDBRANCH   1   5
BRANCH   3  17
HETATM   17  C           1     -23.295  -3.511  -9.320  0.00  0.00     0.191 C 
BRANCH  17  18
HETATM   18  C           1     -24.730  -3.853  -9.635  0.00  0.00     0.197 C 
HETATM   19  O           1     -25.577  -2.943  -9.761  0.00  0.00    -0.646 OA
HETATM   20  O           1     -25.072  -5.049  -9.771  0.00  0.00    -0.646 OA
ENDBRANCH  17  18
BRANCH  17  21
HETATM   21  C           1     -22.382  -4.133 -10.369  0.00  0.00     0.094 C 
BRANCH  21  22
HETATM   22  C           1     -22.831  -3.711 -11.733  0.00  0.00     0.034 A 
HETATM   23  C           1     -22.581  -2.481 -12.293  0.00  0.00     0.212 A 
HETATM   24  N           1     -23.166  -2.529 -13.529  0.00  0.00    -0.072 N 
HETATM   25  C           1     -23.737  -3.762 -13.665  0.00  0.00     0.277 A 
HETATM   26  H           1     -23.175  -1.759 -14.242  0.00  0.00     0.272 HD
HETATM   27  N           1     -23.551  -4.499 -12.594  0.00  0.00    -0.349 N 
ATOM     28  HN          1     -23.874  -5.454 -12.437  1.00  0.00     0.166 HD
ENDBRANCH  21  22
ENDBRANCH  17  21
ENDBRANCH   3  17
TORSDOF 10
ENDMDL
MODEL 2
REMARK VINA RESULT:      -6.2      2.000      7.107
REMARK  10 active torsions:
REMARK  status: ('A' for Active; 'I' for Inactive)
REMARK    1  A    between atoms: C_1  and  C_3 
REMARK    2  A    between atoms: C_1  and  C_2 
REMARK    3  A    between atoms: C_1  and  N_6 
REMARK    4  A    between atoms: C_2  and  C_19 
REMARK       I    between atoms: C_3  and  N_18 
REMARK    5  A    between atoms: N_7  and  C_22 
REMARK    6  A    between atoms: C_8  and  C_20 
REMARK    7  A    between atoms: C_8  and  C_12 
REMARK    8  A    between atoms: C_8  and  N_18 
REMARK    9  A    between atoms: C_12  and  C_23 
REMARK   10  A    between atoms: C_19  and  C_22 
ROOT
HETATM    1  C           1     -21.904  -4.605  -8.915  0.00  0.00     0.249 C 
HETATM    2  H           1     -20.883  -6.393  -8.701  0.00  0.00     0.163 HD
HETATM    3  N           1     -21.311  -5.617  -8.210  0.00  0.00    -0.344 N 
HETATM    4  O           1     -21.258  -3.641  -9.250  0.00  0.00    -0.271 OA
ENDROOT
BRANCH   1   5
HETATM    5  C           1     -23.368  -4.693  -9.274  0.00  0.00     0.274 C 
BRANCH   5   6
HETATM    6  C           1     -23.520  -4.686 -10.790  0.00  0.00     0.044 C 
BRANCH   6   7
HETATM    7  C           1     -23.929  -3.295 -11.253  0.00  0.00     0.033 C 
BRANCH   7   8
HETATM    8  C           1     -23.044  -2.865 -12.417  0.00  0.00     0.620 C 
BRANCH   8   9
HETATM    9  N           1     -21.809  -3.716 -12.449  0.00  0.00    -0.077 N 
HETATM   10  H           1     -22.049  -4.665 -12.811  0.00  0.00     0.274 HD
HETATM   11  H           1     -21.420  -3.800 -11.483  0.00  0.00     0.274 HD
HETATM   12  H           1     -21.098  -3.273 -13.074  0.00  0.00     0.274 HD
ENDBRANCH   8   9
ENDBRANCH   7   8
ENDBRANCH   6   7
ENDBRANCH   5   6
BRANCH   5  13
HETATM   13  N           1     -24.096  -3.517  -8.694  0.00  0.00    -0.067 N 
HETATM   14  H           1     -24.002  -3.527  -7.654  0.00  0.00     0.275 HD
HETATM   15  H           1     -23.686  -2.632  -9.072  0.00  0.00     0.275 HD
HETATM   16  H           1     -25.107  -3.571  -8.954  0.00  0.00     0.275 HD
ENDBRANCH   5  13
ENDBRANCH   1   5
BRANCH   3  17
HETATM   17  C           1     -21.295  -5.579  -6.761  0.00  0.00     0.191 C 
BRANCH  17  18
HETATM   18  C           1     -20.036  -4.893  -6.289  0.00  0.00     0.197 C 
HETATM   19  O           1     -20.009  -4.335  -5.172  0.00  0.00    -0.646 OA
HETATM   20  O           1     -19.019  -4.883  -7.018  0.00  0.00    -0.646 OA
ENDBRANCH  17  18
BRANCH  17  21
HETATM   21  C           1     -21.332  -7.001  -6.216  0.00  0.00     0.094 C 
BRANCH  21  22
HETATM   22  C           1     -21.401  -6.961  -4.721  0.00  0.00     0.034 A 
HETATM   23  C           1     -20.653  -7.752  -3.882  0.00  0.00     0.212 A 
HETATM   24  N           1     -21.031  -7.387  -2.620  0.00  0.00    -0.072 N 
HETATM   25  C           1     -21.976  -6.409  -2.741  0.00  0.00     0.277 A 
HETATM   26  H           1     -20.664  -7.787  -1.722  0.00  0.00     0.272 HD
HETATM   27  N           1     -22.220  -6.130  -4.001  0.00  0.00    -0.349 N 
ATOM     28  HN          1     -22.879  -5.442  -4.366  1.00  0.00     0.166 HD
ENDBRANCH  21  22
ENDBRANCH  17  21
ENDBRANCH   3  17
TORSDOF 10
ENDMDL
MODEL 3
REMARK VINA RESULT:      -6.0      2.598      3.842
REMARK  10 active torsions:
REMARK  status: ('A' for Active; 'I' for Inactive)
REMARK    1  A    between atoms: C_1  and  C_3 
REMARK    2  A    between atoms: C_1  and  C_2 
REMARK    3  A    between atoms: C_1  and  N_6 
REMARK    4  A    between atoms: C_2  and  C_19 
REMARK       I    between atoms: C_3  and  N_18 
REMARK    5  A    between atoms: N_7  and  C_22 
REMARK    6  A    between atoms: C_8  and  C_20 
REMARK    7  A    between atoms: C_8  and  C_12 
REMARK    8  A    between atoms: C_8  and  N_18 
REMARK    9  A    between atoms: C_12  and  C_23 
REMARK   10  A    between atoms: C_19  and  C_22 
ROOT
HETATM    1  C           1     -20.569  -6.671  -6.130  0.00  0.00     0.249 C 
HETATM    2  H           1     -20.542  -4.617  -5.875  0.00  0.00     0.163 HD
HETATM    3  N           1     -20.753  -5.371  -6.517  0.00  0.00    -0.344 N 
HETATM    4  O           1     -19.507  -7.214  -6.319  0.00  0.00    -0.271 OA
ENDROOT
BRANCH   1   5
HETATM    5  C           1     -21.695  -7.427  -5.465  0.00  0.00     0.274 C 
BRANCH   5   6
HETATM    6  C           1     -22.281  -6.580  -4.343  0.00  0.00     0.044 C 
BRANCH   6   7
HETATM    7  C           1     -21.416  -6.716  -3.098  0.00  0.00     0.033 C 
BRANCH   7   8
HETATM    8  C           1     -22.130  -6.085  -1.910  0.00  0.00     0.620 C 
BRANCH   8   9
HETATM    9  N           1     -22.383  -7.129  -0.864  0.00  0.00    -0.077 N 
HETATM   10  H           1     -23.224  -6.866  -0.304  0.00  0.00     0.274 HD
HETATM   11  H           1     -21.553  -7.198  -0.234  0.00  0.00     0.274 HD
HETATM   12  H           1     -22.547  -8.052  -1.327  0.00  0.00     0.274 HD
ENDBRANCH   8   9
ENDBRANCH   7   8
ENDBRANCH   6   7
ENDBRANCH   5   6
BRANCH   5  13
HETATM   13  N           1     -21.167  -8.711  -4.898  0.00  0.00    -0.067 N 
HETATM   14  H           1     -21.646  -9.518  -5.357  0.00  0.00     0.275 HD
HETATM   15  H           1     -20.138  -8.772  -5.073  0.00  0.00     0.275 HD
HETATM   16  H           1     -21.348  -8.738  -3.869  0.00  0.00     0.275 HD
ENDBRANCH   5  13
ENDBRANCH   1   5
BRANCH   3  17
HETATM   17  C           1     -21.250  -5.073  -7.846  0.00  0.00     0.191 C 
BRANCH  17  18
HETATM   18  C           1     -20.141  -4.475  -8.676  0.00  0.00     0.197 C 
HETATM   19  O           1     -19.965  -4.857  -9.852  0.00  0.00    -0.646 OA
HETATM   20  O           1     -19.398  -3.596  -8.186  0.00  0.00    -0.646 OA
ENDBRANCH  17  18
BRANCH  17  21
HETATM   21  C           1     -22.401  -4.080  -7.745  0.00  0.00     0.094 C 
BRANCH  21  22
HETATM   22  C           1     -23.205  -4.119  -9.008  0.00  0.00     0.034 A 
HETATM   23  C           1     -24.312  -3.343  -9.254  0.00  0.00     0.212 A 
HETATM   24  N           1     -24.724  -3.701 -10.508  0.00  0.00    -0.072 N 
HETATM   25  C           1     -23.868  -4.662 -10.962  0.00  0.00     0.277 A 
HETATM   26  H           1     -25.548  -3.309 -11.026  0.00  0.00     0.272 HD
HETATM   27  N           1     -22.938  -4.937 -10.076  0.00  0.00    -0.349 N 
ATOM     28  HN          1     -22.180  -5.613 -10.164  1.00  0.00     0.166 HD
ENDBRANCH  21  22
ENDBRANCH  17  21
ENDBRANCH   3  17
TORSDOF 10
ENDMDL
MODEL 4
REMARK VINA RESULT:      -6.0      1.757      6.742
REMARK  10 active torsions:
REMARK  status: ('A' for Active; 'I' for Inactive)
REMARK    1  A    between atoms: C_1  and  C_3 
REMARK    2  A    between atoms: C_1  and  C_2 
REMARK    3  A    between atoms: C_1  and  N_6 
REMARK    4  A    between atoms: C_2  and  C_19 
REMARK       I    between atoms: C_3  and  N_18 
REMARK    5  A    between atoms: N_7  and  C_22 
REMARK    6  A    between atoms: C_8  and  C_20 
REMARK    7  A    between atoms: C_8  and  C_12 
REMARK    8  A    between atoms: C_8  and  N_18 
REMARK    9  A    between atoms: C_12  and  C_23 
REMARK   10  A    between atoms: C_19  and  C_22 
ROOT
HETATM    1  C           1     -23.041  -4.202  -7.781  0.00  0.00     0.249 C 
HETATM    2  H           1     -21.682  -2.680  -7.432  0.00  0.00     0.163 HD
HETATM    3  N           1     -21.823  -3.682  -7.433  0.00  0.00    -0.344 N 
HETATM    4  O           1     -23.882  -4.389  -6.936  0.00  0.00    -0.271 OA
ENDROOT
BRANCH   1   5
HETATM    5  C           1     -23.331  -4.539  -9.224  0.00  0.00     0.274 C 
BRANCH   5   6
HETATM    6  C           1     -22.671  -3.507 -10.130  0.00  0.00     0.044 C 
BRANCH   6   7
HETATM    7  C           1     -22.486  -4.097 -11.521  0.00  0.00     0.033 C 
BRANCH   7   8
HETATM    8  C           1     -23.188  -3.214 -12.546  0.00  0.00     0.620 C 
BRANCH   8   9
HETATM    9  N           1     -22.396  -3.197 -13.820  0.00  0.00    -0.077 N 
HETATM   10  H           1     -22.806  -2.496 -14.476  0.00  0.00     0.274 HD
HETATM   11  H           1     -22.425  -4.145 -14.259  0.00  0.00     0.274 HD
HETATM   12  H           1     -21.405  -2.941 -13.610  0.00  0.00     0.274 HD
ENDBRANCH   8   9
ENDBRANCH   7   8
ENDBRANCH   6   7
ENDBRANCH   5   6
BRANCH   5  13
HETATM   13  N           1     -24.814  -4.528  -9.451  0.00  0.00    -0.067 N 
HETATM   14  H           1     -25.261  -5.277  -8.877  0.00  0.00     0.275 HD
HETATM   15  H           1     -25.202  -3.597  -9.171  0.00  0.00     0.275 HD
HETATM   16  H           1     -25.013  -4.697 -10.462  0.00  0.00     0.275 HD
ENDBRANCH   5  13
ENDBRANCH   1   5
BRANCH   3  17
HETATM   17  C           1     -20.735  -4.568  -7.065  0.00  0.00     0.191 C 
BRANCH  17  18
HETATM   18  C           1     -19.613  -4.427  -8.064  0.00  0.00     0.197 C 
HETATM   19  O           1     -19.815  -4.679  -9.271  0.00  0.00    -0.646 OA
HETATM   20  O           1     -18.480  -4.058  -7.684  0.00  0.00    -0.646 OA
ENDBRANCH  17  18
BRANCH  17  21
HETATM   21  C           1     -21.233  -6.007  -7.060  0.00  0.00     0.094 C 
BRANCH  21  22
HETATM   22  C           1     -21.271  -6.517  -5.653  0.00  0.00     0.034 A 
HETATM   23  C           1     -20.447  -7.497  -5.154  0.00  0.00     0.212 A 
HETATM   24  N           1     -20.823  -7.645  -3.848  0.00  0.00    -0.072 N 
HETATM   25  C           1     -21.841  -6.767  -3.611  0.00  0.00     0.277 A 
HETATM   26  H           1     -20.407  -8.313  -3.153  0.00  0.00     0.272 HD
HETATM   27  N           1     -22.134  -6.070  -4.686  0.00  0.00    -0.349 N 
ATOM     28  HN          1     -22.851  -5.351  -4.780  1.00  0.00     0.166 HD
ENDBRANCH  21  22
ENDBRANCH  17  21
ENDBRANCH   3  17
TORSDOF 10
ENDMDL
MODEL 5
REMARK VINA RESULT:      -5.8      3.797      7.805
REMARK  10 active torsions:
REMARK  status: ('A' for Active; 'I' for Inactive)
REMARK    1  A    between atoms: C_1  and  C_3 
REMARK    2  A    between atoms: C_1  and  C_2 
REMARK    3  A    between atoms: C_1  and  N_6 
REMARK    4  A    between atoms: C_2  and  C_19 
REMARK       I    between atoms: C_3  and  N_18 
REMARK    5  A    between atoms: N_7  and  C_22 
REMARK    6  A    between atoms: C_8  and  C_20 
REMARK    7  A    between atoms: C_8  and  C_12 
REMARK    8  A    between atoms: C_8  and  N_18 
REMARK    9  A    between atoms: C_12  and  C_23 
REMARK   10  A    between atoms: C_19  and  C_22 
ROOT
HETATM    1  C           1     -21.753  -6.183  -4.533  0.00  0.00     0.249 C 
HETATM    2  H           1     -21.304  -5.568  -2.609  0.00  0.00     0.163 HD
HETATM    3  N           1     -21.481  -6.367  -3.205  0.00  0.00    -0.344 N 
HETATM    4  O           1     -22.894  -6.039  -4.903  0.00  0.00    -0.271 OA
ENDROOT
BRANCH   1   5
HETATM    5  C           1     -20.626  -6.161  -5.538  0.00  0.00     0.274 C 
BRANCH   5   6
HETATM    6  C           1     -20.464  -4.750  -6.088  0.00  0.00     0.044 C 
BRANCH   6   7
HETATM    7  C           1     -20.893  -4.722  -7.548  0.00  0.00     0.033 C 
BRANCH   7   8
HETATM    8  C           1     -22.015  -3.707  -7.730  0.00  0.00     0.620 C 
BRANCH   8   9
HETATM    9  N           1     -23.323  -4.332  -7.343  0.00  0.00    -0.077 N 
HETATM   10  H           1     -23.750  -3.791  -6.559  0.00  0.00     0.274 HD
HETATM   11  H           1     -23.161  -5.318  -7.039  0.00  0.00     0.274 HD
HETATM   12  H           1     -23.969  -4.322  -8.165  0.00  0.00     0.274 HD
ENDBRANCH   8   9
ENDBRANCH   7   8
ENDBRANCH   6   7
ENDBRANCH   5   6
BRANCH   5  13
HETATM   13  N           1     -20.941  -7.102  -6.663  0.00  0.00    -0.067 N 
HETATM   14  H           1     -21.725  -6.714  -7.234  0.00  0.00     0.275 HD
HETATM   15  H           1     -20.095  -7.219  -7.267  0.00  0.00     0.275 HD
HETATM   16  H           1     -21.221  -8.030  -6.272  0.00  0.00     0.275 HD
ENDBRANCH   5  13
ENDBRANCH   1   5
BRANCH   3  17
HETATM   17  C           1     -21.446  -7.706  -2.650  0.00  0.00     0.191 C 
BRANCH  17  18
HETATM   18  C           1     -21.834  -7.656  -1.192  0.00  0.00     0.197 C 
HETATM   19  O           1     -22.712  -6.855  -0.806  0.00  0.00    -0.646 OA
HETATM   20  O           1     -21.278  -8.418  -0.371  0.00  0.00    -0.646 OA
ENDBRANCH  17  18
BRANCH  17  21
HETATM   21  C           1     -20.038  -8.272  -2.781  0.00  0.00     0.094 C 
BRANCH  21  22
HETATM   22  C           1     -19.985  -9.210  -3.946  0.00  0.00     0.034 A 
HETATM   23  C           1     -18.881  -9.407  -4.741  0.00  0.00     0.212 A 
HETATM   24  N           1     -19.273 -10.333  -5.668  0.00  0.00    -0.072 N 
HETATM   25  C           1     -20.574 -10.653  -5.405  0.00  0.00     0.277 A 
HETATM   26  H           1     -18.682 -10.725  -6.443  0.00  0.00     0.272 HD
HETATM   27  N           1     -21.031  -9.989  -4.368  0.00  0.00    -0.349 N 
ATOM     28  HN          1     -21.966 -10.042  -3.964  1.00  0.00     0.166 HD
ENDBRANCH  21  22
ENDBRANCH  17  21
ENDBRANCH   3  17
TORSDOF 10
ENDMDL
MODEL 6
REMARK VINA RESULT:      -5.7      2.816      4.695
REMARK  10 active torsions:
REMARK  status: ('A' for Active; 'I' for Inactive)
REMARK    1  A    between atoms: C_1  and  C_3 
REMARK    2  A    between atoms: C_1  and  C_2 
REMARK    3  A    between atoms: C_1  and  N_6 
REMARK    4  A    between atoms: C_2  and  C_19 
REMARK       I    between atoms: C_3  and  N_18 
REMARK    5  A    between atoms: N_7  and  C_22 
REMARK    6  A    between atoms: C_8  and  C_20 
REMARK    7  A    between atoms: C_8  and  C_12 
REMARK    8  A    between atoms: C_8  and  N_18 
REMARK    9  A    between atoms: C_12  and  C_23 
REMARK   10  A    between atoms: C_19  and  C_22 
ROOT
HETATM    1  C           1     -22.343  -6.419  -5.019  0.00  0.00     0.249 C 
HETATM    2  H           1     -21.896  -7.875  -6.420  0.00  0.00     0.163 HD
HETATM    3  N           1     -21.856  -6.886  -6.209  0.00  0.00    -0.344 N 
HETATM    4  O           1     -23.499  -6.081  -4.930  0.00  0.00    -0.271 OA
ENDROOT
BRANCH   1   5
HETATM    5  C           1     -21.435  -6.326  -3.816  0.00  0.00     0.274 C 
BRANCH   5   6
HETATM    6  C           1     -20.731  -7.661  -3.608  0.00  0.00     0.044 C 
BRANCH   6   7
HETATM    7  C           1     -21.496  -8.484  -2.581  0.00  0.00     0.033 C 
BRANCH   7   8
HETATM    8  C           1     -20.538  -8.961  -1.496  0.00  0.00     0.620 C 
BRANCH   8   9
HETATM    9  N           1     -21.098  -8.620  -0.147  0.00  0.00    -0.077 N 
HETATM   10  H           1     -22.128  -8.471  -0.224  0.00  0.00     0.274 HD
HETATM   11  H           1     -20.645  -7.747   0.206  0.00  0.00     0.274 HD
HETATM   12  H           1     -20.908  -9.405   0.517  0.00  0.00     0.274 HD
ENDBRANCH   8   9
ENDBRANCH   7   8
ENDBRANCH   6   7
ENDBRANCH   5   6
BRANCH   5  13
HETATM   13  N           1     -22.249  -5.996  -2.600  0.00  0.00    -0.067 N 
HETATM   14  H           1     -21.856  -5.145  -2.138  0.00  0.00     0.275 HD
HETATM   15  H           1     -23.239  -5.812  -2.883  0.00  0.00     0.275 HD
HETATM   16  H           1     -22.221  -6.800  -1.934  0.00  0.00     0.275 HD
ENDBRANCH   5  13
ENDBRANCH   1   5
BRANCH   3  17
HETATM   17  C           1     -21.281  -5.964  -7.170  0.00  0.00     0.191 C 
BRANCH  17  18
HETATM   18  C           1     -19.785  -5.909  -6.981  0.00  0.00     0.197 C 
HETATM   19  O           1     -19.139  -6.963  -6.796  0.00  0.00    -0.646 OA
HETATM   20  O           1     -19.191  -4.809  -7.012  0.00  0.00    -0.646 OA
ENDBRANCH  17  18
BRANCH  17  21
HETATM   21  C           1     -21.871  -4.576  -6.955  0.00  0.00     0.094 C 
BRANCH  21  22
HETATM   22  C           1     -22.613  -4.154  -8.185  0.00  0.00     0.034 A 
HETATM   23  C           1     -22.035  -3.944  -9.414  0.00  0.00     0.212 A 
HETATM   24  N           1     -23.066  -3.576 -10.233  0.00  0.00    -0.072 N 
HETATM   25  C           1     -24.207  -3.577  -9.482  0.00  0.00     0.277 A 
HETATM   26  H           1     -22.995  -3.336 -11.252  0.00  0.00     0.272 HD
HETATM   27  N           1     -23.964  -3.922  -8.239  0.00  0.00    -0.349 N 
ATOM     28  HN          1     -24.636  -4.001  -7.476  1.00  0.00     0.166 HD
ENDBRANCH  21  22
ENDBRANCH  17  21
ENDBRANCH   3  17
TORSDOF 10
ENDMDL
MODEL 7
REMARK VINA RESULT:      -5.7      3.462      8.069
REMARK  10 active torsions:
REMARK  status: ('A' for Active; 'I' for Inactive)
REMARK    1  A    between atoms: C_1  and  C_3 
REMARK    2  A    between atoms: C_1  and  C_2 
REMARK    3  A    between atoms: C_1  and  N_6 
REMARK    4  A    between atoms: C_2  and  C_19 
REMARK       I    between atoms: C_3  and  N_18 
REMARK    5  A    between atoms: N_7  and  C_22 
REMARK    6  A    between atoms: C_8  and  C_20 
REMARK    7  A    between atoms: C_8  and  C_12 
REMARK    8  A    between atoms: C_8  and  N_18 
REMARK    9  A    between atoms: C_12  and  C_23 
REMARK   10  A    between atoms: C_19  and  C_22 
ROOT
HETATM    1  C           1     -20.412  -6.610  -6.448  0.00  0.00     0.249 C 
HETATM    2  H           1     -21.568  -8.324  -6.338  0.00  0.00     0.163 HD
HETATM    3  N           1     -20.838  -7.785  -5.889  0.00  0.00    -0.344 N 
HETATM    4  O           1     -19.503  -6.612  -7.242  0.00  0.00    -0.271 OA
ENDROOT
BRANCH   1   5
HETATM    5  C           1     -21.081  -5.310  -6.070  0.00  0.00     0.274 C 
BRANCH   5   6
HETATM    6  C           1     -21.352  -4.495  -7.328  0.00  0.00     0.044 C 
BRANCH   6   7
HETATM    7  C           1     -22.854  -4.320  -7.507  0.00  0.00     0.033 C 
BRANCH   7   8
HETATM    8  C           1     -23.145  -3.833  -8.921  0.00  0.00     0.620 C 
BRANCH   8   9
HETATM    9  N           1     -24.574  -3.384  -9.012  0.00  0.00    -0.077 N 
HETATM   10  H           1     -24.611  -2.341  -9.037  0.00  0.00     0.274 HD
HETATM   11  H           1     -25.101  -3.732  -8.181  0.00  0.00     0.274 HD
HETATM   12  H           1     -25.004  -3.769  -9.884  0.00  0.00     0.274 HD
ENDBRANCH   8   9
ENDBRANCH   7   8
ENDBRANCH   6   7
ENDBRANCH   5   6
BRANCH   5  13
HETATM   13  N           1     -20.181  -4.532  -5.156  0.00  0.00    -0.067 N 
HETATM   14  H           1     -19.780  -3.717  -5.671  0.00  0.00     0.275 HD
HETATM   15  H           1     -20.732  -4.188  -4.336  0.00  0.00     0.275 HD
HETATM   16  H           1     -19.408  -5.149  -4.822  0.00  0.00     0.275 HD
ENDBRANCH   5  13
ENDBRANCH   1   5
BRANCH   3  17
HETATM   17  C           1     -20.243  -8.258  -4.654  0.00  0.00     0.191 C 
BRANCH  17  18
HETATM   18  C           1     -19.175  -9.277  -4.969  0.00  0.00     0.197 C 
HETATM   19  O           1     -18.125  -9.312  -4.292  0.00  0.00    -0.646 OA
HETATM   20  O           1     -19.341 -10.087  -5.908  0.00  0.00    -0.646 OA
ENDBRANCH  17  18
BRANCH  17  21
HETATM   21  C           1     -21.318  -8.902  -3.788  0.00  0.00     0.094 C 
BRANCH  21  22
HETATM   22  C           1     -21.673  -7.977  -2.666  0.00  0.00     0.034 A 
HETATM   23  C           1     -21.782  -8.353  -1.348  0.00  0.00     0.212 A 
HETATM   24  N           1     -22.119  -7.209  -0.680  0.00  0.00    -0.072 N 
HETATM   25  C           1     -22.201  -6.204  -1.601  0.00  0.00     0.277 A 
HETATM   26  H           1     -22.286  -7.118   0.353  0.00  0.00     0.272 HD
HETATM   27  N           1     -21.937  -6.639  -2.812  0.00  0.00    -0.349 N 
ATOM     28  HN          1     -21.930  -6.098  -3.676  1.00  0.00     0.166 HD
ENDBRANCH  21  22
ENDBRANCH  17  21
ENDBRANCH   3  17
TORSDOF 10
ENDMDL
MODEL 8
REMARK VINA RESULT:      -5.7      3.030      7.172
REMARK  10 active torsions:
REMARK  status: ('A' for Active; 'I' for Inactive)
REMARK    1  A    between atoms: C_1  and  C_3 
REMARK    2  A    between atoms: C_1  and  C_2 
REMARK    3  A    between atoms: C_1  and  N_6 
REMARK    4  A    between atoms: C_2  and  C_19 
REMARK       I    between atoms: C_3  and  N_18 
REMARK    5  A    between atoms: N_7  and  C_22 
REMARK    6  A    between atoms: C_8  and  C_20 
REMARK    7  A    between atoms: C_8  and  C_12 
REMARK    8  A    between atoms: C_8  and  N_18 
REMARK    9  A    between atoms: C_12  and  C_23 
REMARK   10  A    between atoms: C_19  and  C_22 
ROOT
HETATM    1  C           1     -20.526  -5.265  -6.779  0.00  0.00     0.249 C 
HETATM    2  H           1     -19.466  -7.042  -6.843  0.00  0.00     0.163 HD
HETATM    3  N           1     -20.303  -6.587  -6.500  0.00  0.00    -0.344 N 
HETATM    4  O           1     -20.122  -4.412  -6.026  0.00  0.00    -0.271 OA
ENDROOT
BRANCH   1   5
HETATM    5  C           1     -21.280  -4.875  -8.028  0.00  0.00     0.274 C 
BRANCH   5   6
HETATM    6  C           1     -20.365  -4.068  -8.940  0.00  0.00     0.044 C 
BRANCH   6   7
HETATM    7  C           1     -20.599  -4.479 -10.387  0.00  0.00     0.033 C 
BRANCH   7   8
HETATM    8  C           1     -21.349  -3.372 -11.116  0.00  0.00     0.620 C 
BRANCH   8   9
HETATM    9  N           1     -21.626  -3.799 -12.527  0.00  0.00    -0.077 N 
HETATM   10  H           1     -20.825  -3.524 -13.139  0.00  0.00     0.274 HD
HETATM   11  H           1     -22.498  -3.334 -12.866  0.00  0.00     0.274 HD
HETATM   12  H           1     -21.750  -4.836 -12.559  0.00  0.00     0.274 HD
ENDBRANCH   8   9
ENDBRANCH   7   8
ENDBRANCH   6   7
ENDBRANCH   5   6
BRANCH   5  13
HETATM   13  N           1     -22.471  -4.043  -7.653  0.00  0.00    -0.067 N 
HETATM   14  H           1     -23.324  -4.425  -8.119  0.00  0.00     0.275 HD
HETATM   15  H           1     -22.601  -4.069  -6.615  0.00  0.00     0.275 HD
HETATM   16  H           1     -22.317  -3.057  -7.960  0.00  0.00     0.275 HD
ENDBRANCH   5  13
ENDBRANCH   1   5
BRANCH   3  17
HETATM   17  C           1     -21.266  -7.336  -5.716  0.00  0.00     0.191 C 
BRANCH  17  18
HETATM   18  C           1     -22.095  -6.381  -4.893  0.00  0.00     0.197 C 
HETATM   19  O           1     -23.202  -5.986  -5.319  0.00  0.00    -0.646 OA
HETATM   20  O           1     -21.675  -5.985  -3.783  0.00  0.00    -0.646 OA
ENDBRANCH  17  18
BRANCH  17  21
HETATM   21  C           1     -20.529  -8.295  -4.791  0.00  0.00     0.094 C 
BRANCH  21  22
HETATM   22  C           1     -21.049  -9.684  -4.996  0.00  0.00     0.034 A 
HETATM   23  C           1     -21.806 -10.378  -4.083  0.00  0.00     0.212 A 
HETATM   24  N           1     -22.055 -11.586  -4.675  0.00  0.00    -0.072 N 
HETATM   25  C           1     -21.450 -11.576  -5.899  0.00  0.00     0.277 A 
HETATM   26  H           1     -22.610 -12.376  -4.264  0.00  0.00     0.272 HD
HETATM   27  N           1     -20.833 -10.439  -6.121  0.00  0.00    -0.349 N 
ATOM     28  HN          1     -20.305 -10.173  -6.952  1.00  0.00     0.166 HD
ENDBRANCH  21  22
ENDBRANCH  17  21
ENDBRANCH   3  17
TORSDOF 10
ENDMDL
MODEL 9
REMARK VINA RESULT:      -5.3      5.387     10.065
REMARK  10 active torsions:
REMARK  status: ('A' for Active; 'I' for Inactive)
REMARK    1  A    between atoms: C_1  and  C_3 
REMARK    2  A    between atoms: C_1  and  C_2 
REMARK    3  A    between atoms: C_1  and  N_6 
REMARK    4  A    between atoms: C_2  and  C_19 
REMARK       I    between atoms: C_3  and  N_18 
REMARK    5  A    between atoms: N_7  and  C_22 
REMARK    6  A    between atoms: C_8  and  C_20 
REMARK    7  A    between atoms: C_8  and  C_12 
REMARK    8  A    between atoms: C_8  and  N_18 
REMARK    9  A    between atoms: C_12  and  C_23 
REMARK   10  A    between atoms: C_19  and  C_22 
ROOT
HETATM    1  C           1     -21.735  -6.725  -2.764  0.00  0.00     0.249 C 
HETATM    2  H           1     -20.192  -7.625  -1.719  0.00  0.00     0.163 HD
HETATM    3  N           1     -21.185  -7.646  -1.915  0.00  0.00    -0.344 N 
HETATM    4  O           1     -22.152  -5.677  -2.332  0.00  0.00    -0.271 OA
ENDROOT
BRANCH   1   5
HETATM    5  C           1     -21.821  -7.019  -4.243  0.00  0.00     0.274 C 
BRANCH   5   6
HETATM    6  C           1     -20.505  -6.643  -4.912  0.00  0.00     0.044 C 
BRANCH   6   7
HETATM    7  C           1     -20.537  -5.172  -5.304  0.00  0.00     0.033 C 
BRANCH   7   8
HETATM    8  C           1     -19.826  -4.986  -6.638  0.00  0.00     0.620 C 
BRANCH   8   9
HETATM    9  N           1     -20.026  -6.206  -7.488  0.00  0.00    -0.077 N 
HETATM   10  H           1     -20.971  -6.173  -7.929  0.00  0.00     0.274 HD
HETATM   11  H           1     -19.949  -7.060  -6.892  0.00  0.00     0.274 HD
HETATM   12  H           1     -19.294  -6.234  -8.234  0.00  0.00     0.274 HD
ENDBRANCH   8   9
ENDBRANCH   7   8
ENDBRANCH   6   7
ENDBRANCH   5   6
BRANCH   5  13
HETATM   13  N           1     -22.936  -6.217  -4.847  0.00  0.00    -0.067 N 
HETATM   14  H           1     -22.548  -5.565  -5.564  0.00  0.00     0.275 HD
HETATM   15  H           1     -23.623  -6.863  -5.301  0.00  0.00     0.275 HD
HETATM   16  H           1     -23.416  -5.669  -4.099  0.00  0.00     0.275 HD
ENDBRANCH   5  13
ENDBRANCH   1   5
BRANCH   3  17
HETATM   17  C           1     -22.024  -8.654  -1.295  0.00  0.00     0.191 C 
BRANCH  17  18
HETATM   18  C           1     -22.237  -8.306   0.158  0.00  0.00     0.197 C 
HETATM   19  O           1     -23.350  -7.891   0.545  0.00  0.00    -0.646 OA
HETATM   20  O           1     -21.299  -8.436   0.976  0.00  0.00    -0.646 OA
ENDBRANCH  17  18
BRANCH  17  21
HETATM   21  C           1     -21.343 -10.013  -1.398  0.00  0.00     0.094 C 
BRANCH  21  22
HETATM   22  C           1     -22.256 -11.069  -0.858  0.00  0.00     0.034 A 
HETATM   23  C           1     -23.370 -11.546  -1.508  0.00  0.00     0.212 A 
HETATM   24  N           1     -23.896 -12.485  -0.665  0.00  0.00    -0.072 N 
HETATM   25  C           1     -23.097 -12.539   0.441  0.00  0.00     0.277 A 
HETATM   26  H           1     -24.758 -13.060  -0.836  0.00  0.00     0.272 HD
HETATM   27  N           1     -22.097 -11.693   0.352  0.00  0.00    -0.349 N 
ATOM     28  HN          1     -21.359 -11.534   1.038  1.00  0.00     0.166 HD
ENDBRANCH  21  22
ENDBRANCH  17  21
ENDBRANCH   3  17
TORSDOF 10
ENDMDL
