MODEL 1
REMARK VINA RESULT:      -6.2      0.000      0.000
REMARK  5 active torsions:
REMARK  status: ('A' for Active; 'I' for Inactive)
REMARK    1  A    between atoms: C_1  and  C_4 
REMARK    2  A    between atoms: C_4  and  C_17 
REMARK    3  A    between atoms: C_4  and  N_7 
REMARK       I    between atoms: N_7  and  C_8 
REMARK    4  A    between atoms: C_8  and  C_12 
REMARK    5  A    between atoms: O_16  and  C_17 
ROOT
HETATM    1  O           1     -22.914  -4.018  -7.533  0.00  0.00    -0.271 OA
HETATM    2  N           1     -21.886  -4.549  -9.442  0.00  0.00    -0.342 N 
HETATM    3  C           1     -22.121  -4.726  -8.105  0.00  0.00     0.251 C 
HETATM    4  H           1     -21.220  -5.143  -9.921  0.00  0.00     0.163 HD
ENDROOT
BRANCH   2   5
HETATM    5  C           1     -22.589  -3.512 -10.171  0.00  0.00     0.214 C 
BRANCH   5   6
HETATM    6  C           1     -23.869  -4.077 -10.736  0.00  0.00     0.199 C 
HETATM    7  O           1     -23.916  -5.269 -11.111  0.00  0.00    -0.646 OA
HETATM    8  O           1     -24.885  -3.353 -10.827  0.00  0.00    -0.646 OA
ENDBRANCH   5   6
BRANCH   5   9
HETATM    9  C           1     -21.712  -3.007 -11.309  0.00  0.00     0.147 C 
HETATM   10  C           1     -20.395  -3.771 -11.312  0.00  0.00     0.042 C 
BRANCH   9  11
HETATM   11  O           1     -22.370  -3.206 -12.530  0.00  0.00    -0.393 OA
HETATM   12  H           1     -22.314  -2.395 -13.006  0.00  0.00     0.210 HD
ENDBRANCH   9  11
ENDBRANCH   5   9
ENDBRANCH   2   5
BRANCH   3  13
HETATM   13  C           1     -21.388  -5.805  -7.345  0.00  0.00     0.311 C 
HETATM   14  N           1     -19.984  -5.857  -7.742  0.00  0.00     0.097 N 
HETATM   15  H           1     -19.557  -6.736  -7.448  0.00  0.00     0.317 HD
HETATM   16  C           1     -19.350  -4.748  -7.035  0.00  0.00     0.271 C 
HETATM   17  C           1     -19.994  -4.779  -5.659  0.00  0.00     0.033 C 
HETATM   18  C           1     -21.333  -5.478  -5.863  0.00  0.00     0.047 C 
ENDBRANCH   3  13
TORSDOF 5
ENDMDL
MODEL 2
REMARK VINA RESULT:      -5.2      1.626      2.578
REMARK  5 active torsions:
REMARK  status: ('A' for Active; 'I' for Inactive)
REMARK    1  A    between atoms: C_1  and  C_4 
REMARK    2  A    between atoms: C_4  and  C_17 
REMARK    3  A    between atoms: C_4  and  N_7 
REMARK       I    between atoms: N_7  and  C_8 
REMARK    4  A    between atoms: C_8  and  C_12 
REMARK    5  A    between atoms: O_16  and  C_17 
ROOT
HETATM    1  O           1     -20.306  -5.334  -8.591  0.00  0.00    -0.271 OA
HETATM    2  N           1     -22.173  -4.237  -9.137  0.00  0.00    -0.342 N 
HETATM    3  C           1     -21.227  -4.639  -8.233  0.00  0.00     0.251 C 
HETATM    4  H           1     -22.945  -3.655  -8.837  0.00  0.00     0.163 HD
ENDROOT
BRANCH   2   5
HETATM    5  C           1     -22.070  -4.645 -10.525  0.00  0.00     0.214 C 
BRANCH   5   6
HETATM    6  C           1     -21.210  -3.659 -11.275  0.00  0.00     0.199 C 
HETATM    7  O           1     -20.047  -3.971 -11.612  0.00  0.00    -0.646 OA
HETATM    8  O           1     -21.661  -2.528 -11.562  0.00  0.00    -0.646 OA
ENDBRANCH   5   6
BRANCH   5   9
HETATM    9  C           1     -23.459  -4.684 -11.147  0.00  0.00     0.147 C 
HETATM   10  C           1     -24.349  -3.652 -10.467  0.00  0.00     0.042 C 
BRANCH   9  11
HETATM   11  O           1     -23.367  -4.394 -12.514  0.00  0.00    -0.393 OA
HETATM   12  H           1     -22.450  -4.357 -12.725  0.00  0.00     0.210 HD
ENDBRANCH   9  11
ENDBRANCH   5   9
ENDBRANCH   2   5
BRANCH   3  13
HETATM   13  C           1     -21.334  -4.215  -6.788  0.00  0.00     0.311 C 
HETATM   14  N           1     -22.430  -4.912  -6.123  0.00  0.00     0.097 N 
HETATM   15  H           1     -22.681  -4.444  -5.251  0.00  0.00     0.317 HD
HETATM   16  C           1     -21.908  -6.244  -5.828  0.00  0.00     0.271 C 
HETATM   17  C           1     -20.481  -5.982  -5.379  0.00  0.00     0.033 C 
HETATM   18  C           1     -20.104  -4.646  -6.007  0.00  0.00     0.047 C 
ENDBRANCH   3  13
TORSDOF 5
ENDMDL
MODEL 3
REMARK VINA RESULT:      -5.2     16.898     18.677
REMARK  5 active torsions:
REMARK  status: ('A' for Active; 'I' for Inactive)
REMARK    1  A    between atoms: C_1  and  C_4 
REMARK    2  A    between atoms: C_4  and  C_17 
REMARK    3  A    between atoms: C_4  and  N_7 
REMARK       I    between atoms: N_7  and  C_8 
REMARK    4  A    between atoms: C_8  and  C_12 
REMARK    5  A    between atoms: O_16  and  C_17 
ROOT
HETATM    1  O           1     -12.781   7.695 -20.952  0.00  0.00    -0.271 OA
HETATM    2  N           1     -12.102   5.589 -20.655  0.00  0.00    -0.342 N 
HETATM    3  C           1     -12.005   6.935 -20.425  0.00  0.00     0.251 C 
HETATM    4  H           1     -11.451   4.952 -20.214  0.00  0.00     0.163 HD
ENDROOT
BRANCH   2   5
HETATM    5  C           1     -13.138   5.075 -21.530  0.00  0.00     0.214 C 
BRANCH   5   6
HETATM    6  C           1     -14.434   4.970 -20.765  0.00  0.00     0.199 C 
HETATM    7  O           1     -14.430   4.571 -19.580  0.00  0.00    -0.646 OA
HETATM    8  O           1     -15.512   5.282 -21.316  0.00  0.00    -0.646 OA
ENDBRANCH   5   6
BRANCH   5   9
HETATM    9  C           1     -12.736   3.698 -22.040  0.00  0.00     0.147 C 
HETATM   10  C           1     -11.707   3.088 -21.097  0.00  0.00     0.042 C 
BRANCH   9  11
HETATM   11  O           1     -13.866   2.872 -22.096  0.00  0.00    -0.393 OA
HETATM   12  H           1     -14.557   3.380 -22.484  0.00  0.00     0.210 HD
ENDBRANCH   9  11
ENDBRANCH   5   9
ENDBRANCH   2   5
BRANCH   3  13
HETATM   13  C           1     -10.926   7.469 -19.515  0.00  0.00     0.311 C 
HETATM   14  N           1      -9.627   6.901 -19.860  0.00  0.00     0.097 N 
HETATM   15  H           1      -8.959   7.037 -19.100  0.00  0.00     0.317 HD
HETATM   16  C           1      -9.187   7.648 -21.034  0.00  0.00     0.271 C 
HETATM   17  C           1      -9.593   9.079 -20.727  0.00  0.00     0.033 C 
HETATM   18  C           1     -10.735   8.962 -19.724  0.00  0.00     0.047 C 
ENDBRANCH   3  13
TORSDOF 5
ENDMDL
MODEL 4
REMARK VINA RESULT:      -5.2     17.263     19.516
REMARK  5 active torsions:
REMARK  status: ('A' for Active; 'I' for Inactive)
REMARK    1  A    between atoms: C_1  and  C_4 
REMARK    2  A    between atoms: C_4  and  C_17 
REMARK    3  A    between atoms: C_4  and  N_7 
REMARK       I    between atoms: N_7  and  C_8 
REMARK    4  A    between atoms: C_8  and  C_12 
REMARK    5  A    between atoms: O_16  and  C_17 
ROOT
HETATM    1  O           1     -11.786   5.714 -19.189  0.00  0.00    -0.271 OA
HETATM    2  N           1     -11.667   7.268 -20.787  0.00  0.00    -0.342 N 
HETATM    3  C           1     -12.259   6.185 -20.195  0.00  0.00     0.251 C 
HETATM    4  H           1     -12.062   7.663 -21.631  0.00  0.00     0.163 HD
ENDROOT
BRANCH   2   5
HETATM    5  C           1     -10.474   7.851 -20.204  0.00  0.00     0.214 C 
BRANCH   5   6
HETATM    6  C           1     -10.869   8.859 -19.154  0.00  0.00     0.199 C 
HETATM    7  O           1     -11.906   9.542 -19.301  0.00  0.00    -0.646 OA
HETATM    8  O           1     -10.160   9.011 -18.135  0.00  0.00    -0.646 OA
ENDBRANCH   5   6
BRANCH   5   9
HETATM    9  C           1      -9.663   8.543 -21.293  0.00  0.00     0.147 C 
HETATM   10  C           1     -10.547   8.781 -22.510  0.00  0.00     0.042 C 
BRANCH   9  11
HETATM   11  O           1      -9.189   9.771 -20.813  0.00  0.00    -0.393 OA
HETATM   12  H           1      -8.910   9.629 -19.925  0.00  0.00     0.210 HD
ENDBRANCH   9  11
ENDBRANCH   5   9
ENDBRANCH   2   5
BRANCH   3  13
HETATM   13  C           1     -13.500   5.577 -20.802  0.00  0.00     0.311 C 
HETATM   14  N           1     -13.306   5.308 -22.223  0.00  0.00     0.097 N 
HETATM   15  H           1     -14.202   5.161 -22.689  0.00  0.00     0.317 HD
HETATM   16  C           1     -12.523   4.077 -22.271  0.00  0.00     0.271 C 
HETATM   17  C           1     -13.128   3.219 -21.173  0.00  0.00     0.033 C 
HETATM   18  C           1     -13.775   4.206 -20.208  0.00  0.00     0.047 C 
ENDBRANCH   3  13
TORSDOF 5
ENDMDL
MODEL 5
REMARK VINA RESULT:      -5.1     17.324     19.241
REMARK  5 active torsions:
REMARK  status: ('A' for Active; 'I' for Inactive)
REMARK    1  A    between atoms: C_1  and  C_4 
REMARK    2  A    between atoms: C_4  and  C_17 
REMARK    3  A    between atoms: C_4  and  N_7 
REMARK       I    between atoms: N_7  and  C_8 
REMARK    4  A    between atoms: C_8  and  C_12 
REMARK    5  A    between atoms: O_16  and  C_17 
ROOT
HETATM    1  O           1     -11.442   5.307 -18.801  0.00  0.00    -0.271 OA
HETATM    2  N           1     -10.789   6.639 -20.469  0.00  0.00    -0.342 N 
HETATM    3  C           1     -11.030   5.404 -19.932  0.00  0.00     0.251 C 
HETATM    4  H           1     -10.442   6.720 -21.417  0.00  0.00     0.163 HD
ENDROOT
BRANCH   2   5
HETATM    5  C           1     -11.029   7.833 -19.681  0.00  0.00     0.214 C 
BRANCH   5   6
HETATM    6  C           1     -12.448   8.297 -19.894  0.00  0.00     0.199 C 
HETATM    7  O           1     -12.982   8.182 -21.019  0.00  0.00    -0.646 OA
HETATM    8  O           1     -13.093   8.795 -18.945  0.00  0.00    -0.646 OA
ENDBRANCH   5   6
BRANCH   5   9
HETATM    9  C           1     -10.065   8.929 -20.113  0.00  0.00     0.147 C 
HETATM   10  C           1      -9.118   8.384 -21.173  0.00  0.00     0.042 C 
BRANCH   9  11
HETATM   11  O           1     -10.789  10.005 -20.643  0.00  0.00    -0.393 OA
HETATM   12  H           1     -10.209  10.747 -20.654  0.00  0.00     0.210 HD
ENDBRANCH   9  11
ENDBRANCH   5   9
ENDBRANCH   2   5
BRANCH   3  13
HETATM   13  C           1     -10.778   4.162 -20.752  0.00  0.00     0.311 C 
HETATM   14  N           1     -11.750   3.121 -20.431  0.00  0.00     0.097 N 
HETATM   15  H           1     -11.431   2.212 -20.765  0.00  0.00     0.317 HD
HETATM   16  C           1     -12.964   3.505 -21.146  0.00  0.00     0.271 C 
HETATM   17  C           1     -12.453   4.004 -22.486  0.00  0.00     0.033 C 
HETATM   18  C           1     -11.013   4.433 -22.228  0.00  0.00     0.047 C 
ENDBRANCH   3  13
TORSDOF 5
ENDMDL
MODEL 6
REMARK VINA RESULT:      -4.9      3.419      6.375
REMARK  5 active torsions:
REMARK  status: ('A' for Active; 'I' for Inactive)
REMARK    1  A    between atoms: C_1  and  C_4 
REMARK    2  A    between atoms: C_4  and  C_17 
REMARK    3  A    between atoms: C_4  and  N_7 
REMARK       I    between atoms: N_7  and  C_8 
REMARK    4  A    between atoms: C_8  and  C_12 
REMARK    5  A    between atoms: O_16  and  C_17 
ROOT
HETATM    1  O           1     -22.693  -5.475  -5.999  0.00  0.00    -0.271 OA
HETATM    2  N           1     -20.752  -6.048  -5.057  0.00  0.00    -0.342 N 
HETATM    3  C           1     -21.513  -5.254  -5.872  0.00  0.00     0.251 C 
HETATM    4  H           1     -19.762  -5.863  -4.951  0.00  0.00     0.163 HD
ENDROOT
BRANCH   2   5
HETATM    5  C           1     -21.364  -7.153  -4.344  0.00  0.00     0.214 C 
BRANCH   5   6
HETATM    6  C           1     -21.515  -6.789  -2.889  0.00  0.00     0.199 C 
HETATM    7  O           1     -22.408  -5.988  -2.533  0.00  0.00    -0.646 OA
HETATM    8  O           1     -20.749  -7.288  -2.036  0.00  0.00    -0.646 OA
ENDBRANCH   5   6
BRANCH   5   9
HETATM    9  C           1     -20.481  -8.388  -4.470  0.00  0.00     0.147 C 
HETATM   10  C           1     -21.357  -9.631  -4.557  0.00  0.00     0.042 C 
BRANCH   9  11
HETATM   11  O           1     -19.698  -8.287  -5.627  0.00  0.00    -0.393 OA
HETATM   12  H           1     -18.835  -8.028  -5.351  0.00  0.00     0.210 HD
ENDBRANCH   9  11
ENDBRANCH   5   9
ENDBRANCH   2   5
BRANCH   3  13
HETATM   13  C           1     -20.876  -4.105  -6.615  0.00  0.00     0.311 C 
HETATM   14  N           1     -19.640  -4.527  -7.265  0.00  0.00     0.097 N 
HETATM   15  H           1     -19.075  -3.718  -7.528  0.00  0.00     0.317 HD
HETATM   16  C           1     -20.067  -5.236  -8.467  0.00  0.00     0.271 C 
HETATM   17  C           1     -21.225  -4.403  -8.987  0.00  0.00     0.033 C 
HETATM   18  C           1     -21.756  -3.656  -7.769  0.00  0.00     0.047 C 
ENDBRANCH   3  13
TORSDOF 5
ENDMDL
MODEL 7
REMARK VINA RESULT:      -4.8     17.217     19.136
REMARK  5 active torsions:
REMARK  status: ('A' for Active; 'I' for Inactive)
REMARK    1  A    between atoms: C_1  and  C_4 
REMARK    2  A    between atoms: C_4  and  C_17 
REMARK    3  A    between atoms: C_4  and  N_7 
REMARK       I    between atoms: N_7  and  C_8 
REMARK    4  A    between atoms: C_8  and  C_12 
REMARK    5  A    between atoms: O_16  and  C_17 
ROOT
HETATM    1  O           1     -10.640   4.158 -22.258  0.00  0.00    -0.271 OA
HETATM    2  N           1     -11.463   6.023 -21.348  0.00  0.00    -0.342 N 
HETATM    3  C           1     -11.571   4.919 -22.149  0.00  0.00     0.251 C 
HETATM    4  H           1     -12.243   6.661 -21.257  0.00  0.00     0.163 HD
ENDROOT
BRANCH   2   5
HETATM    5  C           1     -10.230   6.280 -20.629  0.00  0.00     0.214 C 
BRANCH   5   6
HETATM    6  C           1     -10.290   5.614 -19.277  0.00  0.00     0.199 C 
HETATM    7  O           1      -9.235   5.377 -18.648  0.00  0.00    -0.646 OA
HETATM    8  O           1     -11.395   5.301 -18.782  0.00  0.00    -0.646 OA
ENDBRANCH   5   6
BRANCH   5   9
HETATM    9  C           1     -10.050   7.781 -20.448  0.00  0.00     0.147 C 
HETATM   10  C           1     -11.102   8.520 -21.264  0.00  0.00     0.042 C 
BRANCH   9  11
HETATM   11  O           1     -10.194   8.110 -19.094  0.00  0.00    -0.393 OA
HETATM   12  H           1     -10.351   9.037 -19.052  0.00  0.00     0.210 HD
ENDBRANCH   9  11
ENDBRANCH   5   9
ENDBRANCH   2   5
BRANCH   3  13
HETATM   13  C           1     -12.854   4.653 -22.899  0.00  0.00     0.311 C 
HETATM   14  N           1     -13.358   3.315 -22.607  0.00  0.00     0.097 N 
HETATM   15  H           1     -14.051   3.030 -23.299  0.00  0.00     0.317 HD
HETATM   16  C           1     -13.995   3.428 -21.298  0.00  0.00     0.271 C 
HETATM   17  C           1     -14.710   4.766 -21.357  0.00  0.00     0.033 C 
HETATM   18  C           1     -13.962   5.571 -22.414  0.00  0.00     0.047 C 
ENDBRANCH   3  13
TORSDOF 5
ENDMDL
MODEL 8
REMARK VINA RESULT:      -4.8      5.897      7.978
REMARK  5 active torsions:
REMARK  status: ('A' for Active; 'I' for Inactive)
REMARK    1  A    between atoms: C_1  and  C_4 
REMARK    2  A    between atoms: C_4  and  C_17 
REMARK    3  A    between atoms: C_4  and  N_7 
REMARK       I    between atoms: N_7  and  C_8 
REMARK    4  A    between atoms: C_8  and  C_12 
REMARK    5  A    between atoms: O_16  and  C_17 
ROOT
HETATM    1  O           1     -22.424 -10.449  -2.561  0.00  0.00    -0.271 OA
HETATM    2  N           1     -21.110  -8.725  -3.095  0.00  0.00    -0.342 N 
HETATM    3  C           1     -21.683  -9.572  -2.186  0.00  0.00     0.251 C 
HETATM    4  H           1     -20.489  -7.990  -2.781  0.00  0.00     0.163 HD
ENDROOT
BRANCH   2   5
HETATM    5  C           1     -21.391  -8.881  -4.509  0.00  0.00     0.214 C 
BRANCH   5   6
HETATM    6  C           1     -20.182  -9.461  -5.200  0.00  0.00     0.199 C 
HETATM    7  O           1     -19.036  -9.066  -4.894  0.00  0.00    -0.646 OA
HETATM    8  O           1     -20.326 -10.340  -6.078  0.00  0.00    -0.646 OA
ENDBRANCH   5   6
BRANCH   5   9
HETATM    9  C           1     -21.718  -7.522  -5.114  0.00  0.00     0.147 C 
HETATM   10  C           1     -21.339  -6.423  -4.131  0.00  0.00     0.042 C 
BRANCH   9  11
HETATM   11  O           1     -20.996  -7.354  -6.304  0.00  0.00    -0.393 OA
HETATM   12  H           1     -20.573  -6.514  -6.251  0.00  0.00     0.210 HD
ENDBRANCH   9  11
ENDBRANCH   5   9
ENDBRANCH   2   5
BRANCH   3  13
HETATM   13  C           1     -21.391  -9.410  -0.714  0.00  0.00     0.311 C 
HETATM   14  N           1     -21.045  -8.027  -0.402  0.00  0.00     0.097 N 
HETATM   15  H           1     -20.590  -7.964   0.509  0.00  0.00     0.317 HD
HETATM   16  C           1     -22.321  -7.318  -0.360  0.00  0.00     0.271 C 
HETATM   17  C           1     -23.252  -8.290   0.344  0.00  0.00     0.033 C 
HETATM   18  C           1     -22.638  -9.666   0.115  0.00  0.00     0.047 C 
ENDBRANCH   3  13
TORSDOF 5
ENDMDL
MODEL 9
REMARK VINA RESULT:      -4.7      5.749      7.907
REMARK  5 active torsions:
REMARK  status: ('A' for Active; 'I' for Inactive)
REMARK    1  A    between atoms: C_1  and  C_4 
REMARK    2  A    between atoms: C_4  and  C_17 
REMARK    3  A    between atoms: C_4  and  N_7 
REMARK       I    between atoms: N_7  and  C_8 
REMARK    4  A    between atoms: C_8  and  C_12 
REMARK    5  A    between atoms: O_16  and  C_17 
ROOT
HETATM    1  O           1     -20.056  -7.734  -1.348  0.00  0.00    -0.271 OA
HETATM    2  N           1     -21.744  -7.856  -2.803  0.00  0.00    -0.342 N 
HETATM    3  C           1     -21.224  -7.968  -1.542  0.00  0.00     0.251 C 
HETATM    4  H           1     -22.724  -8.052  -2.967  0.00  0.00     0.163 HD
ENDROOT
BRANCH   2   5
HETATM    5  C           1     -20.892  -7.455  -3.906  0.00  0.00     0.214 C 
BRANCH   5   6
HETATM    6  C           1     -21.505  -6.269  -4.609  0.00  0.00     0.199 C 
HETATM    7  O           1     -22.747  -6.188  -4.731  0.00  0.00    -0.646 OA
HETATM    8  O           1     -20.772  -5.366  -5.067  0.00  0.00    -0.646 OA
ENDBRANCH   5   6
BRANCH   5   9
HETATM    9  C           1     -20.754  -8.611  -4.888  0.00  0.00     0.147 C 
HETATM   10  C           1     -21.584  -9.792  -4.401  0.00  0.00     0.042 C 
BRANCH   9  11
HETATM   11  O           1     -21.210  -8.209  -6.150  0.00  0.00    -0.393 OA
HETATM   12  H           1     -20.475  -7.827  -6.598  0.00  0.00     0.210 HD
ENDBRANCH   9  11
ENDBRANCH   5   9
ENDBRANCH   2   5
BRANCH   3  13
HETATM   13  C           1     -22.111  -8.386  -0.394  0.00  0.00     0.311 C 
HETATM   14  N           1     -22.774  -9.653  -0.685  0.00  0.00     0.097 N 
HETATM   15  H           1     -23.564  -9.801  -0.055  0.00  0.00     0.317 HD
HETATM   16  C           1     -21.759 -10.675  -0.443  0.00  0.00     0.271 C 
HETATM   17  C           1     -21.050 -10.192   0.810  0.00  0.00     0.033 C 
HETATM   18  C           1     -21.284  -8.686   0.844  0.00  0.00     0.047 C 
ENDBRANCH   3  13
TORSDOF 5
ENDMDL
