MODEL 1
REMARK VINA RESULT:      -7.4      0.000      0.000
REMARK  5 active torsions:
REMARK  status: ('A' for Active; 'I' for Inactive)
REMARK    1  A    between atoms: N_6  and  C_13 
REMARK       I    between atoms: N_6  and  C_17 
REMARK    2  A    between atoms: C_13  and  C_19 
REMARK    3  A    between atoms: C_13  and  C_14 
REMARK    4  A    between atoms: C_14  and  C_15 
REMARK    5  A    between atoms: C_16  and  C_17 
ROOT
HETATM    1  C           1     -34.882  -0.864 -12.248  0.00  0.00     0.191 C 
ENDROOT
BRANCH   1   2
HETATM    2  N           1     -35.064  -1.986 -13.148  0.00  0.00    -0.344 N 
HETATM    3  H           1     -35.703  -1.910 -13.929  0.00  0.00     0.163 HD
HETATM    4  C           1     -34.371  -3.149 -12.941  0.00  0.00     0.252 C 
HETATM    5  O           1     -34.522  -4.083 -13.691  0.00  0.00    -0.271 OA
BRANCH   4   6
HETATM    6  C           1     -33.417  -3.262 -11.777  0.00  0.00     0.372 C 
HETATM    7  C           1     -32.480  -4.444 -11.958  0.00  0.00     0.048 C 
HETATM    8  C           1     -33.140  -5.592 -11.203  0.00  0.00     0.033 C 
HETATM    9  C           1     -34.415  -5.004 -10.622  0.00  0.00     0.271 C 
HETATM   10  N           1     -34.136  -3.573 -10.545  0.00  0.00     0.097 N 
HETATM   11  H           1     -33.554  -3.384  -9.729  0.00  0.00     0.317 HD
ENDBRANCH   4   6
ENDBRANCH   1   2
BRANCH   1  12
HETATM   12  C           1     -36.034  -0.808 -11.274  0.00  0.00     0.197 C 
HETATM   13  O           1     -36.639  -1.856 -10.961  0.00  0.00    -0.646 OA
HETATM   14  O           1     -36.383   0.286 -10.782  0.00  0.00    -0.646 OA
ENDBRANCH   1  12
BRANCH   1  15
HETATM   15  C           1     -34.834   0.429 -13.052  0.00  0.00     0.090 C 
BRANCH  15  16
HETATM   16  C           1     -35.805   0.345 -14.190  0.00  0.00     0.008 A 
HETATM   17  N           1     -37.168   0.336 -14.052  0.00  0.00    -0.358 N 
HETATM   18  C           1     -37.641   0.252 -15.274  0.00  0.00     0.176 A 
ATOM     19  HN          1     -37.703   0.384 -13.184  1.00  0.00     0.166 HD
HETATM   20  N           1     -36.633   0.206 -16.197  0.00  0.00    -0.380 N 
HETATM   21  H           1     -36.749   0.138 -17.238  0.00  0.00     0.160 HD
HETATM   22  C           1     -35.449   0.264 -15.515  0.00  0.00     0.109 A 
ENDBRANCH  15  16
ENDBRANCH   1  15
TORSDOF 5
ENDMDL
MODEL 2
REMARK VINA RESULT:      -7.2      2.560      3.994
REMARK  5 active torsions:
REMARK  status: ('A' for Active; 'I' for Inactive)
REMARK    1  A    between atoms: N_6  and  C_13 
REMARK       I    between atoms: N_6  and  C_17 
REMARK    2  A    between atoms: C_13  and  C_19 
REMARK    3  A    between atoms: C_13  and  C_14 
REMARK    4  A    between atoms: C_14  and  C_15 
REMARK    5  A    between atoms: C_16  and  C_17 
ROOT
HETATM    1  C           1     -36.028  -0.851 -12.347  0.00  0.00     0.191 C 
ENDROOT
BRANCH   1   2
HETATM    2  N           1     -34.790  -0.744 -11.599  0.00  0.00    -0.344 N 
HETATM    3  H           1     -34.371   0.164 -11.442  0.00  0.00     0.163 HD
HETATM    4  C           1     -34.189  -1.870 -11.106  0.00  0.00     0.252 C 
HETATM    5  O           1     -33.158  -1.781 -10.483  0.00  0.00    -0.271 OA
BRANCH   4   6
HETATM    6  C           1     -34.815  -3.223 -11.340  0.00  0.00     0.372 C 
HETATM    7  C           1     -34.144  -4.285 -10.485  0.00  0.00     0.048 C 
HETATM    8  C           1     -33.079  -4.904 -11.383  0.00  0.00     0.033 C 
HETATM    9  C           1     -33.201  -4.169 -12.707  0.00  0.00     0.271 C 
HETATM   10  N           1     -34.576  -3.677 -12.708  0.00  0.00     0.097 N 
HETATM   11  H           1     -35.210  -4.438 -12.953  0.00  0.00     0.317 HD
ENDBRANCH   4   6
ENDBRANCH   1   2
BRANCH   1  12
HETATM   12  C           1     -35.755  -0.602 -13.810  0.00  0.00     0.197 C 
HETATM   13  O           1     -36.092   0.481 -14.334  0.00  0.00    -0.646 OA
HETATM   14  O           1     -35.191  -1.480 -14.498  0.00  0.00    -0.646 OA
ENDBRANCH   1  12
BRANCH   1  15
HETATM   15  C           1     -37.021   0.183 -11.833  0.00  0.00     0.090 C 
BRANCH  15  16
HETATM   16  C           1     -37.004   0.192 -10.335  0.00  0.00     0.008 A 
HETATM   17  N           1     -36.520   1.219  -9.568  0.00  0.00    -0.358 N 
HETATM   18  C           1     -36.687   0.832  -8.325  0.00  0.00     0.176 A 
ATOM     19  HN          1     -36.115   2.098  -9.894  1.00  0.00     0.166 HD
HETATM   20  N           1     -37.261  -0.406  -8.260  0.00  0.00    -0.380 N 
HETATM   21  H           1     -37.498  -0.935  -7.384  0.00  0.00     0.160 HD
HETATM   22  C           1     -37.470  -0.830  -9.544  0.00  0.00     0.109 A 
ENDBRANCH  15  16
ENDBRANCH   1  15
TORSDOF 5
ENDMDL
MODEL 3
REMARK VINA RESULT:      -6.8      1.699      5.318
REMARK  5 active torsions:
REMARK  status: ('A' for Active; 'I' for Inactive)
REMARK    1  A    between atoms: N_6  and  C_13 
REMARK       I    between atoms: N_6  and  C_17 
REMARK    2  A    between atoms: C_13  and  C_19 
REMARK    3  A    between atoms: C_13  and  C_14 
REMARK    4  A    between atoms: C_14  and  C_15 
REMARK    5  A    between atoms: C_16  and  C_17 
ROOT
HETATM    1  C           1     -35.186  -1.384 -11.404  0.00  0.00     0.191 C 
ENDROOT
BRANCH   1   2
HETATM    2  N           1     -34.708  -0.157 -12.010  0.00  0.00    -0.344 N 
HETATM    3  H           1     -34.174   0.504 -11.459  0.00  0.00     0.163 HD
HETATM    4  C           1     -34.978   0.109 -13.325  0.00  0.00     0.252 C 
HETATM    5  O           1     -34.578   1.131 -13.829  0.00  0.00    -0.271 OA
BRANCH   4   6
HETATM    6  C           1     -35.772  -0.877 -14.145  0.00  0.00     0.372 C 
HETATM    7  C           1     -35.458  -0.728 -15.624  0.00  0.00     0.048 C 
HETATM    8  C           1     -36.534   0.205 -16.167  0.00  0.00     0.033 C 
HETATM    9  C           1     -37.413   0.534 -14.972  0.00  0.00     0.271 C 
HETATM   10  N           1     -37.202  -0.589 -14.063  0.00  0.00     0.097 N 
HETATM   11  H           1     -37.751  -1.389 -14.378  0.00  0.00     0.317 HD
ENDBRANCH   4   6
ENDBRANCH   1   2
BRANCH   1  12
HETATM   12  C           1     -36.389  -1.085 -10.543  0.00  0.00     0.197 C 
HETATM   13  O           1     -36.236  -0.590  -9.406  0.00  0.00    -0.646 OA
HETATM   14  O           1     -37.538  -1.333 -10.967  0.00  0.00    -0.646 OA
ENDBRANCH   1  12
BRANCH   1  15
HETATM   15  C           1     -34.083  -1.989 -10.544  0.00  0.00     0.090 C 
BRANCH  15  16
HETATM   16  C           1     -33.842  -3.406 -10.965  0.00  0.00     0.008 A 
HETATM   17  N           1     -34.670  -4.457 -10.670  0.00  0.00    -0.358 N 
HETATM   18  C           1     -34.103  -5.509 -11.215  0.00  0.00     0.176 A 
ATOM     19  HN          1     -35.542  -4.429 -10.141  1.00  0.00     0.166 HD
HETATM   20  N           1     -32.939  -5.177 -11.850  0.00  0.00    -0.380 N 
HETATM   21  H           1     -32.302  -5.835 -12.361  0.00  0.00     0.160 HD
HETATM   22  C           1     -32.759  -3.829 -11.697  0.00  0.00     0.109 A 
ENDBRANCH  15  16
ENDBRANCH   1  15
TORSDOF 5
ENDMDL
MODEL 4
REMARK VINA RESULT:      -6.1     11.669     13.710
REMARK  5 active torsions:
REMARK  status: ('A' for Active; 'I' for Inactive)
REMARK    1  A    between atoms: N_6  and  C_13 
REMARK       I    between atoms: N_6  and  C_17 
REMARK    2  A    between atoms: C_13  and  C_19 
REMARK    3  A    between atoms: C_13  and  C_14 
REMARK    4  A    between atoms: C_14  and  C_15 
REMARK    5  A    between atoms: C_16  and  C_17 
ROOT
HETATM    1  C           1     -22.930  -4.048  -9.244  0.00  0.00     0.191 C 
ENDROOT
BRANCH   1   2
HETATM    2  N           1     -21.834  -4.998  -9.230  0.00  0.00    -0.344 N 
HETATM    3  H           1     -21.591  -5.502 -10.074  0.00  0.00     0.163 HD
HETATM    4  C           1     -21.129  -5.213  -8.077  0.00  0.00     0.252 C 
HETATM    5  O           1     -20.217  -6.004  -8.066  0.00  0.00    -0.271 OA
BRANCH   4   6
HETATM    6  C           1     -21.491  -4.461  -6.820  0.00  0.00     0.372 C 
HETATM    7  C           1     -20.384  -4.572  -5.785  0.00  0.00     0.048 C 
HETATM    8  C           1     -20.788  -5.743  -4.897  0.00  0.00     0.033 C 
HETATM    9  C           1     -22.108  -6.236  -5.465  0.00  0.00     0.271 C 
HETATM   10  N           1     -22.644  -5.070  -6.163  0.00  0.00     0.097 N 
HETATM   11  H           1     -23.056  -4.428  -5.486  0.00  0.00     0.317 HD
ENDBRANCH   4   6
ENDBRANCH   1   2
BRANCH   1  12
HETATM   12  C           1     -24.106  -4.647  -9.976  0.00  0.00     0.197 C 
HETATM   13  O           1     -25.242  -4.142  -9.853  0.00  0.00    -0.646 OA
HETATM   14  O           1     -23.943  -5.649 -10.705  0.00  0.00    -0.646 OA
ENDBRANCH   1  12
BRANCH   1  15
HETATM   15  C           1     -22.487  -2.774  -9.952  0.00  0.00     0.090 C 
BRANCH  15  16
HETATM   16  C           1     -22.628  -2.950 -11.433  0.00  0.00     0.008 A 
HETATM   17  N           1     -23.742  -2.608 -12.154  0.00  0.00    -0.358 N 
HETATM   18  C           1     -23.459  -2.922 -13.398  0.00  0.00     0.176 A 
ATOM     19  HN          1     -24.606  -2.197 -11.801  1.00  0.00     0.166 HD
HETATM   20  N           1     -22.205  -3.454 -13.506  0.00  0.00    -0.380 N 
HETATM   21  H           1     -21.745  -3.783 -14.391  0.00  0.00     0.160 HD
HETATM   22  C           1     -21.659  -3.479 -12.252  0.00  0.00     0.109 A 
ENDBRANCH  15  16
ENDBRANCH   1  15
TORSDOF 5
ENDMDL
MODEL 5
REMARK VINA RESULT:      -6.1     12.645     14.757
REMARK  5 active torsions:
REMARK  status: ('A' for Active; 'I' for Inactive)
REMARK    1  A    between atoms: N_6  and  C_13 
REMARK       I    between atoms: N_6  and  C_17 
REMARK    2  A    between atoms: C_13  and  C_19 
REMARK    3  A    between atoms: C_13  and  C_14 
REMARK    4  A    between atoms: C_14  and  C_15 
REMARK    5  A    between atoms: C_16  and  C_17 
ROOT
HETATM    1  C           1     -21.370  -4.391  -8.907  0.00  0.00     0.191 C 
ENDROOT
BRANCH   1   2
HETATM    2  N           1     -20.735  -3.929  -7.688  0.00  0.00    -0.344 N 
HETATM    3  H           1     -20.218  -3.059  -7.685  0.00  0.00     0.163 HD
HETATM    4  C           1     -20.836  -4.669  -6.541  0.00  0.00     0.252 C 
HETATM    5  O           1     -20.308  -4.284  -5.525  0.00  0.00    -0.271 OA
BRANCH   4   6
HETATM    6  C           1     -21.608  -5.965  -6.545  0.00  0.00     0.372 C 
HETATM    7  C           1     -22.333  -6.168  -5.225  0.00  0.00     0.048 C 
HETATM    8  C           1     -21.393  -7.024  -4.384  0.00  0.00     0.033 C 
HETATM    9  C           1     -20.184  -7.273  -5.269  0.00  0.00     0.271 C 
HETATM   10  N           1     -20.704  -7.109  -6.624  0.00  0.00     0.097 N 
HETATM   11  H           1     -21.208  -7.952  -6.899  0.00  0.00     0.317 HD
ENDBRANCH   4   6
ENDBRANCH   1   2
BRANCH   1  12
HETATM   12  C           1     -20.426  -4.200 -10.069  0.00  0.00     0.197 C 
HETATM   13  O           1     -20.316  -3.078 -10.608  0.00  0.00    -0.646 OA
HETATM   14  O           1     -19.753  -5.165 -10.492  0.00  0.00    -0.646 OA
ENDBRANCH   1  12
BRANCH   1  15
HETATM   15  C           1     -22.643  -3.591  -9.151  0.00  0.00     0.090 C 
BRANCH  15  16
HETATM   16  C           1     -23.123  -3.829 -10.549  0.00  0.00     0.008 A 
HETATM   17  N           1     -23.238  -2.858 -11.509  0.00  0.00    -0.358 N 
HETATM   18  C           1     -23.687  -3.477 -12.577  0.00  0.00     0.176 A 
ATOM     19  HN          1     -23.020  -1.866 -11.415  1.00  0.00     0.166 HD
HETATM   20  N           1     -23.868  -4.812 -12.342  0.00  0.00    -0.380 N 
HETATM   21  H           1     -24.217  -5.521 -13.032  0.00  0.00     0.160 HD
HETATM   22  C           1     -23.509  -5.052 -11.044  0.00  0.00     0.109 A 
ENDBRANCH  15  16
ENDBRANCH   1  15
TORSDOF 5
ENDMDL
MODEL 6
REMARK VINA RESULT:      -6.0      9.954     12.045
REMARK  5 active torsions:
REMARK  status: ('A' for Active; 'I' for Inactive)
REMARK    1  A    between atoms: N_6  and  C_13 
REMARK       I    between atoms: N_6  and  C_17 
REMARK    2  A    between atoms: C_13  and  C_19 
REMARK    3  A    between atoms: C_13  and  C_14 
REMARK    4  A    between atoms: C_14  and  C_15 
REMARK    5  A    between atoms: C_16  and  C_17 
ROOT
HETATM    1  C           1     -25.852  -6.913 -17.685  0.00  0.00     0.191 C 
ENDROOT
BRANCH   1   2
HETATM    2  N           1     -26.662  -5.893 -18.321  0.00  0.00    -0.344 N 
HETATM    3  H           1     -26.218  -5.095 -18.758  0.00  0.00     0.163 HD
HETATM    4  C           1     -28.025  -6.009 -18.332  0.00  0.00     0.252 C 
HETATM    5  O           1     -28.699  -5.160 -18.863  0.00  0.00    -0.271 OA
BRANCH   4   6
HETATM    6  C           1     -28.686  -7.200 -17.682  0.00  0.00     0.372 C 
HETATM    7  C           1     -30.001  -7.530 -18.367  0.00  0.00     0.048 C 
HETATM    8  C           1     -31.067  -6.812 -17.548  0.00  0.00     0.033 C 
HETATM    9  C           1     -30.306  -6.115 -16.432  0.00  0.00     0.271 C 
HETATM   10  N           1     -29.077  -6.893 -16.309  0.00  0.00     0.097 N 
HETATM   11  H           1     -29.266  -7.748 -15.786  0.00  0.00     0.317 HD
ENDBRANCH   4   6
ENDBRANCH   1   2
BRANCH   1  12
HETATM   12  C           1     -25.698  -6.591 -16.218  0.00  0.00     0.197 C 
HETATM   13  O           1     -25.144  -5.528 -15.867  0.00  0.00    -0.646 OA
HETATM   14  O           1     -26.125  -7.388 -15.356  0.00  0.00    -0.646 OA
ENDBRANCH   1  12
BRANCH   1  15
HETATM   15  C           1     -24.478  -6.954 -18.342  0.00  0.00     0.090 C 
BRANCH  15  16
HETATM   16  C           1     -24.602  -7.517 -19.724  0.00  0.00     0.008 A 
HETATM   17  N           1     -25.788  -7.707 -20.384  0.00  0.00    -0.358 N 
HETATM   18  C           1     -25.459  -8.214 -21.550  0.00  0.00     0.176 A 
ATOM     19  HN          1     -26.727  -7.499 -20.042  1.00  0.00     0.166 HD
HETATM   20  N           1     -24.105  -8.359 -21.668  0.00  0.00    -0.380 N 
HETATM   21  H           1     -23.592  -8.740 -22.501  0.00  0.00     0.160 HD
HETATM   22  C           1     -23.542  -7.916 -20.503  0.00  0.00     0.109 A 
ENDBRANCH  15  16
ENDBRANCH   1  15
TORSDOF 5
ENDMDL
MODEL 7
REMARK VINA RESULT:      -6.0     13.391     15.719
REMARK  5 active torsions:
REMARK  status: ('A' for Active; 'I' for Inactive)
REMARK    1  A    between atoms: N_6  and  C_13 
REMARK       I    between atoms: N_6  and  C_17 
REMARK    2  A    between atoms: C_13  and  C_19 
REMARK    3  A    between atoms: C_13  and  C_14 
REMARK    4  A    between atoms: C_14  and  C_15 
REMARK    5  A    between atoms: C_16  and  C_17 
ROOT
HETATM    1  C           1     -21.106  -4.947  -6.929  0.00  0.00     0.191 C 
ENDROOT
BRANCH   1   2
HETATM    2  N           1     -20.942  -4.838  -5.492  0.00  0.00    -0.344 N 
HETATM    3  H           1     -20.693  -3.949  -5.077  0.00  0.00     0.163 HD
HETATM    4  C           1     -21.123  -5.938  -4.697  0.00  0.00     0.252 C 
HETATM    5  O           1     -20.987  -5.846  -3.501  0.00  0.00    -0.271 OA
BRANCH   4   6
HETATM    6  C           1     -21.496  -7.262  -5.316  0.00  0.00     0.372 C 
HETATM    7  C           1     -22.024  -8.222  -4.263  0.00  0.00     0.048 C 
HETATM    8  C           1     -20.816  -9.048  -3.836  0.00  0.00     0.033 C 
HETATM    9  C           1     -19.662  -8.524  -4.673  0.00  0.00     0.271 C 
HETATM   10  N           1     -20.314  -7.941  -5.842  0.00  0.00     0.097 N 
HETATM   11  H           1     -20.581  -8.684  -6.488  0.00  0.00     0.317 HD
ENDBRANCH   4   6
ENDBRANCH   1   2
BRANCH   1  12
HETATM   12  C           1     -19.755  -5.125  -7.577  0.00  0.00     0.197 C 
HETATM   13  O           1     -19.041  -4.128  -7.817  0.00  0.00    -0.646 OA
HETATM   14  O           1     -19.352  -6.269  -7.875  0.00  0.00    -0.646 OA
ENDBRANCH   1  12
BRANCH   1  15
HETATM   15  C           1     -21.763  -3.680  -7.461  0.00  0.00     0.090 C 
BRANCH  15  16
HETATM   16  C           1     -22.714  -4.034  -8.562  0.00  0.00     0.008 A 
HETATM   17  N           1     -24.066  -3.815  -8.523  0.00  0.00    -0.358 N 
HETATM   18  C           1     -24.523  -4.264  -9.669  0.00  0.00     0.176 A 
ATOM     19  HN          1     -24.603  -3.392  -7.766  1.00  0.00     0.166 HD
HETATM   20  N           1     -23.518  -4.767 -10.446  0.00  0.00    -0.380 N 
HETATM   21  H           1     -23.623  -5.184 -11.404  0.00  0.00     0.160 HD
HETATM   22  C           1     -22.350  -4.626  -9.748  0.00  0.00     0.109 A 
ENDBRANCH  15  16
ENDBRANCH   1  15
TORSDOF 5
ENDMDL
MODEL 8
REMARK VINA RESULT:      -5.8      2.695      3.922
REMARK  5 active torsions:
REMARK  status: ('A' for Active; 'I' for Inactive)
REMARK    1  A    between atoms: N_6  and  C_13 
REMARK       I    between atoms: N_6  and  C_17 
REMARK    2  A    between atoms: C_13  and  C_19 
REMARK    3  A    between atoms: C_13  and  C_14 
REMARK    4  A    between atoms: C_14  and  C_15 
REMARK    5  A    between atoms: C_16  and  C_17 
ROOT
HETATM    1  C           1     -34.336  -3.300 -11.992  0.00  0.00     0.191 C 
ENDROOT
BRANCH   1   2
HETATM    2  N           1     -33.209  -4.197 -11.826  0.00  0.00    -0.344 N 
HETATM    3  H           1     -32.272  -3.878 -12.042  0.00  0.00     0.163 HD
HETATM    4  C           1     -33.410  -5.474 -11.376  0.00  0.00     0.252 C 
HETATM    5  O           1     -32.471  -6.220 -11.237  0.00  0.00    -0.271 OA
BRANCH   4   6
HETATM    6  C           1     -34.805  -5.948 -11.052  0.00  0.00     0.372 C 
HETATM    7  C           1     -34.988  -6.108  -9.552  0.00  0.00     0.048 C 
HETATM    8  C           1     -34.696  -7.577  -9.272  0.00  0.00     0.033 C 
HETATM    9  C           1     -34.370  -8.183 -10.626  0.00  0.00     0.271 C 
HETATM   10  N           1     -35.032  -7.293 -11.575  0.00  0.00     0.097 N 
HETATM   11  H           1     -36.029  -7.507 -11.604  0.00  0.00     0.317 HD
ENDBRANCH   4   6
ENDBRANCH   1   2
BRANCH   1  12
HETATM   12  C           1     -34.511  -2.979 -13.456  0.00  0.00     0.197 C 
HETATM   13  O           1     -34.951  -1.862 -13.803  0.00  0.00    -0.646 OA
HETATM   14  O           1     -34.215  -3.830 -14.322  0.00  0.00    -0.646 OA
ENDBRANCH   1  12
BRANCH   1  15
HETATM   15  C           1     -34.079  -2.014 -11.217  0.00  0.00     0.090 C 
BRANCH  15  16
HETATM   16  C           1     -35.377  -1.302 -10.988  0.00  0.00     0.008 A 
HETATM   17  N           1     -35.662  -0.039 -11.438  0.00  0.00    -0.358 N 
HETATM   18  C           1     -36.885   0.207 -11.028  0.00  0.00     0.176 A 
ATOM     19  HN          1     -35.054   0.578 -11.976  1.00  0.00     0.166 HD
HETATM   20  N           1     -37.401  -0.849 -10.330  0.00  0.00    -0.380 N 
HETATM   21  H           1     -38.357  -0.901  -9.900  0.00  0.00     0.160 HD
HETATM   22  C           1     -36.443  -1.825 -10.296  0.00  0.00     0.109 A 
ENDBRANCH  15  16
ENDBRANCH   1  15
TORSDOF 5
ENDMDL
MODEL 9
REMARK VINA RESULT:      -5.8     15.874     18.321
REMARK  5 active torsions:
REMARK  status: ('A' for Active; 'I' for Inactive)
REMARK    1  A    between atoms: N_6  and  C_13 
REMARK       I    between atoms: N_6  and  C_17 
REMARK    2  A    between atoms: C_13  and  C_19 
REMARK    3  A    between atoms: C_13  and  C_14 
REMARK    4  A    between atoms: C_14  and  C_15 
REMARK    5  A    between atoms: C_16  and  C_17 
ROOT
HETATM    1  C           1     -20.721  -8.190  -3.319  0.00  0.00     0.191 C 
ENDROOT
BRANCH   1   2
HETATM    2  N           1     -21.910  -7.486  -3.760  0.00  0.00    -0.344 N 
HETATM    3  H           1     -22.803  -7.680  -3.324  0.00  0.00     0.163 HD
HETATM    4  C           1     -21.824  -6.560  -4.764  0.00  0.00     0.252 C 
HETATM    5  O           1     -22.814  -5.974  -5.130  0.00  0.00    -0.271 OA
BRANCH   4   6
HETATM    6  C           1     -20.492  -6.271  -5.411  0.00  0.00     0.372 C 
HETATM    7  C           1     -20.220  -4.776  -5.444  0.00  0.00     0.048 C 
HETATM    8  C           1     -20.700  -4.315  -6.815  0.00  0.00     0.033 C 
HETATM    9  C           1     -21.215  -5.571  -7.498  0.00  0.00     0.271 C 
HETATM   10  N           1     -20.505  -6.652  -6.821  0.00  0.00     0.097 N 
HETATM   11  H           1     -19.556  -6.718  -7.187  0.00  0.00     0.317 HD
ENDBRANCH   4   6
ENDBRANCH   1   2
BRANCH   1  12
HETATM   12  C           1     -20.942  -9.678  -3.444  0.00  0.00     0.197 C 
HETATM   13  O           1     -20.049 -10.475  -3.085  0.00  0.00    -0.646 OA
HETATM   14  O           1     -22.019 -10.112  -3.906  0.00  0.00    -0.646 OA
ENDBRANCH   1  12
BRANCH   1  15
HETATM   15  C           1     -20.435  -7.840  -1.864  0.00  0.00     0.090 C 
BRANCH  15  16
HETATM   16  C           1     -21.633  -8.166  -1.027  0.00  0.00     0.008 A 
HETATM   17  N           1     -22.082  -9.435  -0.771  0.00  0.00    -0.358 N 
HETATM   18  C           1     -23.141  -9.282  -0.010  0.00  0.00     0.176 A 
ATOM     19  HN          1     -21.680 -10.312  -1.102  1.00  0.00     0.166 HD
HETATM   20  N           1     -23.393  -7.961   0.236  0.00  0.00    -0.380 N 
HETATM   21  H           1     -24.179  -7.577   0.815  0.00  0.00     0.160 HD
HETATM   22  C           1     -22.433  -7.233  -0.411  0.00  0.00     0.109 A 
ENDBRANCH  15  16
ENDBRANCH   1  15
TORSDOF 5
ENDMDL
