MODEL 1
REMARK VINA RESULT:      -7.7      0.000      0.000
REMARK  11 active torsions:
REMARK  status: ('A' for Active; 'I' for Inactive)
REMARK    1  A    between atoms: N_2  and  C_12 
REMARK       I    between atoms: N_2  and  C_3 
REMARK    2  A    between atoms: C_3  and  C_4 
REMARK    3  A    between atoms: C_4  and  C_9 
REMARK    4  A    between atoms: C_4  and  N_21 
REMARK    5  A    between atoms: O_7  and  P_23 
REMARK    6  A    between atoms: C_9  and  C_19 
REMARK    7  A    between atoms: C_12  and  C_26 
REMARK    8  A    between atoms: C_12  and  C_13 
REMARK    9  A    between atoms: C_13  and  C_14 
REMARK   10  A    between atoms: P_23  and  O_24 
REMARK   11  A    between atoms: O_24  and  C_25 
ROOT
HETATM    1  C           1     -20.633  -7.485  -5.730  0.00  0.00     0.189 C 
ENDROOT
BRANCH   1   2
HETATM    2  N           1     -21.652  -7.843  -4.763  0.00  0.00    -0.344 N 
HETATM    3  C           1     -22.146  -6.894  -3.906  0.00  0.00     0.249 C 
HETATM    4  O           1     -23.108  -6.236  -4.224  0.00  0.00    -0.271 OA
HETATM    5  H           1     -21.999  -8.792  -4.720  0.00  0.00     0.163 HD
BRANCH   3   6
HETATM    6  C           1     -21.489  -6.671  -2.567  0.00  0.00     0.278 C 
BRANCH   6   7
HETATM    7  C           1     -21.797  -7.845  -1.647  0.00  0.00     0.021 C 
HETATM    8  C           1     -20.507  -8.585  -1.317  0.00  0.00     0.012 C 
BRANCH   7   9
HETATM    9  C           1     -22.429  -7.329  -0.361  0.00  0.00     0.002 C 
HETATM   10  C           1     -23.141  -8.473   0.349  0.00  0.00     0.005 C 
ENDBRANCH   7   9
ENDBRANCH   6   7
BRANCH   6  11
HETATM   11  N           1     -22.015  -5.407  -1.956  0.00  0.00    -0.066 N 
HETATM   12  H           1     -21.804  -5.400  -0.933  0.00  0.00     0.275 HD
HETATM   13  H           1     -21.560  -4.583  -2.412  0.00  0.00     0.275 HD
HETATM   14  H           1     -23.049  -5.355  -2.099  0.00  0.00     0.275 HD
ENDBRANCH   6  11
ENDBRANCH   3   6
ENDBRANCH   1   2
BRANCH   1  15
HETATM   15  C           1     -19.379  -8.276  -5.452  0.00  0.00     0.197 C 
HETATM   16  O           1     -19.154  -8.707  -4.299  0.00  0.00    -0.646 OA
HETATM   17  O           1     -18.564  -8.501  -6.372  0.00  0.00    -0.646 OA
ENDBRANCH   1  15
BRANCH   1  18
HETATM   18  C           1     -20.329  -5.996  -5.620  0.00  0.00     0.074 C 
BRANCH  18  19
HETATM   19  C           1     -20.782  -5.301  -6.867  0.00  0.00    -0.056 A 
HETATM   20  C           1     -21.946  -4.532  -6.854  0.00  0.00     0.010 A 
HETATM   21  C           1     -22.368  -3.887  -8.016  0.00  0.00     0.038 A 
HETATM   22  C           1     -21.624  -4.008  -9.190  0.00  0.00     0.081 A 
HETATM   23  C           1     -20.461  -4.776  -9.203  0.00  0.00     0.038 A 
HETATM   24  C           1     -20.039  -5.423  -8.041  0.00  0.00     0.010 A 
BRANCH  22  25
HETATM   25  O           1     -22.034  -3.379 -10.319  0.00  0.00    -0.247 OA
BRANCH  25  26
HETATM   26  P           1     -23.329  -3.966 -11.085  0.00  0.00     0.411 P 
HETATM   27  O           1     -24.469  -3.039 -10.908  0.00  0.00    -0.624 OA
HETATM   28  O           1     -23.677  -5.289 -10.523  0.00  0.00    -0.624 OA
BRANCH  26  29
HETATM   29  O           1     -22.999  -4.118 -12.659  0.00  0.00    -0.300 OA
HETATM   30  H           1     -23.629  -3.571 -13.095  0.00  0.00     0.223 HD
ENDBRANCH  26  29
ENDBRANCH  25  26
ENDBRANCH  22  25
ENDBRANCH  18  19
ENDBRANCH   1  18
TORSDOF 11
ENDMDL
MODEL 2
REMARK VINA RESULT:      -7.6      1.299      1.760
REMARK  11 active torsions:
REMARK  status: ('A' for Active; 'I' for Inactive)
REMARK    1  A    between atoms: N_2  and  C_12 
REMARK       I    between atoms: N_2  and  C_3 
REMARK    2  A    between atoms: C_3  and  C_4 
REMARK    3  A    between atoms: C_4  and  C_9 
REMARK    4  A    between atoms: C_4  and  N_21 
REMARK    5  A    between atoms: O_7  and  P_23 
REMARK    6  A    between atoms: C_9  and  C_19 
REMARK    7  A    between atoms: C_12  and  C_26 
REMARK    8  A    between atoms: C_12  and  C_13 
REMARK    9  A    between atoms: C_13  and  C_14 
REMARK   10  A    between atoms: P_23  and  O_24 
REMARK   11  A    between atoms: O_24  and  C_25 
ROOT
HETATM    1  C           1     -21.644  -6.911  -5.633  0.00  0.00     0.189 C 
ENDROOT
BRANCH   1   2
HETATM    2  N           1     -22.316  -6.879  -4.348  0.00  0.00    -0.344 N 
HETATM    3  C           1     -21.585  -6.950  -3.192  0.00  0.00     0.249 C 
HETATM    4  O           1     -21.185  -5.938  -2.667  0.00  0.00    -0.271 OA
HETATM    5  H           1     -23.324  -6.804  -4.306  0.00  0.00     0.163 HD
BRANCH   3   6
HETATM    6  C           1     -21.280  -8.292  -2.573  0.00  0.00     0.278 C 
BRANCH   6   7
HETATM    7  C           1     -22.011  -8.417  -1.243  0.00  0.00     0.021 C 
HETATM    8  C           1     -22.649  -9.796  -1.141  0.00  0.00     0.012 C 
BRANCH   7   9
HETATM    9  C           1     -21.020  -8.231  -0.101  0.00  0.00     0.002 C 
HETATM   10  C           1     -21.769  -8.229   1.226  0.00  0.00     0.005 C 
ENDBRANCH   7   9
ENDBRANCH   6   7
BRANCH   6  11
HETATM   11  N           1     -19.803  -8.412  -2.345  0.00  0.00    -0.066 N 
HETATM   12  H           1     -19.402  -7.466  -2.152  0.00  0.00     0.275 HD
HETATM   13  H           1     -19.626  -9.039  -1.527  0.00  0.00     0.275 HD
HETATM   14  H           1     -19.351  -8.816  -3.197  0.00  0.00     0.275 HD
ENDBRANCH   6  11
ENDBRANCH   3   6
ENDBRANCH   1   2
BRANCH   1  15
HETATM   15  C           1     -20.726  -8.108  -5.688  0.00  0.00     0.197 C 
HETATM   16  O           1     -19.489  -7.951  -5.599  0.00  0.00    -0.646 OA
HETATM   17  O           1     -21.203  -9.256  -5.822  0.00  0.00    -0.646 OA
ENDBRANCH   1  15
BRANCH   1  18
HETATM   18  C           1     -20.828  -5.637  -5.811  0.00  0.00     0.074 C 
BRANCH  18  19
HETATM   19  C           1     -21.161  -5.012  -7.129  0.00  0.00    -0.056 A 
HETATM   20  C           1     -20.264  -5.107  -8.194  0.00  0.00     0.010 A 
HETATM   21  C           1     -20.575  -4.523  -9.422  0.00  0.00     0.038 A 
HETATM   22  C           1     -21.783  -3.846  -9.586  0.00  0.00     0.081 A 
HETATM   23  C           1     -22.679  -3.750  -8.522  0.00  0.00     0.038 A 
HETATM   24  C           1     -22.369  -4.334  -7.294  0.00  0.00     0.010 A 
BRANCH  22  25
HETATM   25  O           1     -22.085  -3.279 -10.780  0.00  0.00    -0.247 OA
BRANCH  25  26
HETATM   26  P           1     -23.372  -3.838 -11.579  0.00  0.00     0.411 P 
HETATM   27  O           1     -24.548  -2.993 -11.272  0.00  0.00    -0.624 OA
HETATM   28  O           1     -23.644  -5.232 -11.164  0.00  0.00    -0.624 OA
BRANCH  26  29
HETATM   29  O           1     -23.079  -3.795 -13.167  0.00  0.00    -0.300 OA
HETATM   30  H           1     -22.754  -2.927 -13.332  0.00  0.00     0.223 HD
ENDBRANCH  26  29
ENDBRANCH  25  26
ENDBRANCH  22  25
ENDBRANCH  18  19
ENDBRANCH   1  18
TORSDOF 11
ENDMDL
MODEL 3
REMARK VINA RESULT:      -7.5      2.072      3.314
REMARK  11 active torsions:
REMARK  status: ('A' for Active; 'I' for Inactive)
REMARK    1  A    between atoms: N_2  and  C_12 
REMARK       I    between atoms: N_2  and  C_3 
REMARK    2  A    between atoms: C_3  and  C_4 
REMARK    3  A    between atoms: C_4  and  C_9 
REMARK    4  A    between atoms: C_4  and  N_21 
REMARK    5  A    between atoms: O_7  and  P_23 
REMARK    6  A    between atoms: C_9  and  C_19 
REMARK    7  A    between atoms: C_12  and  C_26 
REMARK    8  A    between atoms: C_12  and  C_13 
REMARK    9  A    between atoms: C_13  and  C_14 
REMARK   10  A    between atoms: P_23  and  O_24 
REMARK   11  A    between atoms: O_24  and  C_25 
ROOT
HETATM    1  C           1     -21.580  -5.523  -6.713  0.00  0.00     0.189 C 
ENDROOT
BRANCH   1   2
HETATM    2  N           1     -22.287  -5.827  -5.485  0.00  0.00    -0.344 N 
HETATM    3  C           1     -21.643  -6.479  -4.467  0.00  0.00     0.249 C 
HETATM    4  O           1     -21.059  -5.847  -3.619  0.00  0.00    -0.271 OA
HETATM    5  H           1     -23.257  -5.557  -5.378  0.00  0.00     0.163 HD
BRANCH   3   6
HETATM    6  C           1     -21.661  -7.986  -4.406  0.00  0.00     0.278 C 
BRANCH   6   7
HETATM    7  C           1     -20.682  -8.464  -3.341  0.00  0.00     0.021 C 
HETATM    8  C           1     -21.320  -9.586  -2.532  0.00  0.00     0.012 C 
BRANCH   7   9
HETATM    9  C           1     -19.415  -8.979  -4.012  0.00  0.00     0.002 C 
HETATM   10  C           1     -18.408  -9.390  -2.946  0.00  0.00     0.005 C 
ENDBRANCH   7   9
ENDBRANCH   6   7
BRANCH   6  11
HETATM   11  N           1     -21.261  -8.545  -5.739  0.00  0.00    -0.066 N 
HETATM   12  H           1     -20.352  -8.122  -6.036  0.00  0.00     0.275 HD
HETATM   13  H           1     -21.155  -9.582  -5.665  0.00  0.00     0.275 HD
HETATM   14  H           1     -21.997  -8.320  -6.446  0.00  0.00     0.275 HD
ENDBRANCH   6  11
ENDBRANCH   3   6
ENDBRANCH   1   2
BRANCH   1  15
HETATM   15  C           1     -20.093  -5.587  -6.464  0.00  0.00     0.197 C 
HETATM   16  O           1     -19.501  -4.608  -5.959  0.00  0.00    -0.646 OA
HETATM   17  O           1     -19.453  -6.618  -6.762  0.00  0.00    -0.646 OA
ENDBRANCH   1  15
BRANCH   1  18
HETATM   18  C           1     -21.956  -4.123  -7.182  0.00  0.00     0.074 C 
BRANCH  18  19
HETATM   19  C           1     -22.420  -4.181  -8.604  0.00  0.00    -0.056 A 
HETATM   20  C           1     -21.503  -4.418  -9.629  0.00  0.00     0.010 A 
HETATM   21  C           1     -21.936  -4.471 -10.954  0.00  0.00     0.038 A 
HETATM   22  C           1     -23.286  -4.289 -11.254  0.00  0.00     0.081 A 
HETATM   23  C           1     -24.202  -4.052 -10.230  0.00  0.00     0.038 A 
HETATM   24  C           1     -23.770  -3.999  -8.905  0.00  0.00     0.010 A 
BRANCH  22  25
HETATM   25  O           1     -23.706  -4.342 -12.541  0.00  0.00    -0.247 OA
BRANCH  25  26
HETATM   26  P           1     -23.794  -2.956 -13.367  0.00  0.00     0.411 P 
HETATM   27  O           1     -23.584  -3.226 -14.807  0.00  0.00    -0.624 OA
HETATM   28  O           1     -22.751  -2.026 -12.881  0.00  0.00    -0.624 OA
BRANCH  26  29
HETATM   29  O           1     -25.251  -2.293 -13.150  0.00  0.00    -0.300 OA
HETATM   30  H           1     -25.408  -1.790 -13.930  0.00  0.00     0.223 HD
ENDBRANCH  26  29
ENDBRANCH  25  26
ENDBRANCH  22  25
ENDBRANCH  18  19
ENDBRANCH   1  18
TORSDOF 11
ENDMDL
MODEL 4
REMARK VINA RESULT:      -7.5      1.603      2.139
REMARK  11 active torsions:
REMARK  status: ('A' for Active; 'I' for Inactive)
REMARK    1  A    between atoms: N_2  and  C_12 
REMARK       I    between atoms: N_2  and  C_3 
REMARK    2  A    between atoms: C_3  and  C_4 
REMARK    3  A    between atoms: C_4  and  C_9 
REMARK    4  A    between atoms: C_4  and  N_21 
REMARK    5  A    between atoms: O_7  and  P_23 
REMARK    6  A    between atoms: C_9  and  C_19 
REMARK    7  A    between atoms: C_12  and  C_26 
REMARK    8  A    between atoms: C_12  and  C_13 
REMARK    9  A    between atoms: C_13  and  C_14 
REMARK   10  A    between atoms: P_23  and  O_24 
REMARK   11  A    between atoms: O_24  and  C_25 
ROOT
HETATM    1  C           1     -21.231  -6.103  -7.039  0.00  0.00     0.189 C 
ENDROOT
BRANCH   1   2
HETATM    2  N           1     -21.889  -7.026  -6.136  0.00  0.00    -0.344 N 
HETATM    3  C           1     -22.343  -6.588  -4.919  0.00  0.00     0.249 C 
HETATM    4  O           1     -23.466  -6.157  -4.814  0.00  0.00    -0.271 OA
HETATM    5  H           1     -22.014  -7.994  -6.403  0.00  0.00     0.163 HD
BRANCH   3   6
HETATM    6  C           1     -21.439  -6.644  -3.713  0.00  0.00     0.278 C 
BRANCH   6   7
HETATM    7  C           1     -21.262  -8.092  -3.276  0.00  0.00     0.021 C 
HETATM    8  C           1     -19.901  -8.599  -3.738  0.00  0.00     0.012 C 
BRANCH   7   9
HETATM    9  C           1     -21.346  -8.177  -1.758  0.00  0.00     0.002 C 
HETATM   10  C           1     -22.084  -9.450  -1.361  0.00  0.00     0.005 C 
ENDBRANCH   7   9
ENDBRANCH   6   7
BRANCH   6  11
HETATM   11  N           1     -22.051  -5.856  -2.593  0.00  0.00    -0.066 N 
HETATM   12  H           1     -22.540  -6.506  -1.936  0.00  0.00     0.275 HD
HETATM   13  H           1     -21.302  -5.339  -2.080  0.00  0.00     0.275 HD
HETATM   14  H           1     -22.740  -5.173  -2.984  0.00  0.00     0.275 HD
ENDBRANCH   6  11
ENDBRANCH   3   6
ENDBRANCH   1   2
BRANCH   1  15
HETATM   15  C           1     -19.774  -5.989  -6.664  0.00  0.00     0.197 C 
HETATM   16  O           1     -19.313  -4.895  -6.271  0.00  0.00    -0.646 OA
HETATM   17  O           1     -19.027  -6.988  -6.747  0.00  0.00    -0.646 OA
ENDBRANCH   1  15
BRANCH   1  18
HETATM   18  C           1     -21.890  -4.733  -6.934  0.00  0.00     0.074 C 
BRANCH  18  19
HETATM   19  C           1     -22.168  -4.207  -8.308  0.00  0.00    -0.056 A 
HETATM   20  C           1     -23.455  -3.792  -8.649  0.00  0.00     0.010 A 
HETATM   21  C           1     -23.713  -3.302  -9.930  0.00  0.00     0.038 A 
HETATM   22  C           1     -22.684  -3.227 -10.868  0.00  0.00     0.081 A 
HETATM   23  C           1     -21.398  -3.643 -10.527  0.00  0.00     0.038 A 
HETATM   24  C           1     -21.139  -4.132  -9.246  0.00  0.00     0.010 A 
BRANCH  22  25
HETATM   25  O           1     -22.935  -2.751 -12.112  0.00  0.00    -0.247 OA
BRANCH  25  26
HETATM   26  P           1     -23.967  -3.572 -13.043  0.00  0.00     0.411 P 
HETATM   27  O           1     -25.334  -3.034 -12.859  0.00  0.00    -0.624 OA
HETATM   28  O           1     -23.945  -5.002 -12.663  0.00  0.00    -0.624 OA
BRANCH  26  29
HETATM   29  O           1     -23.533  -3.420 -14.592  0.00  0.00    -0.300 OA
HETATM   30  H           1     -22.875  -2.747 -14.595  0.00  0.00     0.223 HD
ENDBRANCH  26  29
ENDBRANCH  25  26
ENDBRANCH  22  25
ENDBRANCH  18  19
ENDBRANCH   1  18
TORSDOF 11
ENDMDL
MODEL 5
REMARK VINA RESULT:      -6.9     14.064     17.254
REMARK  11 active torsions:
REMARK  status: ('A' for Active; 'I' for Inactive)
REMARK    1  A    between atoms: N_2  and  C_12 
REMARK       I    between atoms: N_2  and  C_3 
REMARK    2  A    between atoms: C_3  and  C_4 
REMARK    3  A    between atoms: C_4  and  C_9 
REMARK    4  A    between atoms: C_4  and  N_21 
REMARK    5  A    between atoms: O_7  and  P_23 
REMARK    6  A    between atoms: C_9  and  C_19 
REMARK    7  A    between atoms: C_12  and  C_26 
REMARK    8  A    between atoms: C_12  and  C_13 
REMARK    9  A    between atoms: C_13  and  C_14 
REMARK   10  A    between atoms: P_23  and  O_24 
REMARK   11  A    between atoms: O_24  and  C_25 
ROOT
HETATM    1  C           1     -36.938  -0.616 -10.560  0.00  0.00     0.189 C 
ENDROOT
BRANCH   1   2
HETATM    2  N           1     -37.241   0.179 -11.734  0.00  0.00    -0.344 N 
HETATM    3  C           1     -37.040  -0.342 -12.985  0.00  0.00     0.249 C 
HETATM    4  O           1     -37.928  -0.946 -13.537  0.00  0.00    -0.271 OA
HETATM    5  H           1     -37.602   1.119 -11.630  0.00  0.00     0.163 HD
BRANCH   3   6
HETATM    6  C           1     -35.709  -0.161 -13.672  0.00  0.00     0.278 C 
BRANCH   6   7
HETATM    7  C           1     -35.921   0.498 -15.028  0.00  0.00     0.021 C 
HETATM    8  C           1     -35.125   1.795 -15.093  0.00  0.00     0.012 C 
BRANCH   7   9
HETATM    9  C           1     -35.449  -0.444 -16.128  0.00  0.00     0.002 C 
HETATM   10  C           1     -36.656  -0.998 -16.875  0.00  0.00     0.005 C 
ENDBRANCH   7   9
ENDBRANCH   6   7
BRANCH   6  11
HETATM   11  N           1     -35.060  -1.500 -13.863  0.00  0.00    -0.066 N 
HETATM   12  H           1     -35.523  -2.002 -14.654  0.00  0.00     0.275 HD
HETATM   13  H           1     -34.046  -1.368 -14.079  0.00  0.00     0.275 HD
HETATM   14  H           1     -35.158  -2.063 -12.987  0.00  0.00     0.275 HD
ENDBRANCH   6  11
ENDBRANCH   3   6
ENDBRANCH   1   2
BRANCH   1  15
HETATM   15  C           1     -37.613  -0.008  -9.355  0.00  0.00     0.197 C 
HETATM   16  O           1     -38.075   1.152  -9.417  0.00  0.00    -0.646 OA
HETATM   17  O           1     -37.710  -0.664  -8.296  0.00  0.00    -0.646 OA
ENDBRANCH   1  15
BRANCH   1  18
HETATM   18  C           1     -35.431  -0.642 -10.340  0.00  0.00     0.074 C 
BRANCH  18  19
HETATM   19  C           1     -34.914  -2.024 -10.589  0.00  0.00    -0.056 A 
HETATM   20  C           1     -33.542  -2.245 -10.711  0.00  0.00     0.010 A 
HETATM   21  C           1     -33.061  -3.534 -10.944  0.00  0.00     0.038 A 
HETATM   22  C           1     -33.952  -4.601 -11.054  0.00  0.00     0.081 A 
HETATM   23  C           1     -35.323  -4.380 -10.932  0.00  0.00     0.038 A 
HETATM   24  C           1     -35.805  -3.092 -10.699  0.00  0.00     0.010 A 
BRANCH  22  25
HETATM   25  O           1     -33.484  -5.853 -11.279  0.00  0.00    -0.247 OA
BRANCH  25  26
HETATM   26  P           1     -34.295  -7.093 -10.636  0.00  0.00     0.411 P 
HETATM   27  O           1     -35.044  -6.628  -9.447  0.00  0.00    -0.624 OA
HETATM   28  O           1     -33.342  -8.151 -10.235  0.00  0.00    -0.624 OA
BRANCH  26  29
HETATM   29  O           1     -35.329  -7.684 -11.726  0.00  0.00    -0.300 OA
HETATM   30  H           1     -36.160  -7.713 -11.284  0.00  0.00     0.223 HD
ENDBRANCH  26  29
ENDBRANCH  25  26
ENDBRANCH  22  25
ENDBRANCH  18  19
ENDBRANCH   1  18
TORSDOF 11
ENDMDL
MODEL 6
REMARK VINA RESULT:      -6.7      4.042      8.412
REMARK  11 active torsions:
REMARK  status: ('A' for Active; 'I' for Inactive)
REMARK    1  A    between atoms: N_2  and  C_12 
REMARK       I    between atoms: N_2  and  C_3 
REMARK    2  A    between atoms: C_3  and  C_4 
REMARK    3  A    between atoms: C_4  and  C_9 
REMARK    4  A    between atoms: C_4  and  N_21 
REMARK    5  A    between atoms: O_7  and  P_23 
REMARK    6  A    between atoms: C_9  and  C_19 
REMARK    7  A    between atoms: C_12  and  C_26 
REMARK    8  A    between atoms: C_12  and  C_13 
REMARK    9  A    between atoms: C_13  and  C_14 
REMARK   10  A    between atoms: P_23  and  O_24 
REMARK   11  A    between atoms: O_24  and  C_25 
ROOT
HETATM    1  C           1     -21.046  -7.019  -5.987  0.00  0.00     0.189 C 
ENDROOT
BRANCH   1   2
HETATM    2  N           1     -20.585  -6.176  -7.074  0.00  0.00    -0.344 N 
HETATM    3  C           1     -21.159  -4.949  -7.279  0.00  0.00     0.249 C 
HETATM    4  O           1     -20.707  -3.972  -6.732  0.00  0.00    -0.271 OA
HETATM    5  H           1     -19.839  -6.494  -7.680  0.00  0.00     0.163 HD
BRANCH   3   6
HETATM    6  C           1     -22.355  -4.819  -8.189  0.00  0.00     0.278 C 
BRANCH   6   7
HETATM    7  C           1     -22.039  -3.835  -9.308  0.00  0.00     0.021 C 
HETATM    8  C           1     -20.948  -4.413 -10.200  0.00  0.00     0.012 C 
BRANCH   7   9
HETATM    9  C           1     -23.294  -3.588 -10.135  0.00  0.00     0.002 C 
HETATM   10  C           1     -23.543  -4.782 -11.047  0.00  0.00     0.005 C 
ENDBRANCH   7   9
ENDBRANCH   6   7
BRANCH   6  11
HETATM   11  N           1     -23.530  -4.320  -7.402  0.00  0.00    -0.066 N 
HETATM   12  H           1     -23.834  -3.394  -7.779  0.00  0.00     0.275 HD
HETATM   13  H           1     -24.317  -5.003  -7.477  0.00  0.00     0.275 HD
HETATM   14  H           1     -23.256  -4.214  -6.398  0.00  0.00     0.275 HD
ENDBRANCH   6  11
ENDBRANCH   3   6
ENDBRANCH   1   2
BRANCH   1  15
HETATM   15  C           1     -21.700  -6.161  -4.932  0.00  0.00     0.197 C 
HETATM   16  O           1     -22.946  -6.054  -4.897  0.00  0.00    -0.646 OA
HETATM   17  O           1     -20.998  -5.560  -4.091  0.00  0.00    -0.646 OA
ENDBRANCH   1  15
BRANCH   1  18
HETATM   18  C           1     -19.860  -7.757  -5.379  0.00  0.00     0.074 C 
BRANCH  18  19
HETATM   19  C           1     -20.354  -8.748  -4.372  0.00  0.00    -0.056 A 
HETATM   20  C           1     -19.690  -8.894  -3.153  0.00  0.00     0.010 A 
HETATM   21  C           1     -20.150  -9.819  -2.215  0.00  0.00     0.038 A 
HETATM   22  C           1     -21.274 -10.596  -2.495  0.00  0.00     0.081 A 
HETATM   23  C           1     -21.937 -10.450  -3.713  0.00  0.00     0.038 A 
HETATM   24  C           1     -21.478  -9.526  -4.652  0.00  0.00     0.010 A 
BRANCH  22  25
HETATM   25  O           1     -21.721 -11.494  -1.584  0.00  0.00    -0.247 OA
BRANCH  25  26
HETATM   26  P           1     -22.388 -10.927  -0.227  0.00  0.00     0.411 P 
HETATM   27  O           1     -23.369 -11.908   0.288  0.00  0.00    -0.624 OA
HETATM   28  O           1     -23.074  -9.647  -0.512  0.00  0.00    -0.624 OA
BRANCH  26  29
HETATM   29  O           1     -21.237 -10.687   0.880  0.00  0.00    -0.300 OA
HETATM   30  H           1     -21.419 -11.311   1.561  0.00  0.00     0.223 HD
ENDBRANCH  26  29
ENDBRANCH  25  26
ENDBRANCH  22  25
ENDBRANCH  18  19
ENDBRANCH   1  18
TORSDOF 11
ENDMDL
MODEL 7
REMARK VINA RESULT:      -6.7      4.539      7.319
REMARK  11 active torsions:
REMARK  status: ('A' for Active; 'I' for Inactive)
REMARK    1  A    between atoms: N_2  and  C_12 
REMARK       I    between atoms: N_2  and  C_3 
REMARK    2  A    between atoms: C_3  and  C_4 
REMARK    3  A    between atoms: C_4  and  C_9 
REMARK    4  A    between atoms: C_4  and  N_21 
REMARK    5  A    between atoms: O_7  and  P_23 
REMARK    6  A    between atoms: C_9  and  C_19 
REMARK    7  A    between atoms: C_12  and  C_26 
REMARK    8  A    between atoms: C_12  and  C_13 
REMARK    9  A    between atoms: C_13  and  C_14 
REMARK   10  A    between atoms: P_23  and  O_24 
REMARK   11  A    between atoms: O_24  and  C_25 
ROOT
HETATM    1  C           1     -21.034  -7.415  -3.710  0.00  0.00     0.189 C 
ENDROOT
BRANCH   1   2
HETATM    2  N           1     -22.111  -7.718  -2.788  0.00  0.00    -0.344 N 
HETATM    3  C           1     -22.014  -7.341  -1.474  0.00  0.00     0.249 C 
HETATM    4  O           1     -22.424  -6.260  -1.124  0.00  0.00    -0.271 OA
HETATM    5  H           1     -22.935  -8.207  -3.114  0.00  0.00     0.163 HD
BRANCH   3   6
HETATM    6  C           1     -21.394  -8.276  -0.465  0.00  0.00     0.278 C 
BRANCH   6   7
HETATM    7  C           1     -21.825  -9.706  -0.765  0.00  0.00     0.021 C 
HETATM    8  C           1     -20.812 -10.676  -0.170  0.00  0.00     0.012 C 
BRANCH   7   9
HETATM    9  C           1     -23.194  -9.961  -0.150  0.00  0.00     0.002 C 
HETATM   10  C           1     -23.864 -11.126  -0.869  0.00  0.00     0.005 C 
ENDBRANCH   7   9
ENDBRANCH   6   7
BRANCH   6  11
HETATM   11  N           1     -21.848  -7.896   0.913  0.00  0.00    -0.066 N 
HETATM   12  H           1     -21.536  -6.921   1.126  0.00  0.00     0.275 HD
HETATM   13  H           1     -22.891  -7.947   0.963  0.00  0.00     0.275 HD
HETATM   14  H           1     -21.433  -8.555   1.610  0.00  0.00     0.275 HD
ENDBRANCH   6  11
ENDBRANCH   3   6
ENDBRANCH   1   2
BRANCH   1  15
HETATM   15  C           1     -21.427  -6.239  -4.570  0.00  0.00     0.197 C 
HETATM   16  O           1     -22.629  -6.051  -4.860  0.00  0.00    -0.646 OA
HETATM   17  O           1     -20.552  -5.453  -4.993  0.00  0.00    -0.646 OA
ENDBRANCH   1  15
BRANCH   1  18
HETATM   18  C           1     -20.769  -8.626  -4.595  0.00  0.00     0.074 C 
BRANCH  18  19
HETATM   19  C           1     -19.366  -9.103  -4.380  0.00  0.00    -0.056 A 
HETATM   20  C           1     -18.869  -9.249  -3.084  0.00  0.00     0.010 A 
HETATM   21  C           1     -17.562  -9.692  -2.884  0.00  0.00     0.038 A 
HETATM   22  C           1     -16.752  -9.992  -3.980  0.00  0.00     0.081 A 
HETATM   23  C           1     -17.249  -9.846  -5.274  0.00  0.00     0.038 A 
HETATM   24  C           1     -18.556  -9.403  -5.475  0.00  0.00     0.010 A 
BRANCH  22  25
HETATM   25  O           1     -15.482 -10.424  -3.785  0.00  0.00    -0.247 OA
BRANCH  25  26
HETATM   26  P           1     -15.137 -11.956  -4.162  0.00  0.00     0.411 P 
HETATM   27  O           1     -16.339 -12.796  -3.963  0.00  0.00    -0.624 OA
HETATM   28  O           1     -14.045 -12.444  -3.291  0.00  0.00    -0.624 OA
BRANCH  26  29
HETATM   29  O           1     -14.672 -12.038  -5.706  0.00  0.00    -0.300 OA
HETATM   30  H           1     -14.873 -12.918  -5.975  0.00  0.00     0.223 HD
ENDBRANCH  26  29
ENDBRANCH  25  26
ENDBRANCH  22  25
ENDBRANCH  18  19
ENDBRANCH   1  18
TORSDOF 11
ENDMDL
MODEL 8
REMARK VINA RESULT:      -6.6      3.329      5.636
REMARK  11 active torsions:
REMARK  status: ('A' for Active; 'I' for Inactive)
REMARK    1  A    between atoms: N_2  and  C_12 
REMARK       I    between atoms: N_2  and  C_3 
REMARK    2  A    between atoms: C_3  and  C_4 
REMARK    3  A    between atoms: C_4  and  C_9 
REMARK    4  A    between atoms: C_4  and  N_21 
REMARK    5  A    between atoms: O_7  and  P_23 
REMARK    6  A    between atoms: C_9  and  C_19 
REMARK    7  A    between atoms: C_12  and  C_26 
REMARK    8  A    between atoms: C_12  and  C_13 
REMARK    9  A    between atoms: C_13  and  C_14 
REMARK   10  A    between atoms: P_23  and  O_24 
REMARK   11  A    between atoms: O_24  and  C_25 
ROOT
HETATM    1  C           1     -20.595  -9.714  -1.632  0.00  0.00     0.189 C 
ENDROOT
BRANCH   1   2
HETATM    2  N           1     -20.076 -11.061  -1.770  0.00  0.00    -0.344 N 
HETATM    3  C           1     -18.731 -11.264  -1.934  0.00  0.00     0.249 C 
HETATM    4  O           1     -18.021 -11.414  -0.968  0.00  0.00    -0.271 OA
HETATM    5  H           1     -20.707 -11.852  -1.745  0.00  0.00     0.163 HD
BRANCH   3   6
HETATM    6  C           1     -18.137 -11.298  -3.320  0.00  0.00     0.278 C 
BRANCH   6   7
HETATM    7  C           1     -17.665  -9.903  -3.706  0.00  0.00     0.021 C 
HETATM    8  C           1     -16.230  -9.703  -3.235  0.00  0.00     0.012 C 
BRANCH   7   9
HETATM    9  C           1     -17.728  -9.747  -5.220  0.00  0.00     0.002 C 
HETATM   10  C           1     -16.318  -9.798  -5.795  0.00  0.00     0.005 C 
ENDBRANCH   7   9
ENDBRANCH   6   7
BRANCH   6  11
HETATM   11  N           1     -19.175 -11.762  -4.297  0.00  0.00    -0.066 N 
HETATM   12  H           1     -19.307 -11.036  -5.038  0.00  0.00     0.275 HD
HETATM   13  H           1     -18.865 -12.658  -4.738  0.00  0.00     0.275 HD
HETATM   14  H           1     -20.080 -11.917  -3.797  0.00  0.00     0.275 HD
ENDBRANCH   6  11
ENDBRANCH   3   6
ENDBRANCH   1   2
BRANCH   1  15
HETATM   15  C           1     -21.105  -9.516  -0.226  0.00  0.00     0.197 C 
HETATM   16  O           1     -21.540 -10.491   0.425  0.00  0.00    -0.646 OA
HETATM   17  O           1     -21.093  -8.377   0.289  0.00  0.00    -0.646 OA
ENDBRANCH   1  15
BRANCH   1  18
HETATM   18  C           1     -21.735  -9.505  -2.620  0.00  0.00     0.074 C 
BRANCH  18  19
HETATM   19  C           1     -21.429  -8.328  -3.493  0.00  0.00    -0.056 A 
HETATM   20  C           1     -21.478  -7.037  -2.967  0.00  0.00     0.010 A 
HETATM   21  C           1     -21.194  -5.941  -3.781  0.00  0.00     0.038 A 
HETATM   22  C           1     -20.858  -6.136  -5.121  0.00  0.00     0.081 A 
HETATM   23  C           1     -20.808  -7.426  -5.647  0.00  0.00     0.038 A 
HETATM   24  C           1     -21.093  -8.523  -4.833  0.00  0.00     0.010 A 
BRANCH  22  25
HETATM   25  O           1     -20.581  -5.070  -5.911  0.00  0.00    -0.247 OA
BRANCH  25  26
HETATM   26  P           1     -21.710  -4.592  -6.962  0.00  0.00     0.411 P 
HETATM   27  O           1     -23.049  -4.952  -6.445  0.00  0.00    -0.624 OA
HETATM   28  O           1     -21.488  -5.261  -8.263  0.00  0.00    -0.624 OA
BRANCH  26  29
HETATM   29  O           1     -21.620  -2.991  -7.157  0.00  0.00    -0.300 OA
HETATM   30  H           1     -21.943  -2.833  -8.027  0.00  0.00     0.223 HD
ENDBRANCH  26  29
ENDBRANCH  25  26
ENDBRANCH  22  25
ENDBRANCH  18  19
ENDBRANCH   1  18
TORSDOF 11
ENDMDL
MODEL 9
REMARK VINA RESULT:      -6.6      2.252      4.027
REMARK  11 active torsions:
REMARK  status: ('A' for Active; 'I' for Inactive)
REMARK    1  A    between atoms: N_2  and  C_12 
REMARK       I    between atoms: N_2  and  C_3 
REMARK    2  A    between atoms: C_3  and  C_4 
REMARK    3  A    between atoms: C_4  and  C_9 
REMARK    4  A    between atoms: C_4  and  N_21 
REMARK    5  A    between atoms: O_7  and  P_23 
REMARK    6  A    between atoms: C_9  and  C_19 
REMARK    7  A    between atoms: C_12  and  C_26 
REMARK    8  A    between atoms: C_12  and  C_13 
REMARK    9  A    between atoms: C_13  and  C_14 
REMARK   10  A    between atoms: P_23  and  O_24 
REMARK   11  A    between atoms: O_24  and  C_25 
ROOT
HETATM    1  C           1     -21.317  -7.233  -3.759  0.00  0.00     0.189 C 
ENDROOT
BRANCH   1   2
HETATM    2  N           1     -21.519  -8.464  -3.019  0.00  0.00    -0.344 N 
HETATM    3  C           1     -20.495  -8.995  -2.280  0.00  0.00     0.249 C 
HETATM    4  O           1     -20.357  -8.676  -1.123  0.00  0.00    -0.271 OA
HETATM    5  H           1     -22.417  -8.930  -3.047  0.00  0.00     0.163 HD
BRANCH   3   6
HETATM    6  C           1     -19.539  -9.976  -2.912  0.00  0.00     0.278 C 
BRANCH   6   7
HETATM    7  C           1     -18.493  -9.219  -3.720  0.00  0.00     0.021 C 
HETATM    8  C           1     -17.102  -9.705  -3.330  0.00  0.00     0.012 C 
BRANCH   7   9
HETATM    9  C           1     -18.720  -9.470  -5.204  0.00  0.00     0.002 C 
HETATM   10  C           1     -17.380  -9.701  -5.891  0.00  0.00     0.005 C 
ENDBRANCH   7   9
ENDBRANCH   6   7
BRANCH   6  11
HETATM   11  N           1     -20.298 -10.899  -3.818  0.00  0.00    -0.066 N 
HETATM   12  H           1     -20.129 -11.889  -3.528  0.00  0.00     0.275 HD
HETATM   13  H           1     -21.319 -10.687  -3.757  0.00  0.00     0.275 HD
HETATM   14  H           1     -19.974 -10.764  -4.803  0.00  0.00     0.275 HD
ENDBRANCH   6  11
ENDBRANCH   3   6
ENDBRANCH   1   2
BRANCH   1  15
HETATM   15  C           1     -21.547  -6.055  -2.845  0.00  0.00     0.197 C 
HETATM   16  O           1     -20.765  -5.079  -2.873  0.00  0.00    -0.646 OA
HETATM   17  O           1     -22.519  -6.053  -2.059  0.00  0.00    -0.646 OA
ENDBRANCH   1  15
BRANCH   1  18
HETATM   18  C           1     -22.299  -7.173  -4.922  0.00  0.00     0.074 C 
BRANCH  18  19
HETATM   19  C           1     -21.768  -6.251  -5.976  0.00  0.00    -0.056 A 
HETATM   20  C           1     -20.482  -6.438  -6.483  0.00  0.00     0.010 A 
HETATM   21  C           1     -19.988  -5.578  -7.464  0.00  0.00     0.038 A 
HETATM   22  C           1     -20.781  -4.533  -7.939  0.00  0.00     0.081 A 
HETATM   23  C           1     -22.065  -4.346  -7.431  0.00  0.00     0.038 A 
HETATM   24  C           1     -22.560  -5.206  -6.450  0.00  0.00     0.010 A 
BRANCH  22  25
HETATM   25  O           1     -20.300  -3.698  -8.893  0.00  0.00    -0.247 OA
BRANCH  25  26
HETATM   26  P           1     -20.578  -4.075 -10.438  0.00  0.00     0.411 P 
HETATM   27  O           1     -21.962  -4.578 -10.583  0.00  0.00    -0.624 OA
HETATM   28  O           1     -19.625  -5.123 -10.869  0.00  0.00    -0.624 OA
BRANCH  26  29
HETATM   29  O           1     -20.384  -2.760 -11.356  0.00  0.00    -0.300 OA
HETATM   30  H           1     -20.926  -2.907 -12.111  0.00  0.00     0.223 HD
ENDBRANCH  26  29
ENDBRANCH  25  26
ENDBRANCH  22  25
ENDBRANCH  18  19
ENDBRANCH   1  18
TORSDOF 11
ENDMDL
