MODEL 1
REMARK VINA RESULT:      -7.7      0.000      0.000
REMARK  9 active torsions:
REMARK  status: ('A' for Active; 'I' for Inactive)
REMARK    1  A    between atoms: C_1  and  C_9 
REMARK    2  A    between atoms: C_1  and  C_18 
REMARK    3  A    between atoms: C_1  and  N_10 
REMARK    4  A    between atoms: C_3  and  C_8 
REMARK    5  A    between atoms: C_6  and  C_7 
REMARK    6  A    between atoms: C_6  and  C_8 
REMARK    7  A    between atoms: C_7  and  C_21 
REMARK    8  A    between atoms: C_8  and  N_12 
REMARK       I    between atoms: C_9  and  N_12 
REMARK    9  A    between atoms: C_18  and  C_25 
ROOT
HETATM    1  C           1     -21.624  -4.571  -7.778  0.00  0.00     0.249 C 
HETATM    2  N           1     -22.335  -4.855  -8.912  0.00  0.00    -0.345 N 
HETATM    3  O           1     -21.448  -3.423  -7.447  0.00  0.00    -0.271 OA
HETATM    4  H           1     -22.482  -5.817  -9.191  0.00  0.00     0.163 HD
ENDROOT
BRANCH   1   5
HETATM    5  C           1     -21.058  -5.693  -6.942  0.00  0.00     0.278 C 
BRANCH   5   6
HETATM    6  C           1     -20.845  -5.205  -5.514  0.00  0.00     0.081 C 
BRANCH   6   7
HETATM    7  C           1     -21.135  -6.320  -4.558  0.00  0.00    -0.056 A 
HETATM    8  C           1     -21.203  -6.063  -3.189  0.00  0.00     0.007 A 
HETATM    9  C           1     -21.473  -7.101  -2.296  0.00  0.00     0.001 A 
HETATM   10  C           1     -21.676  -8.396  -2.774  0.00  0.00     0.000 A 
HETATM   11  C           1     -21.609  -8.652  -4.144  0.00  0.00     0.001 A 
HETATM   12  C           1     -21.339  -7.614  -5.035  0.00  0.00     0.007 A 
ENDBRANCH   6   7
ENDBRANCH   5   6
BRANCH   5  13
HETATM   13  N           1     -19.747  -6.134  -7.520  0.00  0.00    -0.066 N 
HETATM   14  H           1     -19.648  -7.169  -7.410  0.00  0.00     0.275 HD
HETATM   15  H           1     -18.965  -5.655  -7.018  0.00  0.00     0.275 HD
HETATM   16  H           1     -19.713  -5.887  -8.534  0.00  0.00     0.275 HD
ENDBRANCH   5  13
ENDBRANCH   1   5
BRANCH   2  17
HETATM   17  C           1     -22.879  -3.777  -9.716  0.00  0.00     0.186 C 
BRANCH  17  18
HETATM   18  C           1     -24.385  -3.865  -9.723  0.00  0.00     0.196 C 
HETATM   19  O           1     -25.072  -2.827  -9.608  0.00  0.00    -0.646 OA
HETATM   20  O           1     -24.946  -4.976  -9.844  0.00  0.00    -0.646 OA
ENDBRANCH  17  18
BRANCH  17  21
HETATM   21  C           1     -22.358  -3.896 -11.142  0.00  0.00     0.046 C 
BRANCH  21  22
HETATM   22  C           1     -22.538  -2.565 -11.862  0.00  0.00     0.116 C 
BRANCH  22  23
HETATM   23  C           1     -23.338  -2.779 -13.123  0.00  0.00     0.172 C 
HETATM   24  O           1     -22.759  -2.838 -14.229  0.00  0.00    -0.648 OA
HETATM   25  O           1     -24.582  -2.897 -13.062  0.00  0.00    -0.648 OA
ENDBRANCH  22  23
ENDBRANCH  21  22
ENDBRANCH  17  21
ENDBRANCH   2  17
TORSDOF 9
ENDMDL
MODEL 2
REMARK VINA RESULT:      -7.3      3.906      8.047
REMARK  9 active torsions:
REMARK  status: ('A' for Active; 'I' for Inactive)
REMARK    1  A    between atoms: C_1  and  C_9 
REMARK    2  A    between atoms: C_1  and  C_18 
REMARK    3  A    between atoms: C_1  and  N_10 
REMARK    4  A    between atoms: C_3  and  C_8 
REMARK    5  A    between atoms: C_6  and  C_7 
REMARK    6  A    between atoms: C_6  and  C_8 
REMARK    7  A    between atoms: C_7  and  C_21 
REMARK    8  A    between atoms: C_8  and  N_12 
REMARK       I    between atoms: C_9  and  N_12 
REMARK    9  A    between atoms: C_18  and  C_25 
ROOT
HETATM    1  C           1     -21.018  -6.038  -5.814  0.00  0.00     0.249 C 
HETATM    2  N           1     -21.212  -7.328  -5.401  0.00  0.00    -0.345 N 
HETATM    3  O           1     -20.063  -5.414  -5.418  0.00  0.00    -0.271 OA
HETATM    4  H           1     -22.013  -7.852  -5.733  0.00  0.00     0.163 HD
ENDROOT
BRANCH   1   5
HETATM    5  C           1     -21.999  -5.394  -6.763  0.00  0.00     0.278 C 
BRANCH   5   6
HETATM    6  C           1     -21.438  -4.064  -7.250  0.00  0.00     0.081 C 
BRANCH   6   7
HETATM    7  C           1     -21.468  -4.028  -8.746  0.00  0.00    -0.056 A 
HETATM    8  C           1     -20.303  -4.274  -9.473  0.00  0.00     0.007 A 
HETATM    9  C           1     -20.330  -4.240 -10.867  0.00  0.00     0.001 A 
HETATM   10  C           1     -21.523  -3.960 -11.535  0.00  0.00     0.000 A 
HETATM   11  C           1     -22.688  -3.714 -10.807  0.00  0.00     0.001 A 
HETATM   12  C           1     -22.660  -3.748  -9.413  0.00  0.00     0.007 A 
ENDBRANCH   6   7
ENDBRANCH   5   6
BRANCH   5  13
HETATM   13  N           1     -23.299  -5.157  -6.054  0.00  0.00    -0.066 N 
HETATM   14  H           1     -24.026  -4.868  -6.746  0.00  0.00     0.275 HD
HETATM   15  H           1     -23.176  -4.402  -5.342  0.00  0.00     0.275 HD
HETATM   16  H           1     -23.602  -6.037  -5.579  0.00  0.00     0.275 HD
ENDBRANCH   5  13
ENDBRANCH   1   5
BRANCH   2  17
HETATM   17  C           1     -20.270  -7.947  -4.489  0.00  0.00     0.186 C 
BRANCH  17  18
HETATM   18  C           1     -19.615  -9.126  -5.166  0.00  0.00     0.196 C 
HETATM   19  O           1     -18.374  -9.268  -5.110  0.00  0.00    -0.646 OA
HETATM   20  O           1     -20.312  -9.960  -5.783  0.00  0.00    -0.646 OA
ENDBRANCH  17  18
BRANCH  17  21
HETATM   21  C           1     -21.007  -8.424  -3.245  0.00  0.00     0.046 C 
BRANCH  21  22
HETATM   22  C           1     -20.828  -7.405  -2.127  0.00  0.00     0.116 C 
BRANCH  22  23
HETATM   23  C           1     -22.112  -6.636  -1.935  0.00  0.00     0.172 C 
HETATM   24  O           1     -22.722  -6.699  -0.846  0.00  0.00    -0.648 OA
HETATM   25  O           1     -22.566  -5.935  -2.866  0.00  0.00    -0.648 OA
ENDBRANCH  22  23
ENDBRANCH  21  22
ENDBRANCH  17  21
ENDBRANCH   2  17
TORSDOF 9
ENDMDL
MODEL 3
REMARK VINA RESULT:      -7.3      4.115      8.078
REMARK  9 active torsions:
REMARK  status: ('A' for Active; 'I' for Inactive)
REMARK    1  A    between atoms: C_1  and  C_9 
REMARK    2  A    between atoms: C_1  and  C_18 
REMARK    3  A    between atoms: C_1  and  N_10 
REMARK    4  A    between atoms: C_3  and  C_8 
REMARK    5  A    between atoms: C_6  and  C_7 
REMARK    6  A    between atoms: C_6  and  C_8 
REMARK    7  A    between atoms: C_7  and  C_21 
REMARK    8  A    between atoms: C_8  and  N_12 
REMARK       I    between atoms: C_9  and  N_12 
REMARK    9  A    between atoms: C_18  and  C_25 
ROOT
HETATM    1  C           1     -21.027  -7.000  -5.875  0.00  0.00     0.249 C 
HETATM    2  N           1     -21.647  -7.812  -4.963  0.00  0.00    -0.345 N 
HETATM    3  O           1     -19.846  -7.127  -6.093  0.00  0.00    -0.271 OA
HETATM    4  H           1     -22.636  -7.706  -4.780  0.00  0.00     0.163 HD
ENDROOT
BRANCH   1   5
HETATM    5  C           1     -21.820  -5.945  -6.606  0.00  0.00     0.278 C 
BRANCH   5   6
HETATM    6  C           1     -20.902  -4.792  -6.988  0.00  0.00     0.081 C 
BRANCH   6   7
HETATM    7  C           1     -21.100  -4.453  -8.433  0.00  0.00    -0.056 A 
HETATM    8  C           1     -20.080  -4.700  -9.352  0.00  0.00     0.007 A 
HETATM    9  C           1     -20.263  -4.385 -10.699  0.00  0.00     0.001 A 
HETATM   10  C           1     -21.467  -3.823 -11.126  0.00  0.00     0.000 A 
HETATM   11  C           1     -22.487  -3.578 -10.206  0.00  0.00     0.001 A 
HETATM   12  C           1     -22.303  -3.893  -8.860  0.00  0.00     0.007 A 
ENDBRANCH   6   7
ENDBRANCH   5   6
BRANCH   5  13
HETATM   13  N           1     -22.916  -5.437  -5.717  0.00  0.00    -0.066 N 
HETATM   14  H           1     -23.749  -5.187  -6.297  0.00  0.00     0.275 HD
HETATM   15  H           1     -22.584  -4.590  -5.202  0.00  0.00     0.275 HD
HETATM   16  H           1     -23.180  -6.180  -5.031  0.00  0.00     0.275 HD
ENDBRANCH   5  13
ENDBRANCH   1   5
BRANCH   2  17
HETATM   17  C           1     -20.884  -8.826  -4.260  0.00  0.00     0.186 C 
BRANCH  17  18
HETATM   18  C           1     -21.148 -10.175  -4.882  0.00  0.00     0.196 C 
HETATM   19  O           1     -21.784 -11.043  -4.245  0.00  0.00    -0.646 OA
HETATM   20  O           1     -20.733 -10.424  -6.035  0.00  0.00    -0.646 OA
ENDBRANCH  17  18
BRANCH  17  21
HETATM   21  C           1     -21.304  -8.852  -2.797  0.00  0.00     0.046 C 
BRANCH  21  22
HETATM   22  C           1     -20.867  -7.560  -2.119  0.00  0.00     0.116 C 
BRANCH  22  23
HETATM   23  C           1     -22.079  -6.709  -1.829  0.00  0.00     0.172 C 
HETATM   24  O           1     -22.495  -5.901  -2.687  0.00  0.00    -0.648 OA
HETATM   25  O           1     -22.667  -6.812  -0.731  0.00  0.00    -0.648 OA
ENDBRANCH  22  23
ENDBRANCH  21  22
ENDBRANCH  17  21
ENDBRANCH   2  17
TORSDOF 9
ENDMDL
MODEL 4
REMARK VINA RESULT:      -7.2     12.577     14.607
REMARK  9 active torsions:
REMARK  status: ('A' for Active; 'I' for Inactive)
REMARK    1  A    between atoms: C_1  and  C_9 
REMARK    2  A    between atoms: C_1  and  C_18 
REMARK    3  A    between atoms: C_1  and  N_10 
REMARK    4  A    between atoms: C_3  and  C_8 
REMARK    5  A    between atoms: C_6  and  C_7 
REMARK    6  A    between atoms: C_6  and  C_8 
REMARK    7  A    between atoms: C_7  and  C_21 
REMARK    8  A    between atoms: C_8  and  N_12 
REMARK       I    between atoms: C_9  and  N_12 
REMARK    9  A    between atoms: C_18  and  C_25 
ROOT
HETATM    1  C           1     -35.325  -0.180 -12.452  0.00  0.00     0.249 C 
HETATM    2  N           1     -36.047  -0.587 -13.541  0.00  0.00    -0.345 N 
HETATM    3  O           1     -34.789   0.902 -12.452  0.00  0.00    -0.271 OA
HETATM    4  H           1     -36.496  -1.494 -13.542  0.00  0.00     0.163 HD
ENDROOT
BRANCH   1   5
HETATM    5  C           1     -35.198  -1.084 -11.251  0.00  0.00     0.278 C 
BRANCH   5   6
HETATM    6  C           1     -35.841  -2.431 -11.558  0.00  0.00     0.081 C 
BRANCH   6   7
HETATM    7  C           1     -34.806  -3.510 -11.469  0.00  0.00    -0.056 A 
HETATM    8  C           1     -33.548  -3.317 -12.040  0.00  0.00     0.007 A 
HETATM    9  C           1     -32.583  -4.321 -11.957  0.00  0.00     0.001 A 
HETATM   10  C           1     -32.878  -5.518 -11.304  0.00  0.00     0.000 A 
HETATM   11  C           1     -34.136  -5.710 -10.733  0.00  0.00     0.001 A 
HETATM   12  C           1     -35.099  -4.705 -10.815  0.00  0.00     0.007 A 
ENDBRANCH   6   7
ENDBRANCH   5   6
BRANCH   5  13
HETATM   13  N           1     -35.890  -0.457 -10.077  0.00  0.00    -0.066 N 
HETATM   14  H           1     -35.607   0.546 -10.001  0.00  0.00     0.275 HD
HETATM   15  H           1     -35.621  -0.962  -9.203  0.00  0.00     0.275 HD
HETATM   16  H           1     -36.924  -0.518 -10.210  0.00  0.00     0.275 HD
ENDBRANCH   5  13
ENDBRANCH   1   5
BRANCH   2  17
HETATM   17  C           1     -36.169   0.282 -14.696  0.00  0.00     0.186 C 
BRANCH  17  18
HETATM   18  C           1     -37.499   0.042 -15.367  0.00  0.00     0.196 C 
HETATM   19  O           1     -38.025   0.946 -16.053  0.00  0.00    -0.646 OA
HETATM   20  O           1     -38.075  -1.060 -15.238  0.00  0.00    -0.646 OA
ENDBRANCH  17  18
BRANCH  17  21
HETATM   21  C           1     -35.045  -0.017 -15.678  0.00  0.00     0.046 C 
BRANCH  21  22
HETATM   22  C           1     -35.477  -1.133 -16.621  0.00  0.00     0.116 C 
BRANCH  22  23
HETATM   23  C           1     -34.603  -2.344 -16.402  0.00  0.00     0.172 C 
HETATM   24  O           1     -33.795  -2.700 -17.287  0.00  0.00    -0.648 OA
HETATM   25  O           1     -34.687  -2.991 -15.336  0.00  0.00    -0.648 OA
ENDBRANCH  22  23
ENDBRANCH  21  22
ENDBRANCH  17  21
ENDBRANCH   2  17
TORSDOF 9
ENDMDL
MODEL 5
REMARK VINA RESULT:      -7.1      1.816      3.109
REMARK  9 active torsions:
REMARK  status: ('A' for Active; 'I' for Inactive)
REMARK    1  A    between atoms: C_1  and  C_9 
REMARK    2  A    between atoms: C_1  and  C_18 
REMARK    3  A    between atoms: C_1  and  N_10 
REMARK    4  A    between atoms: C_3  and  C_8 
REMARK    5  A    between atoms: C_6  and  C_7 
REMARK    6  A    between atoms: C_6  and  C_8 
REMARK    7  A    between atoms: C_7  and  C_21 
REMARK    8  A    between atoms: C_8  and  N_12 
REMARK       I    between atoms: C_9  and  N_12 
REMARK    9  A    between atoms: C_18  and  C_25 
ROOT
HETATM    1  C           1     -21.489  -5.866  -6.604  0.00  0.00     0.249 C 
HETATM    2  N           1     -21.993  -4.803  -7.303  0.00  0.00    -0.345 N 
HETATM    3  O           1     -20.859  -6.722  -7.178  0.00  0.00    -0.271 OA
HETATM    4  H           1     -22.523  -4.086  -6.823  0.00  0.00     0.163 HD
ENDROOT
BRANCH   1   5
HETATM    5  C           1     -21.723  -5.971  -5.117  0.00  0.00     0.278 C 
BRANCH   5   6
HETATM    6  C           1     -20.904  -7.125  -4.554  0.00  0.00     0.081 C 
BRANCH   6   7
HETATM    7  C           1     -21.290  -7.360  -3.126  0.00  0.00    -0.056 A 
HETATM    8  C           1     -21.091  -8.615  -2.549  0.00  0.00     0.007 A 
HETATM    9  C           1     -21.451  -8.835  -1.219  0.00  0.00     0.001 A 
HETATM   10  C           1     -22.008  -7.801  -0.467  0.00  0.00     0.000 A 
HETATM   11  C           1     -22.205  -6.547  -1.045  0.00  0.00     0.001 A 
HETATM   12  C           1     -21.846  -6.327  -2.374  0.00  0.00     0.007 A 
ENDBRANCH   6   7
ENDBRANCH   5   6
BRANCH   5  13
HETATM   13  N           1     -23.179  -6.218  -4.856  0.00  0.00    -0.066 N 
HETATM   14  H           1     -23.662  -5.307  -4.685  0.00  0.00     0.275 HD
HETATM   15  H           1     -23.284  -6.830  -4.017  0.00  0.00     0.275 HD
HETATM   16  H           1     -23.607  -6.687  -5.686  0.00  0.00     0.275 HD
ENDBRANCH   5  13
ENDBRANCH   1   5
BRANCH   2  17
HETATM   17  C           1     -21.769  -4.702  -8.732  0.00  0.00     0.186 C 
BRANCH  17  18
HETATM   18  C           1     -20.323  -4.358  -8.991  0.00  0.00     0.196 C 
HETATM   19  O           1     -19.740  -4.824  -9.994  0.00  0.00    -0.646 OA
HETATM   20  O           1     -19.709  -3.605  -8.204  0.00  0.00    -0.646 OA
ENDBRANCH  17  18
BRANCH  17  21
HETATM   21  C           1     -22.661  -3.611  -9.310  0.00  0.00     0.046 C 
BRANCH  21  22
HETATM   22  C           1     -23.118  -4.015 -10.706  0.00  0.00     0.116 C 
BRANCH  22  23
HETATM   23  C           1     -24.432  -3.343 -11.020  0.00  0.00     0.172 C 
HETATM   24  O           1     -24.652  -2.905 -12.170  0.00  0.00    -0.648 OA
HETATM   25  O           1     -25.302  -3.226 -10.130  0.00  0.00    -0.648 OA
ENDBRANCH  22  23
ENDBRANCH  21  22
ENDBRANCH  17  21
ENDBRANCH   2  17
TORSDOF 9
ENDMDL
MODEL 6
REMARK VINA RESULT:      -7.0     12.728     14.870
REMARK  9 active torsions:
REMARK  status: ('A' for Active; 'I' for Inactive)
REMARK    1  A    between atoms: C_1  and  C_9 
REMARK    2  A    between atoms: C_1  and  C_18 
REMARK    3  A    between atoms: C_1  and  N_10 
REMARK    4  A    between atoms: C_3  and  C_8 
REMARK    5  A    between atoms: C_6  and  C_7 
REMARK    6  A    between atoms: C_6  and  C_8 
REMARK    7  A    between atoms: C_7  and  C_21 
REMARK    8  A    between atoms: C_8  and  N_12 
REMARK       I    between atoms: C_9  and  N_12 
REMARK    9  A    between atoms: C_18  and  C_25 
ROOT
HETATM    1  C           1     -36.107  -0.814 -12.739  0.00  0.00     0.249 C 
HETATM    2  N           1     -35.120  -0.826 -13.687  0.00  0.00    -0.345 N 
HETATM    3  O           1     -37.267  -0.846 -13.074  0.00  0.00    -0.271 OA
HETATM    4  H           1     -34.148  -0.798 -13.407  0.00  0.00     0.163 HD
ENDROOT
BRANCH   1   5
HETATM    5  C           1     -35.746  -0.759 -11.275  0.00  0.00     0.278 C 
BRANCH   5   6
HETATM    6  C           1     -36.089  -2.089 -10.616  0.00  0.00     0.081 C 
BRANCH   6   7
HETATM    7  C           1     -35.020  -3.091 -10.927  0.00  0.00    -0.056 A 
HETATM    8  C           1     -35.331  -4.450 -10.969  0.00  0.00     0.007 A 
HETATM    9  C           1     -34.337  -5.384 -11.259  0.00  0.00     0.001 A 
HETATM   10  C           1     -33.031  -4.958 -11.506  0.00  0.00     0.000 A 
HETATM   11  C           1     -32.721  -3.599 -11.464  0.00  0.00     0.001 A 
HETATM   12  C           1     -33.716  -2.666 -11.175  0.00  0.00     0.007 A 
ENDBRANCH   6   7
ENDBRANCH   5   6
BRANCH   5  13
HETATM   13  N           1     -36.518   0.341 -10.610  0.00  0.00    -0.066 N 
HETATM   14  H           1     -37.246  -0.072  -9.985  0.00  0.00     0.275 HD
HETATM   15  H           1     -36.979   0.933 -11.337  0.00  0.00     0.275 HD
HETATM   16  H           1     -35.866   0.930 -10.044  0.00  0.00     0.275 HD
ENDBRANCH   5  13
ENDBRANCH   1   5
BRANCH   2  17
HETATM   17  C           1     -35.467  -0.878 -15.094  0.00  0.00     0.186 C 
BRANCH  17  18
HETATM   18  C           1     -34.910  -2.141 -15.703  0.00  0.00     0.196 C 
HETATM   19  O           1     -34.650  -3.124 -14.975  0.00  0.00    -0.646 OA
HETATM   20  O           1     -34.708  -2.205 -16.935  0.00  0.00    -0.646 OA
ENDBRANCH  17  18
BRANCH  17  21
HETATM   21  C           1     -34.878   0.331 -15.808  0.00  0.00     0.046 C 
BRANCH  21  22
HETATM   22  C           1     -35.480   1.606 -15.230  0.00  0.00     0.116 C 
BRANCH  22  23
HETATM   23  C           1     -36.559   2.117 -16.153  0.00  0.00     0.172 C 
HETATM   24  O           1     -37.676   1.557 -16.180  0.00  0.00    -0.648 OA
HETATM   25  O           1     -36.336   3.102 -16.890  0.00  0.00    -0.648 OA
ENDBRANCH  22  23
ENDBRANCH  21  22
ENDBRANCH  17  21
ENDBRANCH   2  17
TORSDOF 9
ENDMDL
MODEL 7
REMARK VINA RESULT:      -6.5      4.539      8.941
REMARK  9 active torsions:
REMARK  status: ('A' for Active; 'I' for Inactive)
REMARK    1  A    between atoms: C_1  and  C_9 
REMARK    2  A    between atoms: C_1  and  C_18 
REMARK    3  A    between atoms: C_1  and  N_10 
REMARK    4  A    between atoms: C_3  and  C_8 
REMARK    5  A    between atoms: C_6  and  C_7 
REMARK    6  A    between atoms: C_6  and  C_8 
REMARK    7  A    between atoms: C_7  and  C_21 
REMARK    8  A    between atoms: C_8  and  N_12 
REMARK       I    between atoms: C_9  and  N_12 
REMARK    9  A    between atoms: C_18  and  C_25 
ROOT
HETATM    1  C           1     -20.795  -7.548  -5.201  0.00  0.00     0.249 C 
HETATM    2  N           1     -21.184  -8.087  -4.005  0.00  0.00    -0.345 N 
HETATM    3  O           1     -19.774  -7.919  -5.728  0.00  0.00    -0.271 OA
HETATM    4  H           1     -22.039  -7.776  -3.562  0.00  0.00     0.163 HD
ENDROOT
BRANCH   1   5
HETATM    5  C           1     -21.643  -6.489  -5.862  0.00  0.00     0.278 C 
BRANCH   5   6
HETATM    6  C           1     -20.795  -5.251  -6.125  0.00  0.00     0.081 C 
BRANCH   6   7
HETATM    7  C           1     -21.029  -4.775  -7.525  0.00  0.00    -0.056 A 
HETATM    8  C           1     -20.021  -4.901  -8.481  0.00  0.00     0.007 A 
HETATM    9  C           1     -20.238  -4.458  -9.786  0.00  0.00     0.001 A 
HETATM   10  C           1     -21.463  -3.888 -10.135  0.00  0.00     0.000 A 
HETATM   11  C           1     -22.470  -3.763  -9.178  0.00  0.00     0.001 A 
HETATM   12  C           1     -22.253  -4.206  -7.874  0.00  0.00     0.007 A 
ENDBRANCH   6   7
ENDBRANCH   5   6
BRANCH   5  13
HETATM   13  N           1     -22.786  -6.128  -4.960  0.00  0.00    -0.066 N 
HETATM   14  H           1     -22.990  -6.929  -4.320  0.00  0.00     0.275 HD
HETATM   15  H           1     -23.632  -5.918  -5.535  0.00  0.00     0.275 HD
HETATM   16  H           1     -22.531  -5.287  -4.395  0.00  0.00     0.275 HD
ENDBRANCH   5  13
ENDBRANCH   1   5
BRANCH   2  17
HETATM   17  C           1     -20.369  -9.106  -3.370  0.00  0.00     0.186 C 
BRANCH  17  18
HETATM   18  C           1     -21.169 -10.378  -3.238  0.00  0.00     0.196 C 
HETATM   19  O           1     -20.712 -11.337  -2.578  0.00  0.00    -0.646 OA
HETATM   20  O           1     -22.287 -10.474  -3.787  0.00  0.00    -0.646 OA
ENDBRANCH  17  18
BRANCH  17  21
HETATM   21  C           1     -19.946  -8.628  -1.987  0.00  0.00     0.046 C 
BRANCH  21  22
HETATM   22  C           1     -21.097  -7.874  -1.335  0.00  0.00     0.116 C 
BRANCH  22  23
HETATM   23  C           1     -21.397  -8.480   0.014  0.00  0.00     0.172 C 
HETATM   24  O           1     -20.937  -9.604   0.311  0.00  0.00    -0.648 OA
HETATM   25  O           1     -22.104  -7.857   0.836  0.00  0.00    -0.648 OA
ENDBRANCH  22  23
ENDBRANCH  21  22
ENDBRANCH  17  21
ENDBRANCH   2  17
TORSDOF 9
ENDMDL
MODEL 8
REMARK VINA RESULT:      -6.4     10.823     13.592
REMARK  9 active torsions:
REMARK  status: ('A' for Active; 'I' for Inactive)
REMARK    1  A    between atoms: C_1  and  C_9 
REMARK    2  A    between atoms: C_1  and  C_18 
REMARK    3  A    between atoms: C_1  and  N_10 
REMARK    4  A    between atoms: C_3  and  C_8 
REMARK    5  A    between atoms: C_6  and  C_7 
REMARK    6  A    between atoms: C_6  and  C_8 
REMARK    7  A    between atoms: C_7  and  C_21 
REMARK    8  A    between atoms: C_8  and  N_12 
REMARK       I    between atoms: C_9  and  N_12 
REMARK    9  A    between atoms: C_18  and  C_25 
ROOT
HETATM    1  C           1     -27.753  -6.504 -18.928  0.00  0.00     0.249 C 
HETATM    2  N           1     -28.257  -7.025 -17.767  0.00  0.00    -0.345 N 
HETATM    3  O           1     -28.015  -5.369 -19.245  0.00  0.00    -0.271 OA
HETATM    4  H           1     -28.038  -7.977 -17.502  0.00  0.00     0.163 HD
ENDROOT
BRANCH   1   5
HETATM    5  C           1     -26.871  -7.350 -19.814  0.00  0.00     0.278 C 
BRANCH   5   6
HETATM    6  C           1     -26.001  -6.446 -20.678  0.00  0.00     0.081 C 
BRANCH   6   7
HETATM    7  C           1     -24.786  -7.199 -21.122  0.00  0.00    -0.056 A 
HETATM    8  C           1     -24.504  -7.326 -22.482  0.00  0.00     0.007 A 
HETATM    9  C           1     -23.372  -8.028 -22.898  0.00  0.00     0.001 A 
HETATM   10  C           1     -22.523  -8.603 -21.952  0.00  0.00     0.000 A 
HETATM   11  C           1     -22.805  -8.475 -20.593  0.00  0.00     0.001 A 
HETATM   12  C           1     -23.937  -7.773 -20.178  0.00  0.00     0.007 A 
ENDBRANCH   6   7
ENDBRANCH   5   6
BRANCH   5  13
HETATM   13  N           1     -27.727  -8.210 -20.696  0.00  0.00    -0.066 N 
HETATM   14  H           1     -28.140  -7.626 -21.458  0.00  0.00     0.275 HD
HETATM   15  H           1     -28.495  -8.636 -20.129  0.00  0.00     0.275 HD
HETATM   16  H           1     -27.142  -8.968 -21.115  0.00  0.00     0.275 HD
ENDBRANCH   5  13
ENDBRANCH   1   5
BRANCH   2  17
HETATM   17  C           1     -29.104  -6.212 -16.916  0.00  0.00     0.186 C 
BRANCH  17  18
HETATM   18  C           1     -28.671  -6.369 -15.479  0.00  0.00     0.196 C 
HETATM   19  O           1     -27.930  -7.321 -15.150  0.00  0.00    -0.646 OA
HETATM   20  O           1     -29.052  -5.547 -14.617  0.00  0.00    -0.646 OA
ENDBRANCH  17  18
BRANCH  17  21
HETATM   21  C           1     -30.551  -6.663 -17.061  0.00  0.00     0.046 C 
BRANCH  21  22
HETATM   22  C           1     -31.327  -5.631 -17.869  0.00  0.00     0.116 C 
BRANCH  22  23
HETATM   23  C           1     -31.585  -4.414 -17.015  0.00  0.00     0.172 C 
HETATM   24  O           1     -32.175  -4.532 -15.919  0.00  0.00    -0.648 OA
HETATM   25  O           1     -31.208  -3.287 -17.403  0.00  0.00    -0.648 OA
ENDBRANCH  22  23
ENDBRANCH  21  22
ENDBRANCH  17  21
ENDBRANCH   2  17
TORSDOF 9
ENDMDL
MODEL 9
REMARK VINA RESULT:      -6.3      4.677      8.166
REMARK  9 active torsions:
REMARK  status: ('A' for Active; 'I' for Inactive)
REMARK    1  A    between atoms: C_1  and  C_9 
REMARK    2  A    between atoms: C_1  and  C_18 
REMARK    3  A    between atoms: C_1  and  N_10 
REMARK    4  A    between atoms: C_3  and  C_8 
REMARK    5  A    between atoms: C_6  and  C_7 
REMARK    6  A    between atoms: C_6  and  C_8 
REMARK    7  A    between atoms: C_7  and  C_21 
REMARK    8  A    between atoms: C_8  and  N_12 
REMARK       I    between atoms: C_9  and  N_12 
REMARK    9  A    between atoms: C_18  and  C_25 
ROOT
HETATM    1  C           1     -21.054  -7.636  -5.039  0.00  0.00     0.249 C 
HETATM    2  N           1     -20.323  -8.232  -4.047  0.00  0.00    -0.345 N 
HETATM    3  O           1     -21.254  -8.221  -6.077  0.00  0.00    -0.271 OA
HETATM    4  H           1     -20.154  -7.742  -3.177  0.00  0.00     0.163 HD
ENDROOT
BRANCH   1   5
HETATM    5  C           1     -21.608  -6.247  -4.837  0.00  0.00     0.278 C 
BRANCH   5   6
HETATM    6  C           1     -20.574  -5.218  -5.277  0.00  0.00     0.081 C 
BRANCH   6   7
HETATM    7  C           1     -20.823  -4.839  -6.703  0.00  0.00    -0.056 A 
HETATM    8  C           1     -19.762  -4.800  -7.608  0.00  0.00     0.007 A 
HETATM    9  C           1     -19.992  -4.447  -8.938  0.00  0.00     0.001 A 
HETATM   10  C           1     -21.284  -4.133  -9.362  0.00  0.00     0.000 A 
HETATM   11  C           1     -22.344  -4.173  -8.457  0.00  0.00     0.001 A 
HETATM   12  C           1     -22.113  -4.526  -7.128  0.00  0.00     0.007 A 
ENDBRANCH   6   7
ENDBRANCH   5   6
BRANCH   5  13
HETATM   13  N           1     -21.930  -6.043  -3.386  0.00  0.00    -0.066 N 
HETATM   14  H           1     -22.105  -6.969  -2.935  0.00  0.00     0.275 HD
HETATM   15  H           1     -22.782  -5.446  -3.298  0.00  0.00     0.275 HD
HETATM   16  H           1     -21.125  -5.573  -2.914  0.00  0.00     0.275 HD
ENDBRANCH   5  13
ENDBRANCH   1   5
BRANCH   2  17
HETATM   17  C           1     -19.791  -9.567  -4.241  0.00  0.00     0.186 C 
BRANCH  17  18
HETATM   18  C           1     -20.160 -10.432  -3.061  0.00  0.00     0.196 C 
HETATM   19  O           1     -19.336 -11.256  -2.608  0.00  0.00    -0.646 OA
HETATM   20  O           1     -21.290 -10.324  -2.536  0.00  0.00    -0.646 OA
ENDBRANCH  17  18
BRANCH  17  21
HETATM   21  C           1     -18.274  -9.496  -4.362  0.00  0.00     0.046 C 
BRANCH  21  22
HETATM   22  C           1     -17.872  -9.657  -5.822  0.00  0.00     0.116 C 
BRANCH  22  23
HETATM   23  C           1     -18.150 -11.072  -6.268  0.00  0.00     0.172 C 
HETATM   24  O           1     -17.737 -12.035  -5.586  0.00  0.00    -0.648 OA
HETATM   25  O           1     -18.795 -11.281  -7.318  0.00  0.00    -0.648 OA
ENDBRANCH  22  23
ENDBRANCH  21  22
ENDBRANCH  17  21
ENDBRANCH   2  17
TORSDOF 9
ENDMDL
