MODEL 1
REMARK VINA RESULT:      -7.7      0.000      0.000
REMARK  8 active torsions:
REMARK  status: ('A' for Active; 'I' for Inactive)
REMARK    1  A    between atoms: C_5  and  C_10 
REMARK    2  A    between atoms: C_5  and  C_17 
REMARK    3  A    between atoms: C_5  and  N_19 
REMARK    4  A    between atoms: C_6  and  C_23 
REMARK       I    between atoms: C_10  and  N_13 
REMARK    5  A    between atoms: C_11  and  O_24 
REMARK    6  A    between atoms: N_13  and  C_23 
REMARK    7  A    between atoms: C_17  and  C_21 
REMARK    8  A    between atoms: C_22  and  C_23 
ROOT
HETATM    1  C           1     -21.065  -5.714  -6.839  0.00  0.00     0.278 C 
ENDROOT
BRANCH   1   2
HETATM    2  C           1     -21.623  -4.591  -7.678  0.00  0.00     0.249 C 
HETATM    3  N           1     -22.103  -4.847  -8.935  0.00  0.00    -0.344 N 
HETATM    4  H           1     -22.082  -5.790  -9.302  0.00  0.00     0.163 HD
HETATM    5  O           1     -21.648  -3.464  -7.240  0.00  0.00    -0.271 OA
BRANCH   3   6
HETATM    6  C           1     -22.638  -3.767  -9.740  0.00  0.00     0.189 C 
BRANCH   6   7
HETATM    7  C           1     -22.109  -3.884 -11.164  0.00  0.00     0.010 C 
HETATM    8  C           1     -20.587  -3.933 -11.139  0.00  0.00     0.012 C 
HETATM    9  C           1     -22.564  -2.676 -11.974  0.00  0.00     0.012 C 
ENDBRANCH   6   7
BRANCH   6  10
HETATM   10  C           1     -24.144  -3.851  -9.756  0.00  0.00     0.197 C 
HETATM   11  O           1     -24.829  -2.840  -9.487  0.00  0.00    -0.646 OA
HETATM   12  O           1     -24.708  -4.931 -10.039  0.00  0.00    -0.646 OA
ENDBRANCH   6  10
ENDBRANCH   3   6
ENDBRANCH   1   2
BRANCH   1  13
HETATM   13  C           1     -20.867  -5.231  -5.408  0.00  0.00     0.081 C 
BRANCH  13  14
HETATM   14  C           1     -21.146  -6.355  -4.459  0.00  0.00    -0.056 A 
HETATM   15  C           1     -21.242  -7.662  -4.937  0.00  0.00     0.010 A 
HETATM   16  C           1     -21.502  -8.709  -4.053  0.00  0.00     0.037 A 
HETATM   17  C           1     -21.664  -8.450  -2.692  0.00  0.00     0.065 A 
HETATM   18  C           1     -21.567  -7.143  -2.216  0.00  0.00     0.037 A 
HETATM   19  C           1     -21.308  -6.095  -3.099  0.00  0.00     0.010 A 
BRANCH  17  20
HETATM   20  O           1     -21.916  -9.467  -1.834  0.00  0.00    -0.361 OA
HETATM   21  H           1     -22.709  -9.239  -1.322  0.00  0.00     0.217 HD
ENDBRANCH  17  20
ENDBRANCH  13  14
ENDBRANCH   1  13
BRANCH   1  22
HETATM   22  N           1     -19.747  -6.153  -7.405  0.00  0.00    -0.066 N 
HETATM   23  H           1     -19.862  -6.382  -8.418  0.00  0.00     0.275 HD
HETATM   24  H           1     -19.413  -6.999  -6.892  0.00  0.00     0.275 HD
HETATM   25  H           1     -19.048  -5.383  -7.300  0.00  0.00     0.275 HD
ENDBRANCH   1  22
TORSDOF 8
ENDMDL
MODEL 2
REMARK VINA RESULT:      -7.4      2.168      7.645
REMARK  8 active torsions:
REMARK  status: ('A' for Active; 'I' for Inactive)
REMARK    1  A    between atoms: C_5  and  C_10 
REMARK    2  A    between atoms: C_5  and  C_17 
REMARK    3  A    between atoms: C_5  and  N_19 
REMARK    4  A    between atoms: C_6  and  C_23 
REMARK       I    between atoms: C_10  and  N_13 
REMARK    5  A    between atoms: C_11  and  O_24 
REMARK    6  A    between atoms: N_13  and  C_23 
REMARK    7  A    between atoms: C_17  and  C_21 
REMARK    8  A    between atoms: C_22  and  C_23 
ROOT
HETATM    1  C           1     -22.217  -5.092  -6.982  0.00  0.00     0.278 C 
ENDROOT
BRANCH   1   2
HETATM    2  C           1     -21.264  -5.652  -5.954  0.00  0.00     0.249 C 
HETATM    3  N           1     -21.565  -6.820  -5.306  0.00  0.00    -0.344 N 
HETATM    4  H           1     -22.427  -7.308  -5.516  0.00  0.00     0.163 HD
HETATM    5  O           1     -20.235  -5.070  -5.703  0.00  0.00    -0.271 OA
BRANCH   3   6
HETATM    6  C           1     -20.651  -7.357  -4.318  0.00  0.00     0.189 C 
BRANCH   6   7
HETATM    7  C           1     -21.403  -7.626  -3.021  0.00  0.00     0.010 C 
HETATM    8  C           1     -21.963  -6.319  -2.477  0.00  0.00     0.012 C 
HETATM    9  C           1     -20.450  -8.233  -2.000  0.00  0.00     0.012 C 
ENDBRANCH   6   7
BRANCH   6  10
HETATM   10  C           1     -20.057  -8.646  -4.831  0.00  0.00     0.197 C 
HETATM   11  O           1     -18.842  -8.886  -4.659  0.00  0.00    -0.646 OA
HETATM   12  O           1     -20.780  -9.474  -5.427  0.00  0.00    -0.646 OA
ENDBRANCH   6  10
ENDBRANCH   3   6
ENDBRANCH   1   2
BRANCH   1  13
HETATM   13  C           1     -21.688  -3.757  -7.492  0.00  0.00     0.081 C 
BRANCH  13  14
HETATM   14  C           1     -21.716  -3.748  -8.988  0.00  0.00    -0.056 A 
HETATM   15  C           1     -22.912  -3.496  -9.661  0.00  0.00     0.010 A 
HETATM   16  C           1     -22.938  -3.487 -11.055  0.00  0.00     0.037 A 
HETATM   17  C           1     -21.770  -3.729 -11.777  0.00  0.00     0.065 A 
HETATM   18  C           1     -20.575  -3.981 -11.104  0.00  0.00     0.037 A 
HETATM   19  C           1     -20.548  -3.990  -9.709  0.00  0.00     0.010 A 
BRANCH  17  20
HETATM   20  O           1     -21.796  -3.720 -13.131  0.00  0.00    -0.361 OA
HETATM   21  H           1     -21.716  -4.638 -13.439  0.00  0.00     0.217 HD
ENDBRANCH  17  20
ENDBRANCH  13  14
ENDBRANCH   1  13
BRANCH   1  22
HETATM   22  N           1     -23.565  -4.889  -6.356  0.00  0.00    -0.066 N 
HETATM   23  H           1     -24.007  -5.819  -6.174  0.00  0.00     0.275 HD
HETATM   24  H           1     -24.170  -4.337  -7.005  0.00  0.00     0.275 HD
HETATM   25  H           1     -23.457  -4.372  -5.455  0.00  0.00     0.275 HD
ENDBRANCH   1  22
TORSDOF 8
ENDMDL
MODEL 3
REMARK VINA RESULT:      -7.3      2.032      7.632
REMARK  8 active torsions:
REMARK  status: ('A' for Active; 'I' for Inactive)
REMARK    1  A    between atoms: C_5  and  C_10 
REMARK    2  A    between atoms: C_5  and  C_17 
REMARK    3  A    between atoms: C_5  and  N_19 
REMARK    4  A    between atoms: C_6  and  C_23 
REMARK       I    between atoms: C_10  and  N_13 
REMARK    5  A    between atoms: C_11  and  O_24 
REMARK    6  A    between atoms: N_13  and  C_23 
REMARK    7  A    between atoms: C_17  and  C_21 
REMARK    8  A    between atoms: C_22  and  C_23 
ROOT
HETATM    1  C           1     -21.598  -4.679  -7.470  0.00  0.00     0.278 C 
ENDROOT
BRANCH   1   2
HETATM    2  C           1     -20.758  -5.472  -6.499  0.00  0.00     0.249 C 
HETATM    3  N           1     -21.332  -6.464  -5.749  0.00  0.00    -0.344 N 
HETATM    4  H           1     -22.319  -6.665  -5.846  0.00  0.00     0.163 HD
HETATM    5  O           1     -19.580  -5.232  -6.382  0.00  0.00    -0.271 OA
BRANCH   3   6
HETATM    6  C           1     -20.526  -7.225  -4.816  0.00  0.00     0.189 C 
BRANCH   6   7
HETATM    7  C           1     -21.314  -7.456  -3.533  0.00  0.00     0.010 C 
HETATM    8  C           1     -21.685  -6.114  -2.915  0.00  0.00     0.012 C 
HETATM    9  C           1     -20.462  -8.248  -2.550  0.00  0.00     0.012 C 
ENDBRANCH   6   7
BRANCH   6  10
HETATM   10  C           1     -20.166  -8.555  -5.430  0.00  0.00     0.197 C 
HETATM   11  O           1     -18.967  -8.841  -5.643  0.00  0.00    -0.646 OA
HETATM   12  O           1     -21.065  -9.371  -5.726  0.00  0.00    -0.646 OA
ENDBRANCH   6  10
ENDBRANCH   3   6
ENDBRANCH   1   2
BRANCH   1  13
HETATM   13  C           1     -21.001  -4.790  -8.867  0.00  0.00     0.081 C 
BRANCH  13  14
HETATM   14  C           1     -21.940  -4.180  -9.861  0.00  0.00    -0.056 A 
HETATM   15  C           1     -21.438  -3.415 -10.914  0.00  0.00     0.010 A 
HETATM   16  C           1     -22.312  -2.846 -11.840  0.00  0.00     0.037 A 
HETATM   17  C           1     -23.687  -3.043 -11.715  0.00  0.00     0.065 A 
HETATM   18  C           1     -24.188  -3.809 -10.662  0.00  0.00     0.037 A 
HETATM   19  C           1     -23.314  -4.378  -9.735  0.00  0.00     0.010 A 
BRANCH  17  20
HETATM   20  O           1     -24.536  -2.491 -12.614  0.00  0.00    -0.361 OA
HETATM   21  H           1     -25.364  -2.998 -12.597  0.00  0.00     0.217 HD
ENDBRANCH  17  20
ENDBRANCH  13  14
ENDBRANCH   1  13
BRANCH   1  22
HETATM   22  N           1     -21.621  -3.239  -7.051  0.00  0.00    -0.066 N 
HETATM   23  H           1     -22.527  -3.031  -6.573  0.00  0.00     0.275 HD
HETATM   24  H           1     -21.525  -2.630  -7.894  0.00  0.00     0.275 HD
HETATM   25  H           1     -20.830  -3.054  -6.394  0.00  0.00     0.275 HD
ENDBRANCH   1  22
TORSDOF 8
ENDMDL
MODEL 4
REMARK VINA RESULT:      -7.1      1.946      7.452
REMARK  8 active torsions:
REMARK  status: ('A' for Active; 'I' for Inactive)
REMARK    1  A    between atoms: C_5  and  C_10 
REMARK    2  A    between atoms: C_5  and  C_17 
REMARK    3  A    between atoms: C_5  and  N_19 
REMARK    4  A    between atoms: C_6  and  C_23 
REMARK       I    between atoms: C_10  and  N_13 
REMARK    5  A    between atoms: C_11  and  O_24 
REMARK    6  A    between atoms: N_13  and  C_23 
REMARK    7  A    between atoms: C_17  and  C_21 
REMARK    8  A    between atoms: C_22  and  C_23 
ROOT
HETATM    1  C           1     -20.945  -4.887  -6.456  0.00  0.00     0.278 C 
ENDROOT
BRANCH   1   2
HETATM    2  C           1     -21.652  -5.831  -5.515  0.00  0.00     0.249 C 
HETATM    3  N           1     -20.926  -6.626  -4.668  0.00  0.00    -0.344 N 
HETATM    4  H           1     -19.915  -6.580  -4.673  0.00  0.00     0.163 HD
HETATM    5  O           1     -22.859  -5.886  -5.509  0.00  0.00    -0.271 OA
BRANCH   3   6
HETATM    6  C           1     -21.606  -7.533  -3.765  0.00  0.00     0.189 C 
BRANCH   6   7
HETATM    7  C           1     -20.853  -8.856  -3.711  0.00  0.00     0.010 C 
HETATM    8  C           1     -19.764  -8.866  -4.776  0.00  0.00     0.012 C 
HETATM    9  C           1     -21.823 -10.001  -3.968  0.00  0.00     0.012 C 
ENDBRANCH   6   7
BRANCH   6  10
HETATM   10  C           1     -21.654  -6.926  -2.385  0.00  0.00     0.197 C 
HETATM   11  O           1     -20.971  -7.420  -1.461  0.00  0.00    -0.646 OA
HETATM   12  O           1     -22.375  -5.929  -2.164  0.00  0.00    -0.646 OA
ENDBRANCH   6  10
ENDBRANCH   3   6
ENDBRANCH   1   2
BRANCH   1  13
HETATM   13  C           1     -20.671  -5.595  -7.776  0.00  0.00     0.081 C 
BRANCH  13  14
HETATM   14  C           1     -21.210  -4.772  -8.905  0.00  0.00    -0.056 A 
HETATM   15  C           1     -22.552  -4.391  -8.910  0.00  0.00     0.010 A 
HETATM   16  C           1     -23.055  -3.624  -9.961  0.00  0.00     0.037 A 
HETATM   17  C           1     -22.217  -3.239 -11.007  0.00  0.00     0.065 A 
HETATM   18  C           1     -20.875  -3.621 -11.001  0.00  0.00     0.037 A 
HETATM   19  C           1     -20.372  -4.387  -9.950  0.00  0.00     0.010 A 
BRANCH  17  20
HETATM   20  O           1     -22.705  -2.494 -12.028  0.00  0.00    -0.361 OA
HETATM   21  H           1     -23.379  -3.022 -12.488  0.00  0.00     0.217 HD
ENDBRANCH  17  20
ENDBRANCH  13  14
ENDBRANCH   1  13
BRANCH   1  22
HETATM   22  N           1     -19.646  -4.451  -5.844  0.00  0.00    -0.066 N 
HETATM   23  H           1     -19.380  -3.515  -6.224  0.00  0.00     0.275 HD
HETATM   24  H           1     -18.902  -5.147  -6.077  0.00  0.00     0.275 HD
HETATM   25  H           1     -19.752  -4.389  -4.807  0.00  0.00     0.275 HD
ENDBRANCH   1  22
TORSDOF 8
ENDMDL
MODEL 5
REMARK VINA RESULT:      -6.9      1.994      7.566
REMARK  8 active torsions:
REMARK  status: ('A' for Active; 'I' for Inactive)
REMARK    1  A    between atoms: C_5  and  C_10 
REMARK    2  A    between atoms: C_5  and  C_17 
REMARK    3  A    between atoms: C_5  and  N_19 
REMARK    4  A    between atoms: C_6  and  C_23 
REMARK       I    between atoms: C_10  and  N_13 
REMARK    5  A    between atoms: C_11  and  O_24 
REMARK    6  A    between atoms: N_13  and  C_23 
REMARK    7  A    between atoms: C_17  and  C_21 
REMARK    8  A    between atoms: C_22  and  C_23 
ROOT
HETATM    1  C           1     -22.076  -4.087  -7.738  0.00  0.00     0.278 C 
ENDROOT
BRANCH   1   2
HETATM    2  C           1     -22.552  -5.009  -6.642  0.00  0.00     0.249 C 
HETATM    3  N           1     -21.669  -5.859  -6.031  0.00  0.00    -0.344 N 
HETATM    4  H           1     -20.698  -5.869  -6.315  0.00  0.00     0.163 HD
HETATM    5  O           1     -23.712  -4.998  -6.304  0.00  0.00    -0.271 OA
BRANCH   3   6
HETATM    6  C           1     -22.126  -6.745  -4.980  0.00  0.00     0.189 C 
BRANCH   6   7
HETATM    7  C           1     -21.451  -8.103  -5.130  0.00  0.00     0.010 C 
HETATM    8  C           1     -21.630  -8.905  -3.847  0.00  0.00     0.012 C 
HETATM    9  C           1     -19.966  -7.903  -5.399  0.00  0.00     0.012 C 
ENDBRANCH   6   7
BRANCH   6  10
HETATM   10  C           1     -21.774  -6.155  -3.637  0.00  0.00     0.197 C 
HETATM   11  O           1     -20.650  -5.637  -3.458  0.00  0.00    -0.646 OA
HETATM   12  O           1     -22.604  -6.184  -2.703  0.00  0.00    -0.646 OA
ENDBRANCH   6  10
ENDBRANCH   3   6
ENDBRANCH   1   2
BRANCH   1  13
HETATM   13  C           1     -21.864  -4.885  -9.018  0.00  0.00     0.081 C 
BRANCH  13  14
HETATM   14  C           1     -22.524  -4.179 -10.162  0.00  0.00    -0.056 A 
HETATM   15  C           1     -23.895  -3.926 -10.126  0.00  0.00     0.010 A 
HETATM   16  C           1     -24.510  -3.268 -11.191  0.00  0.00     0.037 A 
HETATM   17  C           1     -23.755  -2.864 -12.291  0.00  0.00     0.065 A 
HETATM   18  C           1     -22.384  -3.118 -12.326  0.00  0.00     0.037 A 
HETATM   19  C           1     -21.768  -3.775 -11.261  0.00  0.00     0.010 A 
BRANCH  17  20
HETATM   20  O           1     -24.353  -2.225 -13.326  0.00  0.00    -0.361 OA
HETATM   21  H           1     -23.720  -1.585 -13.690  0.00  0.00     0.217 HD
ENDBRANCH  17  20
ENDBRANCH  13  14
ENDBRANCH   1  13
BRANCH   1  22
HETATM   22  N           1     -20.783  -3.447  -7.328  0.00  0.00    -0.066 N 
HETATM   23  H           1     -19.985  -4.039  -7.651  0.00  0.00     0.275 HD
HETATM   24  H           1     -20.753  -3.361  -6.287  0.00  0.00     0.275 HD
HETATM   25  H           1     -20.710  -2.499  -7.759  0.00  0.00     0.275 HD
ENDBRANCH   1  22
TORSDOF 8
ENDMDL
MODEL 6
REMARK VINA RESULT:      -6.7      2.673      8.115
REMARK  8 active torsions:
REMARK  status: ('A' for Active; 'I' for Inactive)
REMARK    1  A    between atoms: C_5  and  C_10 
REMARK    2  A    between atoms: C_5  and  C_17 
REMARK    3  A    between atoms: C_5  and  N_19 
REMARK    4  A    between atoms: C_6  and  C_23 
REMARK       I    between atoms: C_10  and  N_13 
REMARK    5  A    between atoms: C_11  and  O_24 
REMARK    6  A    between atoms: N_13  and  C_23 
REMARK    7  A    between atoms: C_17  and  C_21 
REMARK    8  A    between atoms: C_22  and  C_23 
ROOT
HETATM    1  C           1     -20.371  -7.702  -4.788  0.00  0.00     0.278 C 
ENDROOT
BRANCH   1   2
HETATM    2  C           1     -20.381  -8.370  -3.434  0.00  0.00     0.249 C 
HETATM    3  N           1     -21.546  -8.454  -2.720  0.00  0.00    -0.344 N 
HETATM    4  H           1     -22.401  -8.069  -3.100  0.00  0.00     0.163 HD
HETATM    5  O           1     -19.360  -8.830  -2.980  0.00  0.00    -0.271 OA
BRANCH   3   6
HETATM    6  C           1     -21.555  -9.094  -1.420  0.00  0.00     0.189 C 
BRANCH   6   7
HETATM    7  C           1     -22.328  -8.229  -0.432  0.00  0.00     0.010 C 
HETATM    8  C           1     -22.364  -6.792  -0.934  0.00  0.00     0.012 C 
HETATM    9  C           1     -21.640  -8.274   0.926  0.00  0.00     0.012 C 
ENDBRANCH   6   7
BRANCH   6  10
HETATM   10  C           1     -22.217 -10.445  -1.529  0.00  0.00     0.197 C 
HETATM   11  O           1     -23.402 -10.592  -1.158  0.00  0.00    -0.646 OA
HETATM   12  O           1     -21.581 -11.418  -1.991  0.00  0.00    -0.646 OA
ENDBRANCH   6  10
ENDBRANCH   3   6
ENDBRANCH   1   2
BRANCH   1  13
HETATM   13  C           1     -21.047  -6.341  -4.688  0.00  0.00     0.081 C 
BRANCH  13  14
HETATM   14  C           1     -20.928  -5.628  -5.999  0.00  0.00    -0.056 A 
HETATM   15  C           1     -22.075  -5.186  -6.658  0.00  0.00     0.010 A 
HETATM   16  C           1     -21.965  -4.522  -7.879  0.00  0.00     0.037 A 
HETATM   17  C           1     -20.708  -4.297  -8.441  0.00  0.00     0.065 A 
HETATM   18  C           1     -19.561  -4.739  -7.781  0.00  0.00     0.037 A 
HETATM   19  C           1     -19.671  -5.404  -6.560  0.00  0.00     0.010 A 
BRANCH  17  20
HETATM   20  O           1     -20.601  -3.652  -9.627  0.00  0.00    -0.361 OA
HETATM   21  H           1     -19.975  -4.145 -10.183  0.00  0.00     0.217 HD
ENDBRANCH  17  20
ENDBRANCH  13  14
ENDBRANCH   1  13
BRANCH   1  22
HETATM   22  N           1     -21.113  -8.557  -5.772  0.00  0.00    -0.066 N 
HETATM   23  H           1     -20.499  -9.343  -6.083  0.00  0.00     0.275 HD
HETATM   24  H           1     -21.385  -7.979  -6.599  0.00  0.00     0.275 HD
HETATM   25  H           1     -21.972  -8.945  -5.320  0.00  0.00     0.275 HD
ENDBRANCH   1  22
TORSDOF 8
ENDMDL
MODEL 7
REMARK VINA RESULT:      -6.7      2.775      7.591
REMARK  8 active torsions:
REMARK  status: ('A' for Active; 'I' for Inactive)
REMARK    1  A    between atoms: C_5  and  C_10 
REMARK    2  A    between atoms: C_5  and  C_17 
REMARK    3  A    between atoms: C_5  and  N_19 
REMARK    4  A    between atoms: C_6  and  C_23 
REMARK       I    between atoms: C_10  and  N_13 
REMARK    5  A    between atoms: C_11  and  O_24 
REMARK    6  A    between atoms: N_13  and  C_23 
REMARK    7  A    between atoms: C_17  and  C_21 
REMARK    8  A    between atoms: C_22  and  C_23 
ROOT
HETATM    1  C           1     -21.275  -6.177  -5.504  0.00  0.00     0.278 C 
ENDROOT
BRANCH   1   2
HETATM    2  C           1     -20.269  -7.300  -5.545  0.00  0.00     0.249 C 
HETATM    3  N           1     -20.238  -8.230  -4.539  0.00  0.00    -0.344 N 
HETATM    4  H           1     -20.891  -8.164  -3.769  0.00  0.00     0.163 HD
HETATM    5  O           1     -19.488  -7.380  -6.464  0.00  0.00    -0.271 OA
BRANCH   3   6
HETATM    6  C           1     -19.271  -9.308  -4.578  0.00  0.00     0.189 C 
BRANCH   6   7
HETATM    7  C           1     -18.878  -9.691  -3.157  0.00  0.00     0.010 C 
HETATM    8  C           1     -19.663  -8.842  -2.166  0.00  0.00     0.012 C 
HETATM    9  C           1     -17.387  -9.451  -2.961  0.00  0.00     0.012 C 
ENDBRANCH   6   7
BRANCH   6  10
HETATM   10  C           1     -19.877 -10.503  -5.271  0.00  0.00     0.197 C 
HETATM   11  O           1     -20.812 -11.133  -4.728  0.00  0.00    -0.646 OA
HETATM   12  O           1     -19.446 -10.865  -6.388  0.00  0.00    -0.646 OA
ENDBRANCH   6  10
ENDBRANCH   3   6
ENDBRANCH   1   2
BRANCH   1  13
HETATM   13  C           1     -20.605  -4.877  -5.929  0.00  0.00     0.081 C 
BRANCH  13  14
HETATM   14  C           1     -21.055  -4.511  -7.309  0.00  0.00    -0.056 A 
HETATM   15  C           1     -20.133  -4.472  -8.354  0.00  0.00     0.010 A 
HETATM   16  C           1     -20.551  -4.131  -9.640  0.00  0.00     0.037 A 
HETATM   17  C           1     -21.892  -3.830  -9.881  0.00  0.00     0.065 A 
HETATM   18  C           1     -22.813  -3.869  -8.835  0.00  0.00     0.037 A 
HETATM   19  C           1     -22.395  -4.210  -7.548  0.00  0.00     0.010 A 
BRANCH  17  20
HETATM   20  O           1     -22.298  -3.499 -11.130  0.00  0.00    -0.361 OA
HETATM   21  H           1     -21.646  -3.847 -11.760  0.00  0.00     0.217 HD
ENDBRANCH  17  20
ENDBRANCH  13  14
ENDBRANCH   1  13
BRANCH   1  22
HETATM   22  N           1     -21.807  -6.032  -4.109  0.00  0.00    -0.066 N 
HETATM   23  H           1     -21.021  -5.800  -3.460  0.00  0.00     0.275 HD
HETATM   24  H           1     -22.251  -6.930  -3.811  0.00  0.00     0.275 HD
HETATM   25  H           1     -22.517  -5.267  -4.083  0.00  0.00     0.275 HD
ENDBRANCH   1  22
TORSDOF 8
ENDMDL
MODEL 8
REMARK VINA RESULT:      -6.4      2.098      2.748
REMARK  8 active torsions:
REMARK  status: ('A' for Active; 'I' for Inactive)
REMARK    1  A    between atoms: C_5  and  C_10 
REMARK    2  A    between atoms: C_5  and  C_17 
REMARK    3  A    between atoms: C_5  and  N_19 
REMARK    4  A    between atoms: C_6  and  C_23 
REMARK       I    between atoms: C_10  and  N_13 
REMARK    5  A    between atoms: C_11  and  O_24 
REMARK    6  A    between atoms: N_13  and  C_23 
REMARK    7  A    between atoms: C_17  and  C_21 
REMARK    8  A    between atoms: C_22  and  C_23 
ROOT
HETATM    1  C           1     -21.810  -5.591  -5.351  0.00  0.00     0.278 C 
ENDROOT
BRANCH   1   2
HETATM    2  C           1     -21.561  -5.680  -6.837  0.00  0.00     0.249 C 
HETATM    3  N           1     -22.016  -4.692  -7.669  0.00  0.00    -0.344 N 
HETATM    4  H           1     -22.521  -3.902  -7.287  0.00  0.00     0.163 HD
HETATM    5  O           1     -20.959  -6.623  -7.293  0.00  0.00    -0.271 OA
BRANCH   3   6
HETATM    6  C           1     -21.777  -4.778  -9.095  0.00  0.00     0.189 C 
BRANCH   6   7
HETATM    7  C           1     -22.932  -4.126  -9.845  0.00  0.00     0.010 C 
HETATM    8  C           1     -23.995  -3.677  -8.851  0.00  0.00     0.012 C 
HETATM    9  C           1     -23.538  -5.133 -10.814  0.00  0.00     0.012 C 
ENDBRANCH   6   7
BRANCH   6  10
HETATM   10  C           1     -20.492  -4.064  -9.434  0.00  0.00     0.197 C 
HETATM   11  O           1     -19.675  -3.786  -8.529  0.00  0.00    -0.646 OA
HETATM   12  O           1     -20.243  -3.751 -10.618  0.00  0.00    -0.646 OA
ENDBRANCH   6  10
ENDBRANCH   3   6
ENDBRANCH   1   2
BRANCH   1  13
HETATM   13  C           1     -20.678  -6.283  -4.603  0.00  0.00     0.081 C 
BRANCH  13  14
HETATM   14  C           1     -21.203  -6.855  -3.323  0.00  0.00    -0.056 A 
HETATM   15  C           1     -21.128  -8.229  -3.092  0.00  0.00     0.010 A 
HETATM   16  C           1     -21.617  -8.763  -1.900  0.00  0.00     0.037 A 
HETATM   17  C           1     -22.179  -7.923  -0.938  0.00  0.00     0.065 A 
HETATM   18  C           1     -22.253  -6.550  -1.169  0.00  0.00     0.037 A 
HETATM   19  C           1     -21.765  -6.015  -2.362  0.00  0.00     0.010 A 
BRANCH  17  20
HETATM   20  O           1     -22.653  -8.442   0.220  0.00  0.00    -0.361 OA
HETATM   21  H           1     -22.805  -7.708   0.838  0.00  0.00     0.217 HD
ENDBRANCH  17  20
ENDBRANCH  13  14
ENDBRANCH   1  13
BRANCH   1  22
HETATM   22  N           1     -23.111  -6.262  -5.022  0.00  0.00    -0.066 N 
HETATM   23  H           1     -23.396  -6.877  -5.817  0.00  0.00     0.275 HD
HETATM   24  H           1     -23.845  -5.537  -4.860  0.00  0.00     0.275 HD
HETATM   25  H           1     -22.996  -6.840  -4.159  0.00  0.00     0.275 HD
ENDBRANCH   1  22
TORSDOF 8
ENDMDL
MODEL 9
REMARK VINA RESULT:      -6.2     14.439     17.452
REMARK  8 active torsions:
REMARK  status: ('A' for Active; 'I' for Inactive)
REMARK    1  A    between atoms: C_5  and  C_10 
REMARK    2  A    between atoms: C_5  and  C_17 
REMARK    3  A    between atoms: C_5  and  N_19 
REMARK    4  A    between atoms: C_6  and  C_23 
REMARK       I    between atoms: C_10  and  N_13 
REMARK    5  A    between atoms: C_11  and  O_24 
REMARK    6  A    between atoms: N_13  and  C_23 
REMARK    7  A    between atoms: C_17  and  C_21 
REMARK    8  A    between atoms: C_22  and  C_23 
ROOT
HETATM    1  C           1     -22.751  10.973 -12.845  0.00  0.00     0.278 C 
ENDROOT
BRANCH   1   2
HETATM    2  C           1     -22.552  11.465 -14.258  0.00  0.00     0.249 C 
HETATM    3  N           1     -21.486  11.021 -14.994  0.00  0.00    -0.344 N 
HETATM    4  H           1     -20.831  10.363 -14.590  0.00  0.00     0.163 HD
HETATM    5  O           1     -23.333  12.250 -14.741  0.00  0.00    -0.271 OA
BRANCH   3   6
HETATM    6  C           1     -21.294  11.493 -16.350  0.00  0.00     0.189 C 
BRANCH   6   7
HETATM    7  C           1     -19.806  11.676 -16.620  0.00  0.00     0.010 C 
HETATM    8  C           1     -19.148  12.338 -15.416  0.00  0.00     0.012 C 
HETATM    9  C           1     -19.619  12.557 -17.848  0.00  0.00     0.012 C 
ENDBRANCH   6   7
BRANCH   6  10
HETATM   10  C           1     -21.860  10.484 -17.319  0.00  0.00     0.197 C 
HETATM   11  O           1     -21.400   9.321 -17.348  0.00  0.00    -0.646 OA
HETATM   12  O           1     -22.788  10.809 -18.090  0.00  0.00    -0.646 OA
ENDBRANCH   6  10
ENDBRANCH   3   6
ENDBRANCH   1   2
BRANCH   1  13
HETATM   13  C           1     -24.237  10.975 -12.511  0.00  0.00     0.081 C 
BRANCH  13  14
HETATM   14  C           1     -24.635   9.626 -11.997  0.00  0.00    -0.056 A 
HETATM   15  C           1     -23.856   8.509 -12.298  0.00  0.00     0.010 A 
HETATM   16  C           1     -24.225   7.252 -11.820  0.00  0.00     0.037 A 
HETATM   17  C           1     -25.373   7.112 -11.039  0.00  0.00     0.065 A 
HETATM   18  C           1     -26.151   8.230 -10.739  0.00  0.00     0.037 A 
HETATM   19  C           1     -25.782   9.487 -11.217  0.00  0.00     0.010 A 
BRANCH  17  20
HETATM   20  O           1     -25.732   5.891 -10.575  0.00  0.00    -0.361 OA
HETATM   21  H           1     -25.171   5.684  -9.810  0.00  0.00     0.217 HD
ENDBRANCH  17  20
ENDBRANCH  13  14
ENDBRANCH   1  13
BRANCH   1  22
HETATM   22  N           1     -22.025  11.878 -11.894  0.00  0.00    -0.066 N 
HETATM   23  H           1     -20.995  11.733 -11.995  0.00  0.00     0.275 HD
HETATM   24  H           1     -22.314  11.657 -10.915  0.00  0.00     0.275 HD
HETATM   25  H           1     -22.259  12.873 -12.111  0.00  0.00     0.275 HD
ENDBRANCH   1  22
TORSDOF 8
ENDMDL
