MODEL 1
REMARK VINA RESULT:      -6.5      0.000      0.000
REMARK  8 active torsions:
REMARK  status: ('A' for Active; 'I' for Inactive)
REMARK    1  A    between atoms: C_4  and  C_16 
REMARK    2  A    between atoms: N_6  and  C_16 
REMARK       I    between atoms: N_6  and  C_13 
REMARK    3  A    between atoms: C_10  and  C_11 
REMARK    4  A    between atoms: C_11  and  C_12 
REMARK    5  A    between atoms: C_12  and  C_13 
REMARK    6  A    between atoms: C_12  and  N_25 
REMARK    7  A    between atoms: C_16  and  C_17 
REMARK    8  A    between atoms: C_17  and  C_18 
ROOT
HETATM    1  N           1     -22.828  -3.272 -10.136  0.00  0.00    -0.344 N 
HETATM    2  H           1     -23.215  -2.380  -9.854  0.00  0.00     0.163 HD
HETATM    3  C           1     -23.472  -4.032 -11.075  0.00  0.00     0.249 C 
HETATM    4  O           1     -24.300  -4.842 -10.733  0.00  0.00    -0.271 OA
ENDROOT
BRANCH   1   5
HETATM    5  C           1     -21.591  -3.744  -9.546  0.00  0.00     0.191 C 
BRANCH   5   6
HETATM    6  C           1     -20.511  -3.777 -10.601  0.00  0.00     0.197 C 
HETATM    7  O           1     -19.940  -4.854 -10.876  0.00  0.00    -0.646 OA
HETATM    8  O           1     -20.188  -2.727 -11.197  0.00  0.00    -0.646 OA
ENDBRANCH   5   6
BRANCH   5   9
HETATM    9  C           1     -21.798  -5.146  -8.988  0.00  0.00     0.094 C 
BRANCH   9  10
HETATM   10  C           1     -21.191  -5.234  -7.622  0.00  0.00     0.028 A 
HETATM   11  C           1     -20.832  -4.151  -6.855  0.00  0.00     0.114 A 
HETATM   12  N           1     -20.327  -4.686  -5.702  0.00  0.00    -0.360 N 
HETATM   13  H           1     -19.952  -4.148  -4.881  0.00  0.00     0.166 HD
HETATM   14  C           1     -20.398  -6.045  -5.814  0.00  0.00     0.180 A 
HETATM   15  N           1     -20.917  -6.405  -6.965  0.00  0.00    -0.354 N 
ATOM     16  HN          1     -21.081  -7.355  -7.299  1.00  0.00     0.166 HD
ENDBRANCH   9  10
ENDBRANCH   5   9
ENDBRANCH   1   5
BRANCH   3  17
HETATM   17  C           1     -23.150  -3.856 -12.539  0.00  0.00     0.284 C 
BRANCH  17  18
HETATM   18  C           1     -23.122  -2.371 -12.878  0.00  0.00     0.155 C 
BRANCH  18  19
HETATM   19  C           1     -23.416  -2.184 -14.347  0.00  0.00     0.175 C 
HETATM   20  O           1     -24.402  -1.503 -14.704  0.00  0.00    -0.648 OA
HETATM   21  O           1     -22.675  -2.710 -15.205  0.00  0.00    -0.648 OA
ENDBRANCH  18  19
ENDBRANCH  17  18
BRANCH  17  22
HETATM   22  N           1     -24.200  -4.536 -13.366  0.00  0.00    -0.066 N 
HETATM   23  H           1     -25.145  -4.203 -13.074  0.00  0.00     0.275 HD
HETATM   24  H           1     -24.048  -4.310 -14.376  0.00  0.00     0.275 HD
HETATM   25  H           1     -24.137  -5.570 -13.228  0.00  0.00     0.275 HD
ENDBRANCH  17  22
ENDBRANCH   3  17
TORSDOF 8
ENDMDL
MODEL 2
REMARK VINA RESULT:      -6.4      2.636      3.999
REMARK  8 active torsions:
REMARK  status: ('A' for Active; 'I' for Inactive)
REMARK    1  A    between atoms: C_4  and  C_16 
REMARK    2  A    between atoms: N_6  and  C_16 
REMARK       I    between atoms: N_6  and  C_13 
REMARK    3  A    between atoms: C_10  and  C_11 
REMARK    4  A    between atoms: C_11  and  C_12 
REMARK    5  A    between atoms: C_12  and  C_13 
REMARK    6  A    between atoms: C_12  and  N_25 
REMARK    7  A    between atoms: C_16  and  C_17 
REMARK    8  A    between atoms: C_17  and  C_18 
ROOT
HETATM    1  N           1     -21.313  -5.613  -8.102  0.00  0.00    -0.344 N 
HETATM    2  H           1     -20.904  -6.395  -8.598  0.00  0.00     0.163 HD
HETATM    3  C           1     -21.902  -4.592  -8.798  0.00  0.00     0.249 C 
HETATM    4  O           1     -21.245  -3.639  -9.143  0.00  0.00    -0.271 OA
ENDROOT
BRANCH   1   5
HETATM    5  C           1     -21.275  -5.575  -6.653  0.00  0.00     0.191 C 
BRANCH   5   6
HETATM    6  C           1     -20.011  -4.886  -6.200  0.00  0.00     0.197 C 
HETATM    7  O           1     -19.012  -4.857  -6.952  0.00  0.00    -0.646 OA
HETATM    8  O           1     -19.962  -4.345  -5.074  0.00  0.00    -0.646 OA
ENDBRANCH   5   6
BRANCH   5   9
HETATM    9  C           1     -21.302  -6.997  -6.108  0.00  0.00     0.094 C 
BRANCH   9  10
HETATM   10  C           1     -21.391  -6.958  -4.614  0.00  0.00     0.028 A 
HETATM   11  C           1     -20.648  -7.744  -3.766  0.00  0.00     0.114 A 
HETATM   12  N           1     -21.045  -7.383  -2.508  0.00  0.00    -0.360 N 
HETATM   13  H           1     -20.686  -7.781  -1.605  0.00  0.00     0.166 HD
HETATM   14  C           1     -21.996  -6.412  -2.641  0.00  0.00     0.180 A 
HETATM   15  N           1     -22.225  -6.134  -3.904  0.00  0.00    -0.354 N 
ATOM     16  HN          1     -22.884  -5.451  -4.277  1.00  0.00     0.166 HD
ENDBRANCH   9  10
ENDBRANCH   5   9
ENDBRANCH   1   5
BRANCH   3  17
HETATM   17  C           1     -23.371  -4.659  -9.137  0.00  0.00     0.284 C 
BRANCH  17  18
HETATM   18  C           1     -23.540  -4.781 -10.646  0.00  0.00     0.155 C 
BRANCH  18  19
HETATM   19  C           1     -24.008  -3.461 -11.209  0.00  0.00     0.175 C 
HETATM   20  O           1     -23.177  -2.657 -11.685  0.00  0.00    -0.648 OA
HETATM   21  O           1     -25.223  -3.172 -11.198  0.00  0.00    -0.648 OA
ENDBRANCH  18  19
ENDBRANCH  17  18
BRANCH  17  22
HETATM   22  N           1     -24.050  -3.410  -8.659  0.00  0.00    -0.066 N 
HETATM   23  H           1     -24.174  -2.751  -9.460  0.00  0.00     0.275 HD
HETATM   24  H           1     -24.987  -3.653  -8.261  0.00  0.00     0.275 HD
HETATM   25  H           1     -23.466  -2.955  -7.921  0.00  0.00     0.275 HD
ENDBRANCH  17  22
ENDBRANCH   3  17
TORSDOF 8
ENDMDL
MODEL 3
REMARK VINA RESULT:      -6.4      2.680      6.860
REMARK  8 active torsions:
REMARK  status: ('A' for Active; 'I' for Inactive)
REMARK    1  A    between atoms: C_4  and  C_16 
REMARK    2  A    between atoms: N_6  and  C_16 
REMARK       I    between atoms: N_6  and  C_13 
REMARK    3  A    between atoms: C_10  and  C_11 
REMARK    4  A    between atoms: C_11  and  C_12 
REMARK    5  A    between atoms: C_12  and  C_13 
REMARK    6  A    between atoms: C_12  and  N_25 
REMARK    7  A    between atoms: C_16  and  C_17 
REMARK    8  A    between atoms: C_17  and  C_18 
ROOT
HETATM    1  N           1     -22.991  -3.975  -7.961  0.00  0.00    -0.344 N 
HETATM    2  H           1     -23.727  -4.314  -7.355  0.00  0.00     0.163 HD
HETATM    3  C           1     -21.690  -3.990  -7.533  0.00  0.00     0.249 C 
HETATM    4  O           1     -21.235  -3.035  -6.951  0.00  0.00    -0.271 OA
ENDROOT
BRANCH   1   5
HETATM    5  C           1     -23.313  -3.475  -9.283  0.00  0.00     0.191 C 
BRANCH   5   6
HETATM    6  C           1     -24.743  -3.825  -9.619  0.00  0.00     0.197 C 
HETATM    7  O           1     -25.590  -2.918  -9.761  0.00  0.00    -0.646 OA
HETATM    8  O           1     -25.078  -5.021  -9.753  0.00  0.00    -0.646 OA
ENDBRANCH   5   6
BRANCH   5   9
HETATM    9  C           1     -22.382  -4.111 -10.307  0.00  0.00     0.094 C 
BRANCH   9  10
HETATM   10  C           1     -22.809  -3.713 -11.686  0.00  0.00     0.028 A 
HETATM   11  C           1     -22.533  -2.500 -12.270  0.00  0.00     0.114 A 
HETATM   12  N           1     -23.103  -2.566 -13.511  0.00  0.00    -0.360 N 
HETATM   13  H           1     -23.092  -1.810 -14.241  0.00  0.00     0.166 HD
HETATM   14  C           1     -23.691  -3.793 -13.628  0.00  0.00     0.180 A 
HETATM   15  N           1     -23.529  -4.508 -12.539  0.00  0.00    -0.354 N 
ATOM     16  HN          1     -23.867  -5.455 -12.364  1.00  0.00     0.166 HD
ENDBRANCH   9  10
ENDBRANCH   5   9
ENDBRANCH   1   5
BRANCH   3  17
HETATM   17  C           1     -20.826  -5.201  -7.788  0.00  0.00     0.284 C 
BRANCH  17  18
HETATM   18  C           1     -21.393  -6.398  -7.034  0.00  0.00     0.155 C 
BRANCH  18  19
HETATM   19  C           1     -20.549  -6.668  -5.812  0.00  0.00     0.175 C 
HETATM   20  O           1     -19.722  -7.606  -5.820  0.00  0.00    -0.648 OA
HETATM   21  O           1     -20.677  -5.957  -4.793  0.00  0.00    -0.648 OA
ENDBRANCH  18  19
ENDBRANCH  17  18
BRANCH  17  22
HETATM   22  N           1     -19.431  -4.927  -7.311  0.00  0.00    -0.066 N 
HETATM   23  H           1     -19.396  -3.988  -6.855  0.00  0.00     0.275 HD
HETATM   24  H           1     -19.149  -5.659  -6.620  0.00  0.00     0.275 HD
HETATM   25  H           1     -18.774  -4.944  -8.124  0.00  0.00     0.275 HD
ENDBRANCH  17  22
ENDBRANCH   3  17
TORSDOF 8
ENDMDL
MODEL 4
REMARK VINA RESULT:      -6.4      2.294      6.395
REMARK  8 active torsions:
REMARK  status: ('A' for Active; 'I' for Inactive)
REMARK    1  A    between atoms: C_4  and  C_16 
REMARK    2  A    between atoms: N_6  and  C_16 
REMARK       I    between atoms: N_6  and  C_13 
REMARK    3  A    between atoms: C_10  and  C_11 
REMARK    4  A    between atoms: C_11  and  C_12 
REMARK    5  A    between atoms: C_12  and  C_13 
REMARK    6  A    between atoms: C_12  and  N_25 
REMARK    7  A    between atoms: C_16  and  C_17 
REMARK    8  A    between atoms: C_17  and  C_18 
ROOT
HETATM    1  N           1     -22.905  -5.068 -10.735  0.00  0.00    -0.344 N 
HETATM    2  H           1     -22.781  -6.071 -10.797  0.00  0.00     0.163 HD
HETATM    3  C           1     -23.596  -4.526  -9.685  0.00  0.00     0.249 C 
HETATM    4  O           1     -24.790  -4.363  -9.769  0.00  0.00    -0.271 OA
ENDROOT
BRANCH   1   5
HETATM    5  C           1     -22.348  -4.205 -11.759  0.00  0.00     0.191 C 
BRANCH   5   6
HETATM    6  C           1     -20.961  -3.770 -11.350  0.00  0.00     0.197 C 
HETATM    7  O           1     -20.055  -4.620 -11.215  0.00  0.00    -0.646 OA
HETATM    8  O           1     -20.720  -2.561 -11.147  0.00  0.00    -0.646 OA
ENDBRANCH   5   6
BRANCH   5   9
HETATM    9  C           1     -23.235  -2.979 -11.926  0.00  0.00     0.094 C 
BRANCH   9  10
HETATM   10  C           1     -23.210  -2.536 -13.356  0.00  0.00     0.028 A 
HETATM   11  C           1     -23.999  -1.538 -13.879  0.00  0.00     0.114 A 
HETATM   12  N           1     -23.653  -1.468 -15.200  0.00  0.00    -0.360 N 
HETATM   13  H           1     -24.056  -0.812 -15.914  0.00  0.00     0.166 HD
HETATM   14  C           1     -22.687  -2.408 -15.422  0.00  0.00     0.180 A 
HETATM   15  N           1     -22.400  -3.069 -14.324  0.00  0.00    -0.354 N 
ATOM     16  HN          1     -21.718  -3.820 -14.214  1.00  0.00     0.166 HD
ENDBRANCH   9  10
ENDBRANCH   5   9
ENDBRANCH   1   5
BRANCH   3  17
HETATM   17  C           1     -22.867  -4.134  -8.423  0.00  0.00     0.284 C 
BRANCH  17  18
HETATM   18  C           1     -21.665  -5.048  -8.226  0.00  0.00     0.155 C 
BRANCH  18  19
HETATM   19  C           1     -21.349  -5.155  -6.754  0.00  0.00     0.175 C 
HETATM   20  O           1     -21.633  -6.200  -6.129  0.00  0.00    -0.648 OA
HETATM   21  O           1     -20.806  -4.199  -6.160  0.00  0.00    -0.648 OA
ENDBRANCH  18  19
ENDBRANCH  17  18
BRANCH  17  22
HETATM   22  N           1     -23.793  -4.268  -7.251  0.00  0.00    -0.066 N 
HETATM   23  H           1     -23.374  -4.916  -6.547  0.00  0.00     0.275 HD
HETATM   24  H           1     -23.941  -3.329  -6.814  0.00  0.00     0.275 HD
HETATM   25  H           1     -24.711  -4.651  -7.573  0.00  0.00     0.275 HD
ENDBRANCH  17  22
ENDBRANCH   3  17
TORSDOF 8
ENDMDL
MODEL 5
REMARK VINA RESULT:      -5.9      3.615      7.553
REMARK  8 active torsions:
REMARK  status: ('A' for Active; 'I' for Inactive)
REMARK    1  A    between atoms: C_4  and  C_16 
REMARK    2  A    between atoms: N_6  and  C_16 
REMARK       I    between atoms: N_6  and  C_13 
REMARK    3  A    between atoms: C_10  and  C_11 
REMARK    4  A    between atoms: C_11  and  C_12 
REMARK    5  A    between atoms: C_12  and  C_13 
REMARK    6  A    between atoms: C_12  and  N_25 
REMARK    7  A    between atoms: C_16  and  C_17 
REMARK    8  A    between atoms: C_17  and  C_18 
ROOT
HETATM    1  N           1     -22.267  -4.845  -6.421  0.00  0.00    -0.344 N 
HETATM    2  H           1     -23.032  -4.267  -6.096  0.00  0.00     0.163 HD
HETATM    3  C           1     -21.514  -5.554  -5.525  0.00  0.00     0.249 C 
HETATM    4  O           1     -20.529  -5.055  -5.035  0.00  0.00    -0.271 OA
ENDROOT
BRANCH   1   5
HETATM    5  C           1     -21.969  -4.921  -7.839  0.00  0.00     0.191 C 
BRANCH   5   6
HETATM    6  C           1     -20.473  -4.918  -8.039  0.00  0.00     0.197 C 
HETATM    7  O           1     -19.851  -6.000  -8.111  0.00  0.00    -0.646 OA
HETATM    8  O           1     -19.857  -3.834  -8.132  0.00  0.00    -0.646 OA
ENDBRANCH   5   6
BRANCH   5   9
HETATM    9  C           1     -22.579  -3.720  -8.550  0.00  0.00     0.094 C 
BRANCH   9  10
HETATM   10  C           1     -22.550  -3.948 -10.029  0.00  0.00     0.028 A 
HETATM   11  C           1     -23.395  -4.795 -10.706  0.00  0.00     0.114 A 
HETATM   12  N           1     -23.021  -4.696 -12.017  0.00  0.00    -0.360 N 
HETATM   13  H           1     -23.453  -5.208 -12.827  0.00  0.00     0.166 HD
HETATM   14  C           1     -21.983  -3.811 -12.082  0.00  0.00     0.180 A 
HETATM   15  N           1     -21.676  -3.343 -10.894  0.00  0.00    -0.354 N 
ATOM     16  HN          1     -20.943  -2.671 -10.664  1.00  0.00     0.166 HD
ENDBRANCH   9  10
ENDBRANCH   5   9
ENDBRANCH   1   5
BRANCH   3  17
HETATM   17  C           1     -21.915  -6.959  -5.147  0.00  0.00     0.284 C 
BRANCH  17  18
HETATM   18  C           1     -21.600  -7.199  -3.676  0.00  0.00     0.155 C 
BRANCH  18  19
HETATM   19  C           1     -21.032  -8.587  -3.503  0.00  0.00     0.175 C 
HETATM   20  O           1     -21.789  -9.581  -3.543  0.00  0.00    -0.648 OA
HETATM   21  O           1     -19.805  -8.742  -3.320  0.00  0.00    -0.648 OA
ENDBRANCH  18  19
ENDBRANCH  17  18
BRANCH  17  22
HETATM   22  N           1     -21.152  -7.939  -5.987  0.00  0.00    -0.066 N 
HETATM   23  H           1     -20.911  -7.500  -6.904  0.00  0.00     0.275 HD
HETATM   24  H           1     -20.272  -8.212  -5.491  0.00  0.00     0.275 HD
HETATM   25  H           1     -21.737  -8.789  -6.151  0.00  0.00     0.275 HD
ENDBRANCH  17  22
ENDBRANCH   3  17
TORSDOF 8
ENDMDL
MODEL 6
REMARK VINA RESULT:      -5.9      4.928      7.762
REMARK  8 active torsions:
REMARK  status: ('A' for Active; 'I' for Inactive)
REMARK    1  A    between atoms: C_4  and  C_16 
REMARK    2  A    between atoms: N_6  and  C_16 
REMARK       I    between atoms: N_6  and  C_13 
REMARK    3  A    between atoms: C_10  and  C_11 
REMARK    4  A    between atoms: C_11  and  C_12 
REMARK    5  A    between atoms: C_12  and  C_13 
REMARK    6  A    between atoms: C_12  and  N_25 
REMARK    7  A    between atoms: C_16  and  C_17 
REMARK    8  A    between atoms: C_17  and  C_18 
ROOT
HETATM    1  N           1     -21.504  -6.373  -3.265  0.00  0.00    -0.344 N 
HETATM    2  H           1     -21.358  -5.577  -2.656  0.00  0.00     0.163 HD
HETATM    3  C           1     -21.708  -6.181  -4.605  0.00  0.00     0.249 C 
HETATM    4  O           1     -22.829  -6.035  -5.030  0.00  0.00    -0.271 OA
ENDROOT
BRANCH   1   5
HETATM    5  C           1     -21.495  -7.715  -2.717  0.00  0.00     0.191 C 
BRANCH   5   6
HETATM    6  C           1     -21.862  -7.664  -1.254  0.00  0.00     0.197 C 
HETATM    7  O           1     -22.682  -6.814  -0.845  0.00  0.00    -0.646 OA
HETATM    8  O           1     -21.346  -8.472  -0.451  0.00  0.00    -0.646 OA
ENDBRANCH   5   6
BRANCH   5   9
HETATM    9  C           1     -20.104  -8.316  -2.871  0.00  0.00     0.094 C 
BRANCH   9  10
HETATM   10  C           1     -20.092  -9.257  -4.035  0.00  0.00     0.028 A 
HETATM   11  C           1     -19.008  -9.476  -4.852  0.00  0.00     0.114 A 
HETATM   12  N           1     -19.435 -10.396  -5.768  0.00  0.00    -0.360 N 
HETATM   13  H           1     -18.866 -10.800  -6.554  0.00  0.00     0.166 HD
HETATM   14  C           1     -20.736 -10.692  -5.478  0.00  0.00     0.180 A 
HETATM   15  N           1     -21.160 -10.018  -4.434  0.00  0.00    -0.354 N 
ATOM     16  HN          1     -22.087 -10.053  -4.009  1.00  0.00     0.166 HD
ENDBRANCH   9  10
ENDBRANCH   5   9
ENDBRANCH   1   5
BRANCH   3  17
HETATM   17  C           1     -20.533  -6.151  -5.551  0.00  0.00     0.284 C 
BRANCH  17  18
HETATM   18  C           1     -20.057  -4.715  -5.725  0.00  0.00     0.155 C 
BRANCH  18  19
HETATM   19  C           1     -20.503  -4.196  -7.070  0.00  0.00     0.175 C 
HETATM   20  O           1     -21.656  -3.733  -7.210  0.00  0.00    -0.648 OA
HETATM   21  O           1     -19.721  -4.230  -8.044  0.00  0.00    -0.648 OA
ENDBRANCH  18  19
ENDBRANCH  17  18
BRANCH  17  22
HETATM   22  N           1     -20.949  -6.704  -6.882  0.00  0.00    -0.066 N 
HETATM   23  H           1     -21.382  -7.645  -6.749  0.00  0.00     0.275 HD
HETATM   24  H           1     -21.646  -6.060  -7.323  0.00  0.00     0.275 HD
HETATM   25  H           1     -20.112  -6.789  -7.501  0.00  0.00     0.275 HD
ENDBRANCH  17  22
ENDBRANCH   3  17
TORSDOF 8
ENDMDL
MODEL 7
REMARK VINA RESULT:      -5.8      7.002      9.892
REMARK  8 active torsions:
REMARK  status: ('A' for Active; 'I' for Inactive)
REMARK    1  A    between atoms: C_4  and  C_16 
REMARK    2  A    between atoms: N_6  and  C_16 
REMARK       I    between atoms: N_6  and  C_13 
REMARK    3  A    between atoms: C_10  and  C_11 
REMARK    4  A    between atoms: C_11  and  C_12 
REMARK    5  A    between atoms: C_12  and  C_13 
REMARK    6  A    between atoms: C_12  and  N_25 
REMARK    7  A    between atoms: C_16  and  C_17 
REMARK    8  A    between atoms: C_17  and  C_18 
ROOT
HETATM    1  N           1     -21.127  -7.713  -1.953  0.00  0.00    -0.344 N 
HETATM    2  H           1     -20.127  -7.728  -1.793  0.00  0.00     0.163 HD
HETATM    3  C           1     -21.663  -6.829  -2.850  0.00  0.00     0.249 C 
HETATM    4  O           1     -22.011  -5.732  -2.483  0.00  0.00    -0.271 OA
ENDROOT
BRANCH   1   5
HETATM    5  C           1     -21.991  -8.628  -1.232  0.00  0.00     0.191 C 
BRANCH   5   6
HETATM    6  C           1     -22.329  -8.042   0.117  0.00  0.00     0.197 C 
HETATM    7  O           1     -21.508  -8.119   1.055  0.00  0.00    -0.646 OA
HETATM    8  O           1     -23.432  -7.480   0.295  0.00  0.00    -0.646 OA
ENDBRANCH   5   6
BRANCH   5   9
HETATM    9  C           1     -21.274  -9.958  -1.042  0.00  0.00     0.094 C 
BRANCH   9  10
HETATM   10  C           1     -22.274 -11.021  -0.710  0.00  0.00     0.028 A 
HETATM   11  C           1     -23.368 -11.334  -1.481  0.00  0.00     0.114 A 
HETATM   12  N           1     -23.996 -12.347  -0.811  0.00  0.00    -0.360 N 
HETATM   13  H           1     -24.875 -12.838  -1.110  0.00  0.00     0.166 HD
HETATM   14  C           1     -23.273 -12.602   0.319  0.00  0.00     0.180 A 
HETATM   15  N           1     -22.225 -11.815   0.407  0.00  0.00    -0.354 N 
ATOM     16  HN          1     -21.524 -11.798   1.148  1.00  0.00     0.166 HD
ENDBRANCH   9  10
ENDBRANCH   5   9
ENDBRANCH   1   5
BRANCH   3  17
HETATM   17  C           1     -21.819  -7.224  -4.299  0.00  0.00     0.284 C 
BRANCH  17  18
HETATM   18  C           1     -20.450  -7.256  -4.967  0.00  0.00     0.155 C 
BRANCH  18  19
HETATM   19  C           1     -20.360  -6.143  -5.983  0.00  0.00     0.175 C 
HETATM   20  O           1     -20.074  -4.983  -5.614  0.00  0.00    -0.648 OA
HETATM   21  O           1     -20.571  -6.381  -7.191  0.00  0.00    -0.648 OA
ENDBRANCH  18  19
ENDBRANCH  17  18
BRANCH  17  22
HETATM   22  N           1     -22.692  -6.224  -4.998  0.00  0.00    -0.066 N 
HETATM   23  H           1     -22.142  -5.358  -5.195  0.00  0.00     0.275 HD
HETATM   24  H           1     -23.034  -6.631  -5.899  0.00  0.00     0.275 HD
HETATM   25  H           1     -23.508  -5.989  -4.390  0.00  0.00     0.275 HD
ENDBRANCH  17  22
ENDBRANCH   3  17
TORSDOF 8
ENDMDL
MODEL 8
REMARK VINA RESULT:      -5.8      2.526      6.714
REMARK  8 active torsions:
REMARK  status: ('A' for Active; 'I' for Inactive)
REMARK    1  A    between atoms: C_4  and  C_16 
REMARK    2  A    between atoms: N_6  and  C_16 
REMARK       I    between atoms: N_6  and  C_13 
REMARK    3  A    between atoms: C_10  and  C_11 
REMARK    4  A    between atoms: C_11  and  C_12 
REMARK    5  A    between atoms: C_12  and  C_13 
REMARK    6  A    between atoms: C_12  and  N_25 
REMARK    7  A    between atoms: C_16  and  C_17 
REMARK    8  A    between atoms: C_17  and  C_18 
ROOT
HETATM    1  N           1     -22.288  -4.767  -8.464  0.00  0.00    -0.344 N 
HETATM    2  H           1     -23.077  -5.296  -8.116  0.00  0.00     0.163 HD
HETATM    3  C           1     -21.335  -4.305  -7.596  0.00  0.00     0.249 C 
HETATM    4  O           1     -21.455  -3.215  -7.091  0.00  0.00    -0.271 OA
ENDROOT
BRANCH   1   5
HETATM    5  C           1     -22.166  -4.498  -9.884  0.00  0.00     0.191 C 
BRANCH   5   6
HETATM    6  C           1     -20.721  -4.224 -10.222  0.00  0.00     0.197 C 
HETATM    7  O           1     -20.281  -3.055 -10.181  0.00  0.00    -0.646 OA
HETATM    8  O           1     -19.965  -5.166 -10.544  0.00  0.00    -0.646 OA
ENDBRANCH   5   6
BRANCH   5   9
HETATM    9  C           1     -23.011  -3.283 -10.244  0.00  0.00     0.094 C 
BRANCH   9  10
HETATM   10  C           1     -23.278  -3.279 -11.717  0.00  0.00     0.028 A 
HETATM   11  C           1     -23.729  -4.363 -12.432  0.00  0.00     0.114 A 
HETATM   12  N           1     -23.832  -3.919 -13.722  0.00  0.00    -0.360 N 
HETATM   13  H           1     -24.149  -4.483 -14.550  0.00  0.00     0.166 HD
HETATM   14  C           1     -23.445  -2.610 -13.737  0.00  0.00     0.180 A 
HETATM   15  N           1     -23.104  -2.196 -12.539  0.00  0.00    -0.354 N 
ATOM     16  HN          1     -22.780  -1.265 -12.274  1.00  0.00     0.166 HD
ENDBRANCH   9  10
ENDBRANCH   5   9
ENDBRANCH   1   5
BRANCH   3  17
HETATM   17  C           1     -20.135  -5.160  -7.269  0.00  0.00     0.284 C 
BRANCH  17  18
HETATM   18  C           1     -20.159  -5.526  -5.791  0.00  0.00     0.155 C 
BRANCH  18  19
HETATM   19  C           1     -21.284  -6.498  -5.531  0.00  0.00     0.175 C 
HETATM   20  O           1     -21.266  -7.629  -6.063  0.00  0.00    -0.648 OA
HETATM   21  O           1     -22.232  -6.173  -4.784  0.00  0.00    -0.648 OA
ENDBRANCH  18  19
ENDBRANCH  17  18
BRANCH  17  22
HETATM   22  N           1     -18.880  -4.396  -7.573  0.00  0.00    -0.066 N 
HETATM   23  H           1     -18.605  -3.831  -6.739  0.00  0.00     0.275 HD
HETATM   24  H           1     -18.113  -5.067  -7.808  0.00  0.00     0.275 HD
HETATM   25  H           1     -19.048  -3.760  -8.385  0.00  0.00     0.275 HD
ENDBRANCH  17  22
ENDBRANCH   3  17
TORSDOF 8
ENDMDL
MODEL 9
REMARK VINA RESULT:      -5.7      3.599      5.574
REMARK  8 active torsions:
REMARK  status: ('A' for Active; 'I' for Inactive)
REMARK    1  A    between atoms: C_4  and  C_16 
REMARK    2  A    between atoms: N_6  and  C_16 
REMARK       I    between atoms: N_6  and  C_13 
REMARK    3  A    between atoms: C_10  and  C_11 
REMARK    4  A    between atoms: C_11  and  C_12 
REMARK    5  A    between atoms: C_12  and  C_13 
REMARK    6  A    between atoms: C_12  and  N_25 
REMARK    7  A    between atoms: C_16  and  C_17 
REMARK    8  A    between atoms: C_17  and  C_18 
ROOT
HETATM    1  N           1     -20.539  -6.378  -6.758  0.00  0.00    -0.344 N 
HETATM    2  H           1     -19.686  -6.736  -7.171  0.00  0.00     0.163 HD
HETATM    3  C           1     -20.958  -5.107  -7.046  0.00  0.00     0.249 C 
HETATM    4  O           1     -20.596  -4.181  -6.360  0.00  0.00    -0.271 OA
ENDROOT
BRANCH   1   5
HETATM    5  C           1     -21.315  -7.212  -5.862  0.00  0.00     0.191 C 
BRANCH   5   6
HETATM    6  C           1     -22.094  -6.338  -4.909  0.00  0.00     0.197 C 
HETATM    7  O           1     -23.276  -6.028  -5.170  0.00  0.00    -0.646 OA
HETATM    8  O           1     -21.555  -5.923  -3.860  0.00  0.00    -0.646 OA
ENDBRANCH   5   6
BRANCH   5   9
HETATM    9  C           1     -20.379  -8.116  -5.071  0.00  0.00     0.094 C 
BRANCH   9  10
HETATM   10  C           1     -20.958  -9.495  -4.999  0.00  0.00     0.028 A 
HETATM   11  C           1     -21.713  -9.971  -3.953  0.00  0.00     0.114 A 
HETATM   12  N           1     -22.027 -11.256  -4.299  0.00  0.00    -0.360 N 
HETATM   13  H           1     -22.600 -11.930  -3.732  0.00  0.00     0.166 HD
HETATM   14  C           1     -21.461 -11.504  -5.517  0.00  0.00     0.180 A 
HETATM   15  N           1     -20.808 -10.456  -5.964  0.00  0.00    -0.354 N 
ATOM     16  HN          1     -20.297 -10.374  -6.843  1.00  0.00     0.166 HD
ENDBRANCH   9  10
ENDBRANCH   5   9
ENDBRANCH   1   5
BRANCH   3  17
HETATM   17  C           1     -21.872  -4.863  -8.223  0.00  0.00     0.284 C 
BRANCH  17  18
HETATM   18  C           1     -21.145  -4.022  -9.265  0.00  0.00     0.155 C 
BRANCH  18  19
HETATM   19  C           1     -22.000  -3.906 -10.503  0.00  0.00     0.175 C 
HETATM   20  O           1     -22.914  -4.734 -10.710  0.00  0.00    -0.648 OA
HETATM   21  O           1     -21.795  -2.984 -11.321  0.00  0.00    -0.648 OA
ENDBRANCH  18  19
ENDBRANCH  17  18
BRANCH  17  22
HETATM   22  N           1     -23.097  -4.132  -7.759  0.00  0.00    -0.066 N 
HETATM   23  H           1     -22.914  -3.104  -7.767  0.00  0.00     0.275 HD
HETATM   24  H           1     -23.895  -4.349  -8.400  0.00  0.00     0.275 HD
HETATM   25  H           1     -23.338  -4.436  -6.789  0.00  0.00     0.275 HD
ENDBRANCH  17  22
ENDBRANCH   3  17
TORSDOF 8
ENDMDL
