MODEL 1
REMARK VINA RESULT:      -7.7      0.000      0.000
REMARK  7 active torsions:
REMARK  status: ('A' for Active; 'I' for Inactive)
REMARK    1  A    between atoms: C_1  and  C_6 
REMARK    2  A    between atoms: C_1  and  C_13 
REMARK    3  A    between atoms: C_1  and  N_2 
REMARK    4  A    between atoms: N_4  and  C_17 
REMARK       I    between atoms: N_4  and  C_6 
REMARK    5  A    between atoms: C_11  and  C_13 
REMARK    6  A    between atoms: C_15  and  C_17 
REMARK    7  A    between atoms: C_17  and  C_19 
ROOT
HETATM    1  C           1     -21.060  -5.715  -6.835  0.00  0.00     0.278 C 
ENDROOT
BRANCH   1   2
HETATM    2  C           1     -21.617  -4.591  -7.674  0.00  0.00     0.249 C 
HETATM    3  N           1     -22.116  -4.851  -8.921  0.00  0.00    -0.344 N 
HETATM    4  H           1     -22.112  -5.796  -9.281  0.00  0.00     0.163 HD
HETATM    5  O           1     -21.621  -3.461  -7.245  0.00  0.00    -0.271 OA
BRANCH   3   6
HETATM    6  C           1     -22.650  -3.771  -9.728  0.00  0.00     0.189 C 
BRANCH   6   7
HETATM    7  C           1     -24.157  -3.847  -9.737  0.00  0.00     0.197 C 
HETATM    8  O           1     -24.835  -2.833  -9.464  0.00  0.00    -0.646 OA
HETATM    9  O           1     -24.728  -4.923 -10.017  0.00  0.00    -0.646 OA
ENDBRANCH   6   7
BRANCH   6  10
HETATM   10  C           1     -22.128  -3.895 -11.154  0.00  0.00     0.010 C 
HETATM   11  C           1     -20.607  -3.954 -11.136  0.00  0.00     0.012 C 
HETATM   12  C           1     -22.580  -2.688 -11.965  0.00  0.00     0.012 C 
ENDBRANCH   6  10
ENDBRANCH   3   6
ENDBRANCH   1   2
BRANCH   1  13
HETATM   13  C           1     -20.856  -5.230  -5.406  0.00  0.00     0.081 C 
BRANCH  13  14
HETATM   14  C           1     -21.146  -6.346  -4.453  0.00  0.00    -0.056 A 
HETATM   15  C           1     -21.294  -6.081  -3.091  0.00  0.00     0.007 A 
HETATM   16  C           1     -21.565  -7.121  -2.203  0.00  0.00     0.001 A 
HETATM   17  C           1     -21.689  -8.428  -2.675  0.00  0.00     0.000 A 
HETATM   18  C           1     -21.543  -8.693  -4.037  0.00  0.00     0.001 A 
HETATM   19  C           1     -21.271  -7.652  -4.925  0.00  0.00     0.007 A 
ENDBRANCH  13  14
ENDBRANCH   1  13
BRANCH   1  20
HETATM   20  N           1     -19.745  -6.160  -7.404  0.00  0.00    -0.066 N 
HETATM   21  H           1     -19.005  -6.090  -6.670  0.00  0.00     0.275 HD
HETATM   22  H           1     -19.824  -7.151  -7.726  0.00  0.00     0.275 HD
HETATM   23  H           1     -19.492  -5.548  -8.214  0.00  0.00     0.275 HD
ENDBRANCH   1  20
TORSDOF 7
ENDMDL
MODEL 2
REMARK VINA RESULT:      -7.3     13.089     15.073
REMARK  7 active torsions:
REMARK  status: ('A' for Active; 'I' for Inactive)
REMARK    1  A    between atoms: C_1  and  C_6 
REMARK    2  A    between atoms: C_1  and  C_13 
REMARK    3  A    between atoms: C_1  and  N_2 
REMARK    4  A    between atoms: N_4  and  C_17 
REMARK       I    between atoms: N_4  and  C_6 
REMARK    5  A    between atoms: C_11  and  C_13 
REMARK    6  A    between atoms: C_15  and  C_17 
REMARK    7  A    between atoms: C_17  and  C_19 
ROOT
HETATM    1  C           1     -35.678  -1.350 -10.938  0.00  0.00     0.278 C 
ENDROOT
BRANCH   1   2
HETATM    2  C           1     -36.238  -0.820 -12.235  0.00  0.00     0.249 C 
HETATM    3  N           1     -35.426  -0.691 -13.329  0.00  0.00    -0.344 N 
HETATM    4  H           1     -34.450  -0.951 -13.268  0.00  0.00     0.163 HD
HETATM    5  O           1     -37.404  -0.509 -12.308  0.00  0.00    -0.271 OA
BRANCH   3   6
HETATM    6  C           1     -35.964  -0.181 -14.576  0.00  0.00     0.189 C 
BRANCH   6   7
HETATM    7  C           1     -35.920  -1.265 -15.624  0.00  0.00     0.197 C 
HETATM    8  O           1     -34.984  -2.094 -15.627  0.00  0.00    -0.646 OA
HETATM    9  O           1     -36.819  -1.336 -16.489  0.00  0.00    -0.646 OA
ENDBRANCH   6   7
BRANCH   6  10
HETATM   10  C           1     -35.132   1.008 -15.040  0.00  0.00     0.010 C 
HETATM   11  C           1     -34.521   1.705 -13.832  0.00  0.00     0.012 C 
HETATM   12  C           1     -36.023   1.985 -15.793  0.00  0.00     0.012 C 
ENDBRANCH   6  10
ENDBRANCH   3   6
ENDBRANCH   1   2
BRANCH   1  13
HETATM   13  C           1     -36.095  -2.804 -10.760  0.00  0.00     0.081 C 
BRANCH  13  14
HETATM   14  C           1     -34.921  -3.695 -11.016  0.00  0.00    -0.056 A 
HETATM   15  C           1     -35.007  -5.060 -10.740  0.00  0.00     0.007 A 
HETATM   16  C           1     -33.913  -5.891 -10.979  0.00  0.00     0.001 A 
HETATM   17  C           1     -32.731  -5.357 -11.494  0.00  0.00     0.000 A 
HETATM   18  C           1     -32.644  -3.993 -11.771  0.00  0.00     0.001 A 
HETATM   19  C           1     -33.739  -3.162 -11.531  0.00  0.00     0.007 A 
ENDBRANCH  13  14
ENDBRANCH   1  13
BRANCH   1  20
HETATM   20  N           1     -36.208  -0.535  -9.795  0.00  0.00    -0.066 N 
HETATM   21  H           1     -36.141   0.481 -10.030  0.00  0.00     0.275 HD
HETATM   22  H           1     -37.207  -0.788  -9.621  0.00  0.00     0.275 HD
HETATM   23  H           1     -35.644  -0.732  -8.937  0.00  0.00     0.275 HD
ENDBRANCH   1  20
TORSDOF 7
ENDMDL
MODEL 3
REMARK VINA RESULT:      -7.2      2.596      7.291
REMARK  7 active torsions:
REMARK  status: ('A' for Active; 'I' for Inactive)
REMARK    1  A    between atoms: C_1  and  C_6 
REMARK    2  A    between atoms: C_1  and  C_13 
REMARK    3  A    between atoms: C_1  and  N_2 
REMARK    4  A    between atoms: N_4  and  C_17 
REMARK       I    between atoms: N_4  and  C_6 
REMARK    5  A    between atoms: C_11  and  C_13 
REMARK    6  A    between atoms: C_15  and  C_17 
REMARK    7  A    between atoms: C_17  and  C_19 
ROOT
HETATM    1  C           1     -22.276  -5.182  -6.837  0.00  0.00     0.278 C 
ENDROOT
BRANCH   1   2
HETATM    2  C           1     -21.329  -5.733  -5.799  0.00  0.00     0.249 C 
HETATM    3  N           1     -21.743  -6.730  -4.957  0.00  0.00    -0.344 N 
HETATM    4  H           1     -22.683  -7.097  -5.030  0.00  0.00     0.163 HD
HETATM    5  O           1     -20.207  -5.296  -5.711  0.00  0.00    -0.271 OA
BRANCH   3   6
HETATM    6  C           1     -20.834  -7.260  -3.959  0.00  0.00     0.189 C 
BRANCH   6   7
HETATM    7  C           1     -20.291  -8.587  -4.427  0.00  0.00     0.197 C 
HETATM    8  O           1     -19.059  -8.742  -4.571  0.00  0.00    -0.646 OA
HETATM    9  O           1     -21.072  -9.533  -4.670  0.00  0.00    -0.646 OA
ENDBRANCH   6   7
BRANCH   6  10
HETATM   10  C           1     -21.579  -7.452  -2.644  0.00  0.00     0.010 C 
HETATM   11  C           1     -22.153  -6.119  -2.183  0.00  0.00     0.012 C 
HETATM   12  C           1     -20.616  -7.981  -1.590  0.00  0.00     0.012 C 
ENDBRANCH   6  10
ENDBRANCH   3   6
ENDBRANCH   1   2
BRANCH   1  13
HETATM   13  C           1     -21.726  -3.869  -7.380  0.00  0.00     0.081 C 
BRANCH  13  14
HETATM   14  C           1     -21.658  -3.936  -8.873  0.00  0.00    -0.056 A 
HETATM   15  C           1     -20.438  -4.176  -9.507  0.00  0.00     0.007 A 
HETATM   16  C           1     -20.375  -4.238 -10.899  0.00  0.00     0.001 A 
HETATM   17  C           1     -21.531  -4.061 -11.658  0.00  0.00     0.000 A 
HETATM   18  C           1     -22.751  -3.822 -11.025  0.00  0.00     0.001 A 
HETATM   19  C           1     -22.814  -3.759  -9.633  0.00  0.00     0.007 A 
ENDBRANCH  13  14
ENDBRANCH   1  13
BRANCH   1  20
HETATM   20  N           1     -23.618  -4.940  -6.212  0.00  0.00    -0.066 N 
HETATM   21  H           1     -24.238  -5.763  -6.388  0.00  0.00     0.275 HD
HETATM   22  H           1     -23.502  -4.804  -5.183  0.00  0.00     0.275 HD
HETATM   23  H           1     -24.047  -4.084  -6.631  0.00  0.00     0.275 HD
ENDBRANCH   1  20
TORSDOF 7
ENDMDL
MODEL 4
REMARK VINA RESULT:      -7.1     12.763     15.606
REMARK  7 active torsions:
REMARK  status: ('A' for Active; 'I' for Inactive)
REMARK    1  A    between atoms: C_1  and  C_6 
REMARK    2  A    between atoms: C_1  and  C_13 
REMARK    3  A    between atoms: C_1  and  N_2 
REMARK    4  A    between atoms: N_4  and  C_17 
REMARK       I    between atoms: N_4  and  C_6 
REMARK    5  A    between atoms: C_11  and  C_13 
REMARK    6  A    between atoms: C_15  and  C_17 
REMARK    7  A    between atoms: C_17  and  C_19 
ROOT
HETATM    1  C           1     -36.684  -0.082 -12.141  0.00  0.00     0.278 C 
ENDROOT
BRANCH   1   2
HETATM    2  C           1     -35.478  -0.827 -12.658  0.00  0.00     0.249 C 
HETATM    3  N           1     -35.186  -2.075 -12.177  0.00  0.00    -0.344 N 
HETATM    4  H           1     -35.779  -2.498 -11.475  0.00  0.00     0.163 HD
HETATM    5  O           1     -34.768  -0.322 -13.496  0.00  0.00    -0.271 OA
BRANCH   3   6
HETATM    6  C           1     -34.027  -2.791 -12.672  0.00  0.00     0.189 C 
BRANCH   6   7
HETATM    7  C           1     -34.478  -3.983 -13.479  0.00  0.00     0.197 C 
HETATM    8  O           1     -34.205  -4.053 -14.696  0.00  0.00    -0.646 OA
HETATM    9  O           1     -35.124  -4.902 -12.929  0.00  0.00    -0.646 OA
ENDBRANCH   6   7
BRANCH   6  10
HETATM   10  C           1     -33.180  -3.264 -11.497  0.00  0.00     0.010 C 
HETATM   11  C           1     -32.388  -4.499 -11.905  0.00  0.00     0.012 C 
HETATM   12  C           1     -34.089  -3.608 -10.325  0.00  0.00     0.012 C 
ENDBRANCH   6  10
ENDBRANCH   3   6
ENDBRANCH   1   2
BRANCH   1  13
HETATM   13  C           1     -37.299  -0.853 -10.980  0.00  0.00     0.081 C 
BRANCH  13  14
HETATM   14  C           1     -37.266  -0.007  -9.746  0.00  0.00    -0.056 A 
HETATM   15  C           1     -38.075   1.126  -9.655  0.00  0.00     0.007 A 
HETATM   16  C           1     -38.045   1.914  -8.505  0.00  0.00     0.001 A 
HETATM   17  C           1     -37.207   1.570  -7.445  0.00  0.00     0.000 A 
HETATM   18  C           1     -36.399   0.436  -7.535  0.00  0.00     0.001 A 
HETATM   19  C           1     -36.429  -0.352  -8.686  0.00  0.00     0.007 A 
ENDBRANCH  13  14
ENDBRANCH   1  13
BRANCH   1  20
HETATM   20  N           1     -37.695   0.056 -13.241  0.00  0.00    -0.066 N 
HETATM   21  H           1     -37.476   0.902 -13.812  0.00  0.00     0.275 HD
HETATM   22  H           1     -37.665  -0.793 -13.849  0.00  0.00     0.275 HD
HETATM   23  H           1     -38.650   0.153 -12.825  0.00  0.00     0.275 HD
ENDBRANCH   1  20
TORSDOF 7
ENDMDL
MODEL 5
REMARK VINA RESULT:      -7.0      2.567      7.074
REMARK  7 active torsions:
REMARK  status: ('A' for Active; 'I' for Inactive)
REMARK    1  A    between atoms: C_1  and  C_6 
REMARK    2  A    between atoms: C_1  and  C_13 
REMARK    3  A    between atoms: C_1  and  N_2 
REMARK    4  A    between atoms: N_4  and  C_17 
REMARK       I    between atoms: N_4  and  C_6 
REMARK    5  A    between atoms: C_11  and  C_13 
REMARK    6  A    between atoms: C_15  and  C_17 
REMARK    7  A    between atoms: C_17  and  C_19 
ROOT
HETATM    1  C           1     -20.974  -4.896  -6.411  0.00  0.00     0.278 C 
ENDROOT
BRANCH   1   2
HETATM    2  C           1     -21.677  -5.849  -5.475  0.00  0.00     0.249 C 
HETATM    3  N           1     -20.949  -6.619  -4.608  0.00  0.00    -0.344 N 
HETATM    4  H           1     -19.940  -6.550  -4.596  0.00  0.00     0.163 HD
HETATM    5  O           1     -22.882  -5.932  -5.490  0.00  0.00    -0.271 OA
BRANCH   3   6
HETATM    6  C           1     -21.624  -7.534  -3.709  0.00  0.00     0.189 C 
BRANCH   6   7
HETATM    7  C           1     -21.680  -6.933  -2.327  0.00  0.00     0.197 C 
HETATM    8  O           1     -22.370  -5.912  -2.118  0.00  0.00    -0.646 OA
HETATM    9  O           1     -21.038  -7.456  -1.390  0.00  0.00    -0.646 OA
ENDBRANCH   6   7
BRANCH   6  10
HETATM   10  C           1     -20.861  -8.852  -3.658  0.00  0.00     0.010 C 
HETATM   11  C           1     -19.648  -8.775  -4.576  0.00  0.00     0.012 C 
HETATM   12  C           1     -21.772  -9.982  -4.116  0.00  0.00     0.012 C 
ENDBRANCH   6  10
ENDBRANCH   3   6
ENDBRANCH   1   2
BRANCH   1  13
HETATM   13  C           1     -20.673  -5.605  -7.725  0.00  0.00     0.081 C 
BRANCH  13  14
HETATM   14  C           1     -21.207  -4.794  -8.863  0.00  0.00    -0.056 A 
HETATM   15  C           1     -20.370  -4.439  -9.921  0.00  0.00     0.007 A 
HETATM   16  C           1     -20.868  -3.684 -10.983  0.00  0.00     0.001 A 
HETATM   17  C           1     -22.204  -3.283 -10.987  0.00  0.00     0.000 A 
HETATM   18  C           1     -23.042  -3.638  -9.930  0.00  0.00     0.001 A 
HETATM   19  C           1     -22.543  -4.394  -8.869  0.00  0.00     0.007 A 
ENDBRANCH  13  14
ENDBRANCH   1  13
BRANCH   1  20
HETATM   20  N           1     -19.690  -4.437  -5.786  0.00  0.00    -0.066 N 
HETATM   21  H           1     -19.893  -3.700  -5.073  0.00  0.00     0.275 HD
HETATM   22  H           1     -19.219  -5.247  -5.324  0.00  0.00     0.275 HD
HETATM   23  H           1     -19.064  -4.044  -6.525  0.00  0.00     0.275 HD
ENDBRANCH   1  20
TORSDOF 7
ENDMDL
MODEL 6
REMARK VINA RESULT:      -6.8      4.248      7.989
REMARK  7 active torsions:
REMARK  status: ('A' for Active; 'I' for Inactive)
REMARK    1  A    between atoms: C_1  and  C_6 
REMARK    2  A    between atoms: C_1  and  C_13 
REMARK    3  A    between atoms: C_1  and  N_2 
REMARK    4  A    between atoms: N_4  and  C_17 
REMARK       I    between atoms: N_4  and  C_6 
REMARK    5  A    between atoms: C_11  and  C_13 
REMARK    6  A    between atoms: C_15  and  C_17 
REMARK    7  A    between atoms: C_17  and  C_19 
ROOT
HETATM    1  C           1     -20.429  -7.629  -4.886  0.00  0.00     0.278 C 
ENDROOT
BRANCH   1   2
HETATM    2  C           1     -20.408  -8.330  -3.551  0.00  0.00     0.249 C 
HETATM    3  N           1     -21.548  -8.397  -2.795  0.00  0.00    -0.344 N 
HETATM    4  H           1     -22.403  -7.975  -3.132  0.00  0.00     0.163 HD
HETATM    5  O           1     -19.386  -8.834  -3.148  0.00  0.00    -0.271 OA
BRANCH   3   6
HETATM    6  C           1     -21.528  -9.070  -1.511  0.00  0.00     0.189 C 
BRANCH   6   7
HETATM    7  C           1     -22.168 -10.430  -1.646  0.00  0.00     0.197 C 
HETATM    8  O           1     -21.525 -11.375  -2.151  0.00  0.00    -0.646 OA
HETATM    9  O           1     -23.340 -10.611  -1.252  0.00  0.00    -0.646 OA
ENDBRANCH   6   7
BRANCH   6  10
HETATM   10  C           1     -22.302  -8.244  -0.491  0.00  0.00     0.010 C 
HETATM   11  C           1     -22.355  -6.792  -0.946  0.00  0.00     0.012 C 
HETATM   12  C           1     -21.606  -8.327   0.860  0.00  0.00     0.012 C 
ENDBRANCH   6  10
ENDBRANCH   3   6
ENDBRANCH   1   2
BRANCH   1  13
HETATM   13  C           1     -21.142  -6.290  -4.747  0.00  0.00     0.081 C 
BRANCH  13  14
HETATM   14  C           1     -20.926  -5.477  -5.984  0.00  0.00    -0.056 A 
HETATM   15  C           1     -19.632  -5.238  -6.445  0.00  0.00     0.007 A 
HETATM   16  C           1     -19.430  -4.481  -7.599  0.00  0.00     0.001 A 
HETATM   17  C           1     -20.523  -3.963  -8.293  0.00  0.00     0.000 A 
HETATM   18  C           1     -21.818  -4.202  -7.833  0.00  0.00     0.001 A 
HETATM   19  C           1     -22.019  -4.959  -6.679  0.00  0.00     0.007 A 
ENDBRANCH  13  14
ENDBRANCH   1  13
BRANCH   1  20
HETATM   20  N           1     -21.154  -8.479  -5.887  0.00  0.00    -0.066 N 
HETATM   21  H           1     -22.079  -8.047  -6.107  0.00  0.00     0.275 HD
HETATM   22  H           1     -20.585  -8.549  -6.760  0.00  0.00     0.275 HD
HETATM   23  H           1     -21.302  -9.435  -5.489  0.00  0.00     0.275 HD
ENDBRANCH   1  20
TORSDOF 7
ENDMDL
MODEL 7
REMARK VINA RESULT:      -6.4      2.254      3.553
REMARK  7 active torsions:
REMARK  status: ('A' for Active; 'I' for Inactive)
REMARK    1  A    between atoms: C_1  and  C_6 
REMARK    2  A    between atoms: C_1  and  C_13 
REMARK    3  A    between atoms: C_1  and  N_2 
REMARK    4  A    between atoms: N_4  and  C_17 
REMARK       I    between atoms: N_4  and  C_6 
REMARK    5  A    between atoms: C_11  and  C_13 
REMARK    6  A    between atoms: C_15  and  C_17 
REMARK    7  A    between atoms: C_17  and  C_19 
ROOT
HETATM    1  C           1     -21.471  -7.737  -4.636  0.00  0.00     0.278 C 
ENDROOT
BRANCH   1   2
HETATM    2  C           1     -21.354  -6.293  -5.058  0.00  0.00     0.249 C 
HETATM    3  N           1     -21.369  -5.964  -6.387  0.00  0.00    -0.344 N 
HETATM    4  H           1     -21.459  -6.690  -7.086  0.00  0.00     0.163 HD
HETATM    5  O           1     -21.246  -5.426  -4.223  0.00  0.00    -0.271 OA
BRANCH   3   6
HETATM    6  C           1     -21.256  -4.577  -6.792  0.00  0.00     0.189 C 
BRANCH   6   7
HETATM    7  C           1     -22.520  -4.154  -7.499  0.00  0.00     0.197 C 
HETATM    8  O           1     -23.631  -4.545  -7.079  0.00  0.00    -0.646 OA
HETATM    9  O           1     -22.458  -3.413  -8.503  0.00  0.00    -0.646 OA
ENDBRANCH   6   7
BRANCH   6  10
HETATM   10  C           1     -20.071  -4.418  -7.736  0.00  0.00     0.010 C 
HETATM   11  C           1     -20.123  -5.499  -8.807  0.00  0.00     0.012 C 
HETATM   12  C           1     -18.775  -4.548  -6.947  0.00  0.00     0.012 C 
ENDBRANCH   6  10
ENDBRANCH   3   6
ENDBRANCH   1   2
BRANCH   1  13
HETATM   13  C           1     -20.564  -7.992  -3.439  0.00  0.00     0.081 C 
BRANCH  13  14
HETATM   14  C           1     -21.399  -8.258  -2.227  0.00  0.00    -0.056 A 
HETATM   15  C           1     -21.802  -9.560  -1.928  0.00  0.00     0.007 A 
HETATM   16  C           1     -22.580  -9.808  -0.797  0.00  0.00     0.001 A 
HETATM   17  C           1     -22.957  -8.754   0.035  0.00  0.00     0.000 A 
HETATM   18  C           1     -22.555  -7.452  -0.263  0.00  0.00     0.001 A 
HETATM   19  C           1     -21.776  -7.204  -1.394  0.00  0.00     0.007 A 
ENDBRANCH  13  14
ENDBRANCH   1  13
BRANCH   1  20
HETATM   20  N           1     -21.059  -8.625  -5.773  0.00  0.00    -0.066 N 
HETATM   21  H           1     -21.907  -8.929  -6.302  0.00  0.00     0.275 HD
HETATM   22  H           1     -20.420  -8.099  -6.411  0.00  0.00     0.275 HD
HETATM   23  H           1     -20.563  -9.464  -5.396  0.00  0.00     0.275 HD
ENDBRANCH   1  20
TORSDOF 7
ENDMDL
MODEL 8
REMARK VINA RESULT:      -6.3     12.883     16.088
REMARK  7 active torsions:
REMARK  status: ('A' for Active; 'I' for Inactive)
REMARK    1  A    between atoms: C_1  and  C_6 
REMARK    2  A    between atoms: C_1  and  C_13 
REMARK    3  A    between atoms: C_1  and  N_2 
REMARK    4  A    between atoms: N_4  and  C_17 
REMARK       I    between atoms: N_4  and  C_6 
REMARK    5  A    between atoms: C_11  and  C_13 
REMARK    6  A    between atoms: C_15  and  C_17 
REMARK    7  A    between atoms: C_17  and  C_19 
ROOT
HETATM    1  C           1     -35.945  -0.513 -11.714  0.00  0.00     0.278 C 
ENDROOT
BRANCH   1   2
HETATM    2  C           1     -34.975  -1.606 -11.338  0.00  0.00     0.249 C 
HETATM    3  N           1     -35.268  -2.911 -11.628  0.00  0.00    -0.344 N 
HETATM    4  H           1     -36.136  -3.143 -12.094  0.00  0.00     0.163 HD
HETATM    5  O           1     -33.939  -1.329 -10.781  0.00  0.00    -0.271 OA
BRANCH   3   6
HETATM    6  C           1     -34.337  -3.962 -11.266  0.00  0.00     0.189 C 
BRANCH   6   7
HETATM    7  C           1     -33.283  -4.092 -12.338  0.00  0.00     0.197 C 
HETATM    8  O           1     -33.559  -3.804 -13.522  0.00  0.00    -0.646 OA
HETATM    9  O           1     -32.135  -4.486 -12.042  0.00  0.00    -0.646 OA
ENDBRANCH   6   7
BRANCH   6  10
HETATM   10  C           1     -35.085  -5.281 -11.128  0.00  0.00     0.010 C 
HETATM   11  C           1     -34.364  -6.174 -10.127  0.00  0.00     0.012 C 
HETATM   12  C           1     -35.140  -5.976 -12.481  0.00  0.00     0.012 C 
ENDBRANCH   6  10
ENDBRANCH   3   6
ENDBRANCH   1   2
BRANCH   1  13
HETATM   13  C           1     -35.361   0.317 -12.850  0.00  0.00     0.081 C 
BRANCH  13  14
HETATM   14  C           1     -36.047  -0.037 -14.132  0.00  0.00    -0.056 A 
HETATM   15  C           1     -35.298  -0.457 -15.231  0.00  0.00     0.007 A 
HETATM   16  C           1     -35.936  -0.788 -16.426  0.00  0.00     0.001 A 
HETATM   17  C           1     -37.325  -0.698 -16.522  0.00  0.00     0.000 A 
HETATM   18  C           1     -38.075  -0.278 -15.423  0.00  0.00     0.001 A 
HETATM   19  C           1     -37.435   0.052 -14.228  0.00  0.00     0.007 A 
ENDBRANCH  13  14
ENDBRANCH   1  13
BRANCH   1  20
HETATM   20  N           1     -36.191   0.368 -10.526  0.00  0.00    -0.066 N 
HETATM   21  H           1     -35.681  -0.013  -9.697  0.00  0.00     0.275 HD
HETATM   22  H           1     -35.848   1.333 -10.732  0.00  0.00     0.275 HD
HETATM   23  H           1     -37.216   0.398 -10.321  0.00  0.00     0.275 HD
ENDBRANCH   1  20
TORSDOF 7
ENDMDL
MODEL 9
REMARK VINA RESULT:      -6.2      4.030      8.096
REMARK  7 active torsions:
REMARK  status: ('A' for Active; 'I' for Inactive)
REMARK    1  A    between atoms: C_1  and  C_6 
REMARK    2  A    between atoms: C_1  and  C_13 
REMARK    3  A    between atoms: C_1  and  N_2 
REMARK    4  A    between atoms: N_4  and  C_17 
REMARK       I    between atoms: N_4  and  C_6 
REMARK    5  A    between atoms: C_11  and  C_13 
REMARK    6  A    between atoms: C_15  and  C_17 
REMARK    7  A    between atoms: C_17  and  C_19 
ROOT
HETATM    1  C           1     -20.861  -7.269  -4.656  0.00  0.00     0.278 C 
ENDROOT
BRANCH   1   2
HETATM    2  C           1     -21.329  -7.846  -3.342  0.00  0.00     0.249 C 
HETATM    3  N           1     -21.432  -9.202  -3.187  0.00  0.00    -0.344 N 
HETATM    4  H           1     -21.195  -9.817  -3.954  0.00  0.00     0.163 HD
HETATM    5  O           1     -21.613  -7.110  -2.426  0.00  0.00    -0.271 OA
BRANCH   3   6
HETATM    6  C           1     -21.882  -9.756  -1.926  0.00  0.00     0.189 C 
BRANCH   6   7
HETATM    7  C           1     -20.705  -9.911  -0.995  0.00  0.00     0.197 C 
HETATM    8  O           1     -19.622 -10.361  -1.427  0.00  0.00    -0.646 OA
HETATM    9  O           1     -20.812  -9.588   0.208  0.00  0.00    -0.646 OA
ENDBRANCH   6   7
BRANCH   6  10
HETATM   10  C           1     -22.521 -11.118  -2.167  0.00  0.00     0.010 C 
HETATM   11  C           1     -22.848 -11.272  -3.646  0.00  0.00     0.012 C 
HETATM   12  C           1     -23.800 -11.229  -1.349  0.00  0.00     0.012 C 
ENDBRANCH   6  10
ENDBRANCH   3   6
ENDBRANCH   1   2
BRANCH   1  13
HETATM   13  C           1     -21.608  -5.971  -4.936  0.00  0.00     0.081 C 
BRANCH  13  14
HETATM   14  C           1     -21.029  -5.314  -6.149  0.00  0.00    -0.056 A 
HETATM   15  C           1     -19.657  -5.070  -6.224  0.00  0.00     0.007 A 
HETATM   16  C           1     -19.118  -4.458  -7.354  0.00  0.00     0.001 A 
HETATM   17  C           1     -19.949  -4.089  -8.412  0.00  0.00     0.000 A 
HETATM   18  C           1     -21.320  -4.334  -8.339  0.00  0.00     0.001 A 
HETATM   19  C           1     -21.860  -4.946  -7.207  0.00  0.00     0.007 A 
ENDBRANCH  13  14
ENDBRANCH   1  13
BRANCH   1  20
HETATM   20  N           1     -21.134  -8.250  -5.757  0.00  0.00    -0.066 N 
HETATM   21  H           1     -20.332  -8.253  -6.428  0.00  0.00     0.275 HD
HETATM   22  H           1     -21.252  -9.205  -5.351  0.00  0.00     0.275 HD
HETATM   23  H           1     -22.008  -7.975  -6.260  0.00  0.00     0.275 HD
ENDBRANCH   1  20
TORSDOF 7
ENDMDL
