MODEL 1
REMARK VINA RESULT:      -7.6      0.000      0.000
REMARK  8 active torsions:
REMARK  status: ('A' for Active; 'I' for Inactive)
REMARK    1  A    between atoms: C_2  and  C_3 
REMARK    2  A    between atoms: C_2  and  C_10 
REMARK    3  A    between atoms: C_2  and  N_20 
REMARK       I    between atoms: C_3  and  N_18 
REMARK    4  A    between atoms: C_8  and  C_11 
REMARK    5  A    between atoms: C_10  and  C_21 
REMARK    6  A    between atoms: C_11  and  C_12 
REMARK    7  A    between atoms: C_11  and  N_18 
REMARK    8  A    between atoms: C_12  and  C_17 
ROOT
HETATM    1  C           1     -35.940  -0.544 -11.164  0.00  0.00     0.278 C 
ENDROOT
BRANCH   1   2
HETATM    2  C           1     -36.471  -0.321 -12.559  0.00  0.00     0.249 C 
HETATM    3  O           1     -37.658  -0.388 -12.771  0.00  0.00    -0.271 OA
HETATM    4  N           1     -35.606  -0.041 -13.583  0.00  0.00    -0.344 N 
HETATM    5  H           1     -34.612   0.015 -13.405  0.00  0.00     0.163 HD
BRANCH   4   6
HETATM    6  C           1     -36.116   0.173 -14.923  0.00  0.00     0.195 C 
BRANCH   6   7
HETATM    7  C           1     -35.682  -0.965 -15.814  0.00  0.00     0.197 C 
HETATM    8  O           1     -35.972  -0.952 -17.030  0.00  0.00    -0.646 OA
HETATM    9  O           1     -35.034  -1.921 -15.336  0.00  0.00    -0.646 OA
ENDBRANCH   6   7
BRANCH   6  10
HETATM   10  C           1     -35.568   1.484 -15.473  0.00  0.00     0.149 C 
BRANCH  10  11
HETATM   11  C           1     -36.645   2.189 -16.259  0.00  0.00     0.175 C 
HETATM   12  O           1     -37.824   1.776 -16.214  0.00  0.00    -0.648 OA
HETATM   13  O           1     -36.359   3.186 -16.957  0.00  0.00    -0.648 OA
ENDBRANCH  10  11
ENDBRANCH   6  10
ENDBRANCH   4   6
ENDBRANCH   1   2
BRANCH   1  14
HETATM   14  C           1     -36.341  -1.933 -10.684  0.00  0.00     0.081 C 
BRANCH  14  15
HETATM   15  C           1     -35.219  -2.892 -10.937  0.00  0.00    -0.056 A 
HETATM   16  C           1     -33.933  -2.412 -11.180  0.00  0.00     0.007 A 
HETATM   17  C           1     -32.888  -3.305 -11.416  0.00  0.00     0.001 A 
HETATM   18  C           1     -33.130  -4.679 -11.410  0.00  0.00     0.000 A 
HETATM   19  C           1     -34.417  -5.159 -11.166  0.00  0.00     0.001 A 
HETATM   20  C           1     -35.462  -4.266 -10.930  0.00  0.00     0.007 A 
ENDBRANCH  14  15
ENDBRANCH   1  14
BRANCH   1  21
HETATM   21  N           1     -36.514   0.489 -10.240  0.00  0.00    -0.066 N 
HETATM   22  H           1     -37.006   0.013  -9.450  0.00  0.00     0.275 HD
HETATM   23  H           1     -37.193   1.086 -10.763  0.00  0.00     0.275 HD
HETATM   24  H           1     -35.744   1.085  -9.863  0.00  0.00     0.275 HD
ENDBRANCH   1  21
TORSDOF 8
ENDMDL
MODEL 2
REMARK VINA RESULT:      -7.4      2.155      3.942
REMARK  8 active torsions:
REMARK  status: ('A' for Active; 'I' for Inactive)
REMARK    1  A    between atoms: C_2  and  C_3 
REMARK    2  A    between atoms: C_2  and  C_10 
REMARK    3  A    between atoms: C_2  and  N_20 
REMARK       I    between atoms: C_3  and  N_18 
REMARK    4  A    between atoms: C_8  and  C_11 
REMARK    5  A    between atoms: C_10  and  C_21 
REMARK    6  A    between atoms: C_11  and  C_12 
REMARK    7  A    between atoms: C_11  and  N_18 
REMARK    8  A    between atoms: C_12  and  C_17 
ROOT
HETATM    1  C           1     -34.113  -3.906 -12.635  0.00  0.00     0.278 C 
ENDROOT
BRANCH   1   2
HETATM    2  C           1     -34.309  -2.443 -12.322  0.00  0.00     0.249 C 
HETATM    3  O           1     -33.861  -1.979 -11.300  0.00  0.00    -0.271 OA
HETATM    4  N           1     -34.992  -1.641 -13.197  0.00  0.00    -0.344 N 
HETATM    5  H           1     -35.366  -2.030 -14.052  0.00  0.00     0.163 HD
BRANCH   4   6
HETATM    6  C           1     -35.179  -0.236 -12.896  0.00  0.00     0.195 C 
BRANCH   6   7
HETATM    7  C           1     -36.345  -0.075 -11.950  0.00  0.00     0.197 C 
HETATM    8  O           1     -37.485  -0.457 -12.293  0.00  0.00    -0.646 OA
HETATM    9  O           1     -36.171   0.440 -10.825  0.00  0.00    -0.646 OA
ENDBRANCH   6   7
BRANCH   6  10
HETATM   10  C           1     -35.464   0.527 -14.183  0.00  0.00     0.149 C 
BRANCH  10  11
HETATM   11  C           1     -35.723  -0.452 -15.301  0.00  0.00     0.175 C 
HETATM   12  O           1     -34.768  -0.897 -15.976  0.00  0.00    -0.648 OA
HETATM   13  O           1     -36.891  -0.820 -15.553  0.00  0.00    -0.648 OA
ENDBRANCH  10  11
ENDBRANCH   6  10
ENDBRANCH   4   6
ENDBRANCH   1   2
BRANCH   1  14
HETATM   14  C           1     -33.042  -4.483 -11.719  0.00  0.00     0.081 C 
BRANCH  14  15
HETATM   15  C           1     -33.594  -5.669 -10.989  0.00  0.00    -0.056 A 
HETATM   16  C           1     -34.819  -5.573 -10.331  0.00  0.00     0.007 A 
HETATM   17  C           1     -35.333  -6.677  -9.651  0.00  0.00     0.001 A 
HETATM   18  C           1     -34.621  -7.876  -9.629  0.00  0.00     0.000 A 
HETATM   19  C           1     -33.395  -7.971 -10.288  0.00  0.00     0.001 A 
HETATM   20  C           1     -32.881  -6.868 -10.968  0.00  0.00     0.007 A 
ENDBRANCH  14  15
ENDBRANCH   1  14
BRANCH   1  21
HETATM   21  N           1     -33.683  -4.058 -14.064  0.00  0.00    -0.066 N 
HETATM   22  H           1     -32.760  -4.546 -14.099  0.00  0.00     0.275 HD
HETATM   23  H           1     -33.596  -3.115 -14.505  0.00  0.00     0.275 HD
HETATM   24  H           1     -34.395  -4.620 -14.583  0.00  0.00     0.275 HD
ENDBRANCH   1  21
TORSDOF 8
ENDMDL
MODEL 3
REMARK VINA RESULT:      -7.3     13.699     15.913
REMARK  8 active torsions:
REMARK  status: ('A' for Active; 'I' for Inactive)
REMARK    1  A    between atoms: C_2  and  C_3 
REMARK    2  A    between atoms: C_2  and  C_10 
REMARK    3  A    between atoms: C_2  and  N_20 
REMARK       I    between atoms: C_3  and  N_18 
REMARK    4  A    between atoms: C_8  and  C_11 
REMARK    5  A    between atoms: C_10  and  C_21 
REMARK    6  A    between atoms: C_11  and  C_12 
REMARK    7  A    between atoms: C_11  and  N_18 
REMARK    8  A    between atoms: C_12  and  C_17 
ROOT
HETATM    1  C           1     -21.126  -5.757  -6.822  0.00  0.00     0.278 C 
ENDROOT
BRANCH   1   2
HETATM    2  C           1     -21.685  -4.619  -7.641  0.00  0.00     0.249 C 
HETATM    3  O           1     -21.637  -3.489  -7.215  0.00  0.00    -0.271 OA
HETATM    4  N           1     -22.244  -4.868  -8.865  0.00  0.00    -0.344 N 
HETATM    5  H           1     -22.283  -5.814  -9.221  0.00  0.00     0.163 HD
BRANCH   4   6
HETATM    6  C           1     -22.781  -3.775  -9.651  0.00  0.00     0.195 C 
BRANCH   6   7
HETATM    7  C           1     -24.288  -3.860  -9.669  0.00  0.00     0.197 C 
HETATM    8  O           1     -24.849  -4.964  -9.844  0.00  0.00    -0.646 OA
HETATM    9  O           1     -24.974  -2.828  -9.511  0.00  0.00    -0.646 OA
ENDBRANCH   6   7
BRANCH   6  10
HETATM   10  C           1     -22.252  -3.866 -11.077  0.00  0.00     0.149 C 
BRANCH  10  11
HETATM   11  C           1     -20.750  -3.726 -11.067  0.00  0.00     0.175 C 
HETATM   12  O           1     -20.222  -2.626 -11.341  0.00  0.00    -0.648 OA
HETATM   13  O           1     -20.032  -4.710 -10.783  0.00  0.00    -0.648 OA
ENDBRANCH  10  11
ENDBRANCH   6  10
ENDBRANCH   4   6
ENDBRANCH   1   2
BRANCH   1  14
HETATM   14  C           1     -20.830  -5.269  -5.410  0.00  0.00     0.081 C 
BRANCH  14  15
HETATM   15  C           1     -21.134  -6.360  -4.430  0.00  0.00    -0.056 A 
HETATM   16  C           1     -21.321  -6.054  -3.082  0.00  0.00     0.007 A 
HETATM   17  C           1     -21.604  -7.070  -2.170  0.00  0.00     0.001 A 
HETATM   18  C           1     -21.698  -8.392  -2.605  0.00  0.00     0.000 A 
HETATM   19  C           1     -21.511  -8.698  -3.953  0.00  0.00     0.001 A 
HETATM   20  C           1     -21.228  -7.682  -4.866  0.00  0.00     0.007 A 
ENDBRANCH  14  15
ENDBRANCH   1  14
BRANCH   1  21
HETATM   21  N           1     -19.860  -6.253  -7.455  0.00  0.00    -0.066 N 
HETATM   22  H           1     -19.165  -6.481  -6.708  0.00  0.00     0.275 HD
HETATM   23  H           1     -19.469  -5.513  -8.080  0.00  0.00     0.275 HD
HETATM   24  H           1     -20.064  -7.111  -8.015  0.00  0.00     0.275 HD
ENDBRANCH   1  21
TORSDOF 8
ENDMDL
MODEL 4
REMARK VINA RESULT:      -7.2     15.323     17.855
REMARK  8 active torsions:
REMARK  status: ('A' for Active; 'I' for Inactive)
REMARK    1  A    between atoms: C_2  and  C_3 
REMARK    2  A    between atoms: C_2  and  C_10 
REMARK    3  A    between atoms: C_2  and  N_20 
REMARK       I    between atoms: C_3  and  N_18 
REMARK    4  A    between atoms: C_8  and  C_11 
REMARK    5  A    between atoms: C_10  and  C_21 
REMARK    6  A    between atoms: C_11  and  C_12 
REMARK    7  A    between atoms: C_11  and  N_18 
REMARK    8  A    between atoms: C_12  and  C_17 
ROOT
HETATM    1  C           1     -22.194  -5.153  -6.832  0.00  0.00     0.278 C 
ENDROOT
BRANCH   1   2
HETATM    2  C           1     -21.346  -5.632  -5.679  0.00  0.00     0.249 C 
HETATM    3  O           1     -20.457  -4.933  -5.252  0.00  0.00    -0.271 OA
HETATM    4  N           1     -21.586  -6.856  -5.116  0.00  0.00    -0.344 N 
HETATM    5  H           1     -22.330  -7.440  -5.473  0.00  0.00     0.163 HD
BRANCH   4   6
HETATM    6  C           1     -20.771  -7.316  -4.008  0.00  0.00     0.195 C 
BRANCH   6   7
HETATM    7  C           1     -19.822  -8.385  -4.492  0.00  0.00     0.197 C 
HETATM    8  O           1     -19.841  -8.742  -5.690  0.00  0.00    -0.646 OA
HETATM    9  O           1     -19.018  -8.913  -3.695  0.00  0.00    -0.646 OA
ENDBRANCH   6   7
BRANCH   6  10
HETATM   10  C           1     -21.670  -7.891  -2.920  0.00  0.00     0.149 C 
BRANCH  10  11
HETATM   11  C           1     -22.024  -6.806  -1.935  0.00  0.00     0.175 C 
HETATM   12  O           1     -21.980  -5.606  -2.283  0.00  0.00    -0.648 OA
HETATM   13  O           1     -22.363  -7.105  -0.769  0.00  0.00    -0.648 OA
ENDBRANCH  10  11
ENDBRANCH   6  10
ENDBRANCH   4   6
ENDBRANCH   1   2
BRANCH   1  14
HETATM   14  C           1     -21.615  -3.857  -7.385  0.00  0.00     0.081 C 
BRANCH  14  15
HETATM   15  C           1     -21.589  -3.919  -8.881  0.00  0.00    -0.056 A 
HETATM   16  C           1     -20.392  -4.183  -9.547  0.00  0.00     0.007 A 
HETATM   17  C           1     -20.368  -4.241 -10.940  0.00  0.00     0.001 A 
HETATM   18  C           1     -21.540  -4.035 -11.667  0.00  0.00     0.000 A 
HETATM   19  C           1     -22.737  -3.771 -11.001  0.00  0.00     0.001 A 
HETATM   20  C           1     -22.761  -3.713  -9.608  0.00  0.00     0.007 A 
ENDBRANCH  14  15
ENDBRANCH   1  14
BRANCH   1  21
HETATM   21  N           1     -23.595  -4.910  -6.355  0.00  0.00    -0.066 N 
HETATM   22  H           1     -23.615  -4.927  -5.310  0.00  0.00     0.275 HD
HETATM   23  H           1     -24.225  -5.655  -6.728  0.00  0.00     0.275 HD
HETATM   24  H           1     -23.921  -3.977  -6.694  0.00  0.00     0.275 HD
ENDBRANCH   1  21
TORSDOF 8
ENDMDL
MODEL 5
REMARK VINA RESULT:      -7.0     15.163     18.079
REMARK  8 active torsions:
REMARK  status: ('A' for Active; 'I' for Inactive)
REMARK    1  A    between atoms: C_2  and  C_3 
REMARK    2  A    between atoms: C_2  and  C_10 
REMARK    3  A    between atoms: C_2  and  N_20 
REMARK       I    between atoms: C_3  and  N_18 
REMARK    4  A    between atoms: C_8  and  C_11 
REMARK    5  A    between atoms: C_10  and  C_21 
REMARK    6  A    between atoms: C_11  and  C_12 
REMARK    7  A    between atoms: C_11  and  N_18 
REMARK    8  A    between atoms: C_12  and  C_17 
ROOT
HETATM    1  C           1     -20.986  -4.918  -6.436  0.00  0.00     0.278 C 
ENDROOT
BRANCH   1   2
HETATM    2  C           1     -21.689  -5.860  -5.491  0.00  0.00     0.249 C 
HETATM    3  O           1     -22.896  -5.913  -5.478  0.00  0.00    -0.271 OA
HETATM    4  N           1     -20.959  -6.656  -4.650  0.00  0.00    -0.344 N 
HETATM    5  H           1     -19.949  -6.612  -4.661  0.00  0.00     0.163 HD
BRANCH   4   6
HETATM    6  C           1     -21.635  -7.562  -3.742  0.00  0.00     0.195 C 
BRANCH   6   7
HETATM    7  C           1     -21.630  -6.976  -2.350  0.00  0.00     0.197 C 
HETATM    8  O           1     -20.974  -7.529  -1.441  0.00  0.00    -0.646 OA
HETATM    9  O           1     -22.283  -5.939  -2.107  0.00  0.00    -0.646 OA
ENDBRANCH   6   7
BRANCH   6  10
HETATM   10  C           1     -20.912  -8.903  -3.728  0.00  0.00     0.149 C 
BRANCH  10  11
HETATM   11  C           1     -20.398  -9.211  -5.112  0.00  0.00     0.175 C 
HETATM   12  O           1     -19.203  -8.980  -5.401  0.00  0.00    -0.648 OA
HETATM   13  O           1     -21.165  -9.697  -5.972  0.00  0.00    -0.648 OA
ENDBRANCH  10  11
ENDBRANCH   6  10
ENDBRANCH   4   6
ENDBRANCH   1   2
BRANCH   1  14
HETATM   14  C           1     -20.657  -5.648  -7.732  0.00  0.00     0.081 C 
BRANCH  14  15
HETATM   15  C           1     -21.114  -4.826  -8.898  0.00  0.00    -0.056 A 
HETATM   16  C           1     -20.226  -4.528  -9.930  0.00  0.00     0.007 A 
HETATM   17  C           1     -20.650  -3.763 -11.016  0.00  0.00     0.001 A 
HETATM   18  C           1     -21.964  -3.296 -11.069  0.00  0.00     0.000 A 
HETATM   19  C           1     -22.853  -3.596 -10.037  0.00  0.00     0.001 A 
HETATM   20  C           1     -22.428  -4.360  -8.951  0.00  0.00     0.007 A 
ENDBRANCH  14  15
ENDBRANCH   1  14
BRANCH   1  21
HETATM   21  N           1     -19.716  -4.429  -5.803  0.00  0.00    -0.066 N 
HETATM   22  H           1     -19.430  -5.089  -5.045  0.00  0.00     0.275 HD
HETATM   23  H           1     -19.872  -3.479  -5.397  0.00  0.00     0.275 HD
HETATM   24  H           1     -18.964  -4.380  -6.526  0.00  0.00     0.275 HD
ENDBRANCH   1  21
TORSDOF 8
ENDMDL
MODEL 6
REMARK VINA RESULT:      -6.8      1.140      2.987
REMARK  8 active torsions:
REMARK  status: ('A' for Active; 'I' for Inactive)
REMARK    1  A    between atoms: C_2  and  C_3 
REMARK    2  A    between atoms: C_2  and  C_10 
REMARK    3  A    between atoms: C_2  and  N_20 
REMARK       I    between atoms: C_3  and  N_18 
REMARK    4  A    between atoms: C_8  and  C_11 
REMARK    5  A    between atoms: C_10  and  C_21 
REMARK    6  A    between atoms: C_11  and  C_12 
REMARK    7  A    between atoms: C_11  and  N_18 
REMARK    8  A    between atoms: C_12  and  C_17 
ROOT
HETATM    1  C           1     -35.363  -0.759 -11.909  0.00  0.00     0.278 C 
ENDROOT
BRANCH   1   2
HETATM    2  C           1     -35.751  -0.662 -13.364  0.00  0.00     0.249 C 
HETATM    3  O           1     -36.867  -0.967 -13.713  0.00  0.00    -0.271 OA
HETATM    4  N           1     -34.839  -0.227 -14.288  0.00  0.00    -0.344 N 
HETATM    5  H           1     -33.905   0.029 -13.995  0.00  0.00     0.163 HD
BRANCH   4   6
HETATM    6  C           1     -35.212  -0.134 -15.686  0.00  0.00     0.195 C 
BRANCH   6   7
HETATM    7  C           1     -36.231   0.966 -15.862  0.00  0.00     0.197 C 
HETATM    8  O           1     -35.888   2.162 -15.737  0.00  0.00    -0.646 OA
HETATM    9  O           1     -37.418   0.681 -16.132  0.00  0.00    -0.646 OA
ENDBRANCH   6   7
BRANCH   6  10
HETATM   10  C           1     -35.813  -1.458 -16.141  0.00  0.00     0.149 C 
BRANCH  10  11
HETATM   11  C           1     -34.717  -2.485 -16.280  0.00  0.00     0.175 C 
HETATM   12  O           1     -33.955  -2.457 -17.270  0.00  0.00    -0.648 OA
HETATM   13  O           1     -34.570  -3.366 -15.404  0.00  0.00    -0.648 OA
ENDBRANCH  10  11
ENDBRANCH   6  10
ENDBRANCH   4   6
ENDBRANCH   1   2
BRANCH   1  14
HETATM   14  C           1     -35.995  -2.002 -11.296  0.00  0.00     0.081 C 
BRANCH  14  15
HETATM   15  C           1     -35.001  -3.123 -11.302  0.00  0.00    -0.056 A 
HETATM   16  C           1     -35.392  -4.403 -10.911  0.00  0.00     0.007 A 
HETATM   17  C           1     -34.467  -5.446 -10.917  0.00  0.00     0.001 A 
HETATM   18  C           1     -33.151  -5.210 -11.313  0.00  0.00     0.000 A 
HETATM   19  C           1     -32.760  -3.929 -11.704  0.00  0.00     0.001 A 
HETATM   20  C           1     -33.685  -2.885 -11.698  0.00  0.00     0.007 A 
ENDBRANCH  14  15
ENDBRANCH   1  14
BRANCH   1  21
HETATM   21  N           1     -35.848   0.459 -11.180  0.00  0.00    -0.066 N 
HETATM   22  H           1     -35.181   0.692 -10.411  0.00  0.00     0.275 HD
HETATM   23  H           1     -36.794   0.271 -10.777  0.00  0.00     0.275 HD
HETATM   24  H           1     -35.907   1.262 -11.846  0.00  0.00     0.275 HD
ENDBRANCH   1  21
TORSDOF 8
ENDMDL
MODEL 7
REMARK VINA RESULT:      -6.6     17.040     19.467
REMARK  8 active torsions:
REMARK  status: ('A' for Active; 'I' for Inactive)
REMARK    1  A    between atoms: C_2  and  C_3 
REMARK    2  A    between atoms: C_2  and  C_10 
REMARK    3  A    between atoms: C_2  and  N_20 
REMARK       I    between atoms: C_3  and  N_18 
REMARK    4  A    between atoms: C_8  and  C_11 
REMARK    5  A    between atoms: C_10  and  C_21 
REMARK    6  A    between atoms: C_11  and  C_12 
REMARK    7  A    between atoms: C_11  and  N_18 
REMARK    8  A    between atoms: C_12  and  C_17 
ROOT
HETATM    1  C           1     -20.369  -7.731  -4.932  0.00  0.00     0.278 C 
ENDROOT
BRANCH   1   2
HETATM    2  C           1     -20.178  -8.421  -3.604  0.00  0.00     0.249 C 
HETATM    3  O           1     -19.101  -8.888  -3.316  0.00  0.00    -0.271 OA
HETATM    4  N           1     -21.223  -8.515  -2.726  0.00  0.00    -0.344 N 
HETATM    5  H           1     -22.124  -8.123  -2.967  0.00  0.00     0.163 HD
BRANCH   4   6
HETATM    6  C           1     -21.039  -9.178  -1.450  0.00  0.00     0.195 C 
BRANCH   6   7
HETATM    7  C           1     -22.100 -10.237  -1.276  0.00  0.00     0.197 C 
HETATM    8  O           1     -22.785 -10.603  -2.256  0.00  0.00    -0.646 OA
HETATM    9  O           1     -22.296 -10.747  -0.152  0.00  0.00    -0.646 OA
ENDBRANCH   6   7
BRANCH   6  10
HETATM   10  C           1     -21.154  -8.157  -0.324  0.00  0.00     0.149 C 
BRANCH  10  11
HETATM   11  C           1     -22.364  -7.287  -0.556  0.00  0.00     0.175 C 
HETATM   12  O           1     -23.431  -7.525   0.052  0.00  0.00    -0.648 OA
HETATM   13  O           1     -22.302  -6.328  -1.356  0.00  0.00    -0.648 OA
ENDBRANCH  10  11
ENDBRANCH   6  10
ENDBRANCH   4   6
ENDBRANCH   1   2
BRANCH   1  14
HETATM   14  C           1     -21.074  -6.398  -4.717  0.00  0.00     0.081 C 
BRANCH  14  15
HETATM   15  C           1     -20.924  -5.549  -5.941  0.00  0.00    -0.056 A 
HETATM   16  C           1     -22.055  -5.037  -6.576  0.00  0.00     0.007 A 
HETATM   17  C           1     -21.915  -4.246  -7.717  0.00  0.00     0.001 A 
HETATM   18  C           1     -20.645  -3.968  -8.221  0.00  0.00     0.000 A 
HETATM   19  C           1     -19.514  -4.480  -7.585  0.00  0.00     0.001 A 
HETATM   20  C           1     -19.653  -5.271  -6.445  0.00  0.00     0.007 A 
ENDBRANCH  14  15
ENDBRANCH   1  14
BRANCH   1  21
HETATM   21  N           1     -21.201  -8.597  -5.831  0.00  0.00    -0.066 N 
HETATM   22  H           1     -21.945  -8.017  -6.281  0.00  0.00     0.275 HD
HETATM   23  H           1     -21.645  -9.357  -5.269  0.00  0.00     0.275 HD
HETATM   24  H           1     -20.593  -9.018  -6.568  0.00  0.00     0.275 HD
ENDBRANCH   1  21
TORSDOF 8
ENDMDL
MODEL 8
REMARK VINA RESULT:      -6.5      5.313      7.548
REMARK  8 active torsions:
REMARK  status: ('A' for Active; 'I' for Inactive)
REMARK    1  A    between atoms: C_2  and  C_3 
REMARK    2  A    between atoms: C_2  and  C_10 
REMARK    3  A    between atoms: C_2  and  N_20 
REMARK       I    between atoms: C_3  and  N_18 
REMARK    4  A    between atoms: C_8  and  C_11 
REMARK    5  A    between atoms: C_10  and  C_21 
REMARK    6  A    between atoms: C_11  and  C_12 
REMARK    7  A    between atoms: C_11  and  N_18 
REMARK    8  A    between atoms: C_12  and  C_17 
ROOT
HETATM    1  C           1     -33.002  -4.534 -16.664  0.00  0.00     0.278 C 
ENDROOT
BRANCH   1   2
HETATM    2  C           1     -33.832  -4.494 -15.404  0.00  0.00     0.249 C 
HETATM    3  O           1     -34.974  -4.889 -15.420  0.00  0.00    -0.271 OA
HETATM    4  N           1     -33.290  -4.013 -14.243  0.00  0.00    -0.344 N 
HETATM    5  H           1     -32.334  -3.682 -14.229  0.00  0.00     0.163 HD
BRANCH   4   6
HETATM    6  C           1     -34.087  -3.975 -13.032  0.00  0.00     0.195 C 
BRANCH   6   7
HETATM    7  C           1     -34.596  -2.571 -12.809  0.00  0.00     0.197 C 
HETATM    8  O           1     -35.052  -1.912 -13.768  0.00  0.00    -0.646 OA
HETATM    9  O           1     -34.558  -2.068 -11.666  0.00  0.00    -0.646 OA
ENDBRANCH   6   7
BRANCH   6  10
HETATM   10  C           1     -33.231  -4.398 -11.845  0.00  0.00     0.149 C 
BRANCH  10  11
HETATM   11  C           1     -33.960  -5.452 -11.050  0.00  0.00     0.175 C 
HETATM   12  O           1     -33.443  -6.578 -10.881  0.00  0.00    -0.648 OA
HETATM   13  O           1     -35.082  -5.200 -10.557  0.00  0.00    -0.648 OA
ENDBRANCH  10  11
ENDBRANCH   6  10
ENDBRANCH   4   6
ENDBRANCH   1   2
BRANCH   1  14
HETATM   14  C           1     -31.531  -4.685 -16.299  0.00  0.00     0.081 C 
BRANCH  14  15
HETATM   15  C           1     -30.917  -5.764 -17.137  0.00  0.00    -0.056 A 
HETATM   16  C           1     -29.550  -5.740 -17.411  0.00  0.00     0.007 A 
HETATM   17  C           1     -28.977  -6.744 -18.191  0.00  0.00     0.001 A 
HETATM   18  C           1     -29.773  -7.771 -18.699  0.00  0.00     0.000 A 
HETATM   19  C           1     -31.140  -7.795 -18.425  0.00  0.00     0.001 A 
HETATM   20  C           1     -31.713  -6.791 -17.645  0.00  0.00     0.007 A 
ENDBRANCH  14  15
ENDBRANCH   1  14
BRANCH   1  21
HETATM   21  N           1     -33.198  -3.260 -17.431  0.00  0.00    -0.066 N 
HETATM   22  H           1     -32.281  -2.769 -17.529  0.00  0.00     0.275 HD
HETATM   23  H           1     -33.871  -2.645 -16.921  0.00  0.00     0.275 HD
HETATM   24  H           1     -33.578  -3.481 -18.379  0.00  0.00     0.275 HD
ENDBRANCH   1  21
TORSDOF 8
ENDMDL
MODEL 9
REMARK VINA RESULT:      -6.5     16.298     18.819
REMARK  8 active torsions:
REMARK  status: ('A' for Active; 'I' for Inactive)
REMARK    1  A    between atoms: C_2  and  C_3 
REMARK    2  A    between atoms: C_2  and  C_10 
REMARK    3  A    between atoms: C_2  and  N_20 
REMARK       I    between atoms: C_3  and  N_18 
REMARK    4  A    between atoms: C_8  and  C_11 
REMARK    5  A    between atoms: C_10  and  C_21 
REMARK    6  A    between atoms: C_11  and  C_12 
REMARK    7  A    between atoms: C_11  and  N_18 
REMARK    8  A    between atoms: C_12  and  C_17 
ROOT
HETATM    1  C           1     -21.468  -6.257  -5.277  0.00  0.00     0.278 C 
ENDROOT
BRANCH   1   2
HETATM    2  C           1     -20.694  -7.551  -5.335  0.00  0.00     0.249 C 
HETATM    3  O           1     -19.729  -7.646  -6.056  0.00  0.00    -0.271 OA
HETATM    4  N           1     -21.085  -8.617  -4.570  0.00  0.00    -0.344 N 
HETATM    5  H           1     -21.893  -8.538  -3.967  0.00  0.00     0.163 HD
BRANCH   4   6
HETATM    6  C           1     -20.341  -9.860  -4.626  0.00  0.00     0.195 C 
BRANCH   6   7
HETATM    7  C           1     -21.142 -10.892  -5.383  0.00  0.00     0.197 C 
HETATM    8  O           1     -22.014 -11.564  -4.789  0.00  0.00    -0.646 OA
HETATM    9  O           1     -20.933 -11.075  -6.601  0.00  0.00    -0.646 OA
ENDBRANCH   6   7
BRANCH   6  10
HETATM   10  C           1     -20.080 -10.361  -3.211  0.00  0.00     0.149 C 
BRANCH  10  11
HETATM   11  C           1     -20.724  -9.424  -2.219  0.00  0.00     0.175 C 
HETATM   12  O           1     -21.899  -9.626  -1.841  0.00  0.00    -0.648 OA
HETATM   13  O           1     -20.084  -8.446  -1.775  0.00  0.00    -0.648 OA
ENDBRANCH  10  11
ENDBRANCH   6  10
ENDBRANCH   4   6
ENDBRANCH   1   2
BRANCH   1  14
HETATM   14  C           1     -20.575  -5.110  -5.733  0.00  0.00     0.081 C 
BRANCH  14  15
HETATM   15  C           1     -20.951  -4.707  -7.126  0.00  0.00    -0.056 A 
HETATM   16  C           1     -19.994  -4.730  -8.140  0.00  0.00     0.007 A 
HETATM   17  C           1     -20.343  -4.355  -9.437  0.00  0.00     0.001 A 
HETATM   18  C           1     -21.650  -3.956  -9.720  0.00  0.00     0.000 A 
HETATM   19  C           1     -22.607  -3.934  -8.705  0.00  0.00     0.001 A 
HETATM   20  C           1     -22.258  -4.309  -7.408  0.00  0.00     0.007 A 
ENDBRANCH  14  15
ENDBRANCH   1  14
BRANCH   1  21
HETATM   21  N           1     -21.921  -6.008  -3.869  0.00  0.00    -0.066 N 
HETATM   22  H           1     -21.864  -4.986  -3.662  0.00  0.00     0.275 HD
HETATM   23  H           1     -21.307  -6.533  -3.207  0.00  0.00     0.275 HD
HETATM   24  H           1     -22.908  -6.331  -3.760  0.00  0.00     0.275 HD
ENDBRANCH   1  21
TORSDOF 8
ENDMDL
