MODEL 1
REMARK VINA RESULT:      -5.5      0.000      0.000
REMARK  6 active torsions:
REMARK  status: ('A' for Active; 'I' for Inactive)
REMARK    1  A    between atoms: C_1  and  C_10 
REMARK    2  A    between atoms: C_1  and  N_2 
REMARK    3  A    between atoms: C_6  and  C_7 
REMARK    4  A    between atoms: C_6  and  C_14 
REMARK    5  A    between atoms: C_6  and  N_11 
REMARK    6  A    between atoms: C_7  and  S_8 
REMARK       I    between atoms: C_10  and  N_11 
ROOT
HETATM    1  H           1     -24.017  -1.419 -12.446  0.00  0.00     0.163 HD
HETATM    2  C           1     -23.451  -2.061 -14.331  0.00  0.00     0.243 C 
HETATM    3  N           1     -23.538  -2.143 -12.967  0.00  0.00    -0.344 N 
HETATM    4  O           1     -22.878  -2.924 -14.953  0.00  0.00    -0.272 OA
ENDROOT
BRANCH   3   5
HETATM    5  C           1     -22.942  -3.265 -12.269  0.00  0.00     0.194 C 
BRANCH   5   6
HETATM    6  C           1     -21.764  -2.775 -11.437  0.00  0.00     0.106 C 
BRANCH   6   7
HETATM    7  S           1     -20.626  -4.155 -11.128  0.00  0.00    -0.180 SA
HETATM    8  H           1     -21.297  -4.659 -10.078  0.00  0.00     0.101 HD
ENDBRANCH   6   7
ENDBRANCH   5   6
BRANCH   5   9
HETATM    9  C           1     -23.970  -3.896 -11.363  0.00  0.00     0.197 C 
HETATM   10  O           1     -23.860  -5.097 -11.033  0.00  0.00    -0.646 OA
HETATM   11  O           1     -24.934  -3.219 -10.944  0.00  0.00    -0.646 OA
ENDBRANCH   5   9
ENDBRANCH   3   5
BRANCH   2  12
HETATM   12  C           1     -24.071  -0.893 -15.059  0.00  0.00     0.332 C 
BRANCH  12  13
HETATM   13  N           1     -23.096  -0.352 -16.061  0.00  0.00    -0.071 N 
HETATM   14  H           1     -23.589   0.303 -16.709  0.00  0.00     0.274 HD
HETATM   15  H           1     -22.333   0.161 -15.563  0.00  0.00     0.274 HD
HETATM   16  H           1     -22.685  -1.141 -16.608  0.00  0.00     0.274 HD
ENDBRANCH  12  13
ENDBRANCH   2  12
TORSDOF 6
ENDMDL
MODEL 2
REMARK VINA RESULT:      -5.0      1.587      1.845
REMARK  6 active torsions:
REMARK  status: ('A' for Active; 'I' for Inactive)
REMARK    1  A    between atoms: C_1  and  C_10 
REMARK    2  A    between atoms: C_1  and  N_2 
REMARK    3  A    between atoms: C_6  and  C_7 
REMARK    4  A    between atoms: C_6  and  C_14 
REMARK    5  A    between atoms: C_6  and  N_11 
REMARK    6  A    between atoms: C_7  and  S_8 
REMARK       I    between atoms: C_10  and  N_11 
ROOT
HETATM    1  H           1     -22.749  -2.129 -11.677  0.00  0.00     0.163 HD
HETATM    2  C           1     -23.809  -2.962 -13.248  0.00  0.00     0.243 C 
HETATM    3  N           1     -23.282  -2.932 -11.984  0.00  0.00    -0.344 N 
HETATM    4  O           1     -24.444  -3.922 -13.615  0.00  0.00    -0.272 OA
ENDROOT
BRANCH   3   5
HETATM    5  C           1     -23.488  -4.052 -11.087  0.00  0.00     0.194 C 
BRANCH   5   6
HETATM    6  C           1     -22.142  -4.534 -10.561  0.00  0.00     0.106 C 
BRANCH   6   7
HETATM    7  S           1     -20.828  -3.439 -11.169  0.00  0.00    -0.180 SA
HETATM    8  H           1     -21.587  -2.332 -11.235  0.00  0.00     0.101 HD
ENDBRANCH   6   7
ENDBRANCH   5   6
BRANCH   5   9
HETATM    9  C           1     -24.354  -3.616  -9.930  0.00  0.00     0.197 C 
HETATM   10  O           1     -25.493  -3.149 -10.143  0.00  0.00    -0.646 OA
HETATM   11  O           1     -23.931  -3.722  -8.758  0.00  0.00    -0.646 OA
ENDBRANCH   5   9
ENDBRANCH   3   5
BRANCH   2  12
HETATM   12  C           1     -23.595  -1.797 -14.183  0.00  0.00     0.332 C 
BRANCH  12  13
HETATM   13  N           1     -22.761  -2.237 -15.349  0.00  0.00    -0.071 N 
HETATM   14  H           1     -22.616  -3.271 -15.304  0.00  0.00     0.274 HD
HETATM   15  H           1     -23.252  -1.993 -16.239  0.00  0.00     0.274 HD
HETATM   16  H           1     -21.835  -1.753 -15.317  0.00  0.00     0.274 HD
ENDBRANCH  12  13
ENDBRANCH   2  12
TORSDOF 6
ENDMDL
MODEL 3
REMARK VINA RESULT:      -4.9      7.577      8.031
REMARK  6 active torsions:
REMARK  status: ('A' for Active; 'I' for Inactive)
REMARK    1  A    between atoms: C_1  and  C_10 
REMARK    2  A    between atoms: C_1  and  N_2 
REMARK    3  A    between atoms: C_6  and  C_7 
REMARK    4  A    between atoms: C_6  and  C_14 
REMARK    5  A    between atoms: C_6  and  N_11 
REMARK    6  A    between atoms: C_7  and  S_8 
REMARK       I    between atoms: C_10  and  N_11 
ROOT
HETATM    1  H           1     -27.566  -7.926 -15.347  0.00  0.00     0.163 HD
HETATM    2  C           1     -26.369  -6.586 -16.375  0.00  0.00     0.243 C 
HETATM    3  N           1     -27.556  -7.169 -16.019  0.00  0.00    -0.344 N 
HETATM    4  O           1     -26.357  -5.684 -17.179  0.00  0.00    -0.272 OA
ENDROOT
BRANCH   3   5
HETATM    5  C           1     -28.797  -6.704 -16.607  0.00  0.00     0.194 C 
BRANCH   5   6
HETATM    6  C           1     -29.650  -7.903 -17.003  0.00  0.00     0.106 C 
BRANCH   6   7
HETATM    7  S           1     -30.085  -7.781 -18.761  0.00  0.00    -0.180 SA
HETATM    8  H           1     -29.389  -8.863 -19.153  0.00  0.00     0.101 HD
ENDBRANCH   6   7
ENDBRANCH   5   6
BRANCH   5   9
HETATM    9  C           1     -29.545  -5.864 -15.601  0.00  0.00     0.197 C 
HETATM   10  O           1     -30.481  -5.126 -15.975  0.00  0.00    -0.646 OA
HETATM   11  O           1     -29.228  -5.907 -14.392  0.00  0.00    -0.646 OA
ENDBRANCH   5   9
ENDBRANCH   3   5
BRANCH   2  12
HETATM   12  C           1     -25.077  -7.069 -15.765  0.00  0.00     0.332 C 
BRANCH  12  13
HETATM   13  N           1     -24.271  -7.791 -16.803  0.00  0.00    -0.071 N 
HETATM   14  H           1     -24.878  -8.011 -17.625  0.00  0.00     0.274 HD
HETATM   15  H           1     -23.476  -7.185 -17.110  0.00  0.00     0.274 HD
HETATM   16  H           1     -23.897  -8.678 -16.399  0.00  0.00     0.274 HD
ENDBRANCH  12  13
ENDBRANCH   2  12
TORSDOF 6
ENDMDL
MODEL 4
REMARK VINA RESULT:      -4.8     12.748     13.637
REMARK  6 active torsions:
REMARK  status: ('A' for Active; 'I' for Inactive)
REMARK    1  A    between atoms: C_1  and  C_10 
REMARK    2  A    between atoms: C_1  and  N_2 
REMARK    3  A    between atoms: C_6  and  C_7 
REMARK    4  A    between atoms: C_6  and  C_14 
REMARK    5  A    between atoms: C_6  and  N_11 
REMARK    6  A    between atoms: C_7  and  S_8 
REMARK       I    between atoms: C_10  and  N_11 
ROOT
HETATM    1  H           1     -35.409   0.916 -10.968  0.00  0.00     0.163 HD
HETATM    2  C           1     -37.285   0.054 -10.823  0.00  0.00     0.243 C 
HETATM    3  N           1     -36.070   0.289 -11.408  0.00  0.00    -0.344 N 
HETATM    4  O           1     -38.074  -0.694 -11.350  0.00  0.00    -0.272 OA
ENDROOT
BRANCH   3   5
HETATM    5  C           1     -35.730  -0.361 -12.659  0.00  0.00     0.194 C 
BRANCH   5   6
HETATM    6  C           1     -35.061   0.645 -13.587  0.00  0.00     0.106 C 
BRANCH   6   7
HETATM    7  S           1     -35.747   0.477 -15.259  0.00  0.00    -0.180 SA
HETATM    8  H           1     -35.349   1.684 -15.697  0.00  0.00     0.101 HD
ENDBRANCH   6   7
ENDBRANCH   5   6
BRANCH   5   9
HETATM    9  C           1     -34.784  -1.505 -12.390  0.00  0.00     0.197 C 
HETATM   10  O           1     -34.126  -1.536 -11.328  0.00  0.00    -0.646 OA
HETATM   11  O           1     -34.657  -2.422 -13.231  0.00  0.00    -0.646 OA
ENDBRANCH   5   9
ENDBRANCH   3   5
BRANCH   2  12
HETATM   12  C           1     -37.640   0.730  -9.521  0.00  0.00     0.332 C 
BRANCH  12  13
HETATM   13  N           1     -36.392   1.246  -8.869  0.00  0.00    -0.071 N 
HETATM   14  H           1     -36.567   2.204  -8.490  0.00  0.00     0.274 HD
HETATM   15  H           1     -36.119   0.608  -8.087  0.00  0.00     0.274 HD
HETATM   16  H           1     -35.621   1.285  -9.573  0.00  0.00     0.274 HD
ENDBRANCH  12  13
ENDBRANCH   2  12
TORSDOF 6
ENDMDL
MODEL 5
REMARK VINA RESULT:      -4.8     11.872     12.400
REMARK  6 active torsions:
REMARK  status: ('A' for Active; 'I' for Inactive)
REMARK    1  A    between atoms: C_1  and  C_10 
REMARK    2  A    between atoms: C_1  and  N_2 
REMARK    3  A    between atoms: C_6  and  C_7 
REMARK    4  A    between atoms: C_6  and  C_14 
REMARK    5  A    between atoms: C_6  and  N_11 
REMARK    6  A    between atoms: C_7  and  S_8 
REMARK       I    between atoms: C_10  and  N_11 
ROOT
HETATM    1  H           1     -34.097   0.196 -11.773  0.00  0.00     0.163 HD
HETATM    2  C           1     -35.204  -0.266 -13.460  0.00  0.00     0.243 C 
HETATM    3  N           1     -34.751  -0.459 -12.182  0.00  0.00    -0.344 N 
HETATM    4  O           1     -35.984  -1.049 -13.948  0.00  0.00    -0.272 OA
ENDROOT
BRANCH   3   5
HETATM    5  C           1     -35.209  -1.601 -11.415  0.00  0.00     0.194 C 
BRANCH   5   6
HETATM    6  C           1     -34.058  -2.142 -10.577  0.00  0.00     0.106 C 
BRANCH   6   7
HETATM    7  S           1     -33.214  -3.464 -11.491  0.00  0.00    -0.180 SA
HETATM    8  H           1     -32.170  -2.716 -11.889  0.00  0.00     0.101 HD
ENDBRANCH   6   7
ENDBRANCH   5   6
BRANCH   5   9
HETATM    9  C           1     -36.337  -1.176 -10.506  0.00  0.00     0.197 C 
HETATM   10  O           1     -37.522  -1.406 -10.831  0.00  0.00    -0.646 OA
HETATM   11  O           1     -36.086  -0.594  -9.429  0.00  0.00    -0.646 OA
ENDBRANCH   5   9
ENDBRANCH   3   5
BRANCH   2  12
HETATM   12  C           1     -34.728   0.922 -14.258  0.00  0.00     0.332 C 
BRANCH  12  13
HETATM   13  N           1     -35.830   1.395 -15.158  0.00  0.00    -0.071 N 
HETATM   14  H           1     -35.626   2.368 -15.478  0.00  0.00     0.274 HD
HETATM   15  H           1     -35.898   0.763 -15.988  0.00  0.00     0.274 HD
HETATM   16  H           1     -36.735   1.382 -14.636  0.00  0.00     0.274 HD
ENDBRANCH  12  13
ENDBRANCH   2  12
TORSDOF 6
ENDMDL
MODEL 6
REMARK VINA RESULT:      -4.7      7.106      7.486
REMARK  6 active torsions:
REMARK  status: ('A' for Active; 'I' for Inactive)
REMARK    1  A    between atoms: C_1  and  C_10 
REMARK    2  A    between atoms: C_1  and  N_2 
REMARK    3  A    between atoms: C_6  and  C_7 
REMARK    4  A    between atoms: C_6  and  C_14 
REMARK    5  A    between atoms: C_6  and  N_11 
REMARK    6  A    between atoms: C_7  and  S_8 
REMARK       I    between atoms: C_10  and  N_11 
ROOT
HETATM    1  H           1     -25.549  -7.224 -18.066  0.00  0.00     0.163 HD
HETATM    2  C           1     -27.160  -6.267 -18.946  0.00  0.00     0.243 C 
HETATM    3  N           1     -26.369  -6.655 -17.898  0.00  0.00    -0.344 N 
HETATM    4  O           1     -28.139  -5.588 -18.744  0.00  0.00    -0.272 OA
ENDROOT
BRANCH   3   5
HETATM    5  C           1     -26.707  -6.252 -16.546  0.00  0.00     0.194 C 
BRANCH   5   6
HETATM    6  C           1     -27.830  -7.136 -16.020  0.00  0.00     0.106 C 
BRANCH   6   7
HETATM    7  S           1     -29.105  -6.100 -15.250  0.00  0.00    -0.180 SA
HETATM    8  H           1     -29.358  -6.929 -14.222  0.00  0.00     0.101 HD
ENDBRANCH   6   7
ENDBRANCH   5   6
BRANCH   5   9
HETATM    9  C           1     -25.494  -6.397 -15.661  0.00  0.00     0.197 C 
HETATM   10  O           1     -24.925  -5.381 -15.207  0.00  0.00    -0.646 OA
HETATM   11  O           1     -25.057  -7.535 -15.382  0.00  0.00    -0.646 OA
ENDBRANCH   5   9
ENDBRANCH   3   5
BRANCH   2  12
HETATM   12  C           1     -26.809  -6.686 -20.352  0.00  0.00     0.332 C 
BRANCH  12  13
HETATM   13  N           1     -27.274  -8.092 -20.587  0.00  0.00    -0.071 N 
HETATM   14  H           1     -27.226  -8.310 -21.608  0.00  0.00     0.274 HD
HETATM   15  H           1     -26.660  -8.754 -20.061  0.00  0.00     0.274 HD
HETATM   16  H           1     -28.260  -8.192 -20.255  0.00  0.00     0.274 HD
ENDBRANCH  12  13
ENDBRANCH   2  12
TORSDOF 6
ENDMDL
MODEL 7
REMARK VINA RESULT:      -4.6     11.593     12.588
REMARK  6 active torsions:
REMARK  status: ('A' for Active; 'I' for Inactive)
REMARK    1  A    between atoms: C_1  and  C_10 
REMARK    2  A    between atoms: C_1  and  N_2 
REMARK    3  A    between atoms: C_6  and  C_7 
REMARK    4  A    between atoms: C_6  and  C_14 
REMARK    5  A    between atoms: C_6  and  N_11 
REMARK    6  A    between atoms: C_7  and  S_8 
REMARK       I    between atoms: C_10  and  N_11 
ROOT
HETATM    1  H           1     -35.545  -2.999 -12.265  0.00  0.00     0.163 HD
HETATM    2  C           1     -33.902  -2.607 -11.070  0.00  0.00     0.243 C 
HETATM    3  N           1     -34.993  -2.274 -11.826  0.00  0.00    -0.344 N 
HETATM    4  O           1     -33.242  -1.741 -10.546  0.00  0.00    -0.272 OA
ENDROOT
BRANCH   3   5
HETATM    5  C           1     -35.357  -0.881 -11.999  0.00  0.00     0.194 C 
BRANCH   5   6
HETATM    6  C           1     -35.749  -0.637 -13.451  0.00  0.00     0.106 C 
BRANCH   6   7
HETATM    7  S           1     -34.921   0.859 -14.059  0.00  0.00    -0.180 SA
HETATM    8  H           1     -34.605   0.364 -15.268  0.00  0.00     0.101 HD
ENDBRANCH   6   7
ENDBRANCH   5   6
BRANCH   5   9
HETATM    9  C           1     -36.522  -0.551 -11.100  0.00  0.00     0.197 C 
HETATM   10  O           1     -37.580  -1.212 -11.178  0.00  0.00    -0.646 OA
HETATM   11  O           1     -36.430   0.385 -10.276  0.00  0.00    -0.646 OA
ENDBRANCH   5   9
ENDBRANCH   3   5
BRANCH   2  12
HETATM   12  C           1     -33.522  -4.056 -10.889  0.00  0.00     0.332 C 
BRANCH  12  13
HETATM   13  N           1     -32.696  -4.507 -12.056  0.00  0.00    -0.071 N 
HETATM   14  H           1     -33.061  -5.420 -12.411  0.00  0.00     0.274 HD
HETATM   15  H           1     -32.748  -3.792 -12.817  0.00  0.00     0.274 HD
HETATM   16  H           1     -31.702  -4.623 -11.755  0.00  0.00     0.274 HD
ENDBRANCH  12  13
ENDBRANCH   2  12
TORSDOF 6
ENDMDL
MODEL 8
REMARK VINA RESULT:      -4.6      4.274      6.043
REMARK  6 active torsions:
REMARK  status: ('A' for Active; 'I' for Inactive)
REMARK    1  A    between atoms: C_1  and  C_10 
REMARK    2  A    between atoms: C_1  and  N_2 
REMARK    3  A    between atoms: C_6  and  C_7 
REMARK    4  A    between atoms: C_6  and  C_14 
REMARK    5  A    between atoms: C_6  and  N_11 
REMARK    6  A    between atoms: C_7  and  S_8 
REMARK       I    between atoms: C_10  and  N_11 
ROOT
HETATM    1  H           1     -22.318  -5.771  -8.899  0.00  0.00     0.163 HD
HETATM    2  C           1     -21.611  -4.420  -7.500  0.00  0.00     0.243 C 
HETATM    3  N           1     -22.208  -4.790  -8.675  0.00  0.00    -0.344 N 
HETATM    4  O           1     -21.478  -3.249  -7.233  0.00  0.00    -0.272 OA
ENDROOT
BRANCH   3   5
HETATM    5  C           1     -22.682  -3.778  -9.598  0.00  0.00     0.194 C 
BRANCH   5   6
HETATM    6  C           1     -22.073  -4.022 -10.973  0.00  0.00     0.106 C 
BRANCH   6   7
HETATM    7  S           1     -22.710  -2.791 -12.144  0.00  0.00    -0.180 SA
HETATM    8  H           1     -23.851  -3.444 -12.429  0.00  0.00     0.101 HD
ENDBRANCH   6   7
ENDBRANCH   5   6
BRANCH   5   9
HETATM    9  C           1     -24.186  -3.850  -9.694  0.00  0.00     0.197 C 
HETATM   10  O           1     -24.876  -2.832  -9.470  0.00  0.00    -0.646 OA
HETATM   11  O           1     -24.742  -4.928  -9.996  0.00  0.00    -0.646 OA
ENDBRANCH   5   9
ENDBRANCH   3   5
BRANCH   2  12
HETATM   12  C           1     -21.117  -5.473  -6.539  0.00  0.00     0.332 C 
BRANCH  12  13
HETATM   13  N           1     -20.049  -6.292  -7.198  0.00  0.00    -0.071 N 
HETATM   14  H           1     -20.490  -6.995  -7.833  0.00  0.00     0.274 HD
HETATM   15  H           1     -19.423  -5.666  -7.755  0.00  0.00     0.274 HD
HETATM   16  H           1     -19.488  -6.786  -6.468  0.00  0.00     0.274 HD
ENDBRANCH  12  13
ENDBRANCH   2  12
TORSDOF 6
ENDMDL
MODEL 9
REMARK VINA RESULT:      -4.6     11.593     12.563
REMARK  6 active torsions:
REMARK  status: ('A' for Active; 'I' for Inactive)
REMARK    1  A    between atoms: C_1  and  C_10 
REMARK    2  A    between atoms: C_1  and  N_2 
REMARK    3  A    between atoms: C_6  and  C_7 
REMARK    4  A    between atoms: C_6  and  C_14 
REMARK    5  A    between atoms: C_6  and  N_11 
REMARK    6  A    between atoms: C_7  and  S_8 
REMARK       I    between atoms: C_10  and  N_11 
ROOT
HETATM    1  H           1     -34.845  -1.088 -11.385  0.00  0.00     0.163 HD
HETATM    2  C           1     -34.349  -2.688 -12.601  0.00  0.00     0.243 C 
HETATM    3  N           1     -34.971  -1.507 -12.298  0.00  0.00    -0.344 N 
HETATM    4  O           1     -34.502  -3.189 -13.690  0.00  0.00    -0.272 OA
ENDROOT
BRANCH   3   5
HETATM    5  C           1     -35.813  -0.857 -13.284  0.00  0.00     0.194 C 
BRANCH   5   6
HETATM    6  C           1     -36.994  -0.196 -12.584  0.00  0.00     0.106 C 
BRANCH   6   7
HETATM    7  S           1     -36.766  -0.296 -10.786  0.00  0.00    -0.180 SA
HETATM    8  H           1     -36.437  -1.599 -10.758  0.00  0.00     0.101 HD
ENDBRANCH   6   7
ENDBRANCH   5   6
BRANCH   5   9
HETATM    9  C           1     -35.011   0.191 -14.016  0.00  0.00     0.197 C 
HETATM   10  O           1     -34.710   0.022 -15.217  0.00  0.00    -0.646 OA
HETATM   11  O           1     -34.646   1.228 -13.421  0.00  0.00    -0.646 OA
ENDBRANCH   5   9
ENDBRANCH   3   5
BRANCH   2  12
HETATM   12  C           1     -33.473  -3.365 -11.576  0.00  0.00     0.332 C 
BRANCH  12  13
HETATM   13  N           1     -32.691  -4.463 -12.232  0.00  0.00    -0.071 N 
HETATM   14  H           1     -33.294  -4.950 -12.933  0.00  0.00     0.274 HD
HETATM   15  H           1     -31.857  -4.057 -12.714  0.00  0.00     0.274 HD
HETATM   16  H           1     -32.377  -5.148 -11.508  0.00  0.00     0.274 HD
ENDBRANCH  12  13
ENDBRANCH   2  12
TORSDOF 6
ENDMDL
