MODEL 1
REMARK VINA RESULT:      -6.2      0.000      0.000
REMARK  6 active torsions:
REMARK  status: ('A' for Active; 'I' for Inactive)
REMARK    1  A    between atoms: N_5  and  C_15 
REMARK       I    between atoms: N_5  and  C_17 
REMARK       I    between atoms: C_7  and  N_20 
REMARK    2  A    between atoms: C_7  and  C_12 
REMARK    3  A    between atoms: N_9  and  C_11 
REMARK    4  A    between atoms: C_11  and  C_17 
REMARK    5  A    between atoms: C_12  and  C_15 
REMARK    6  A    between atoms: C_13  and  C_15 
ROOT
HETATM    1  N           1     -35.009  -1.662 -13.311  0.00  0.00    -0.344 N 
HETATM    2  H           1     -35.190  -2.047 -14.229  0.00  0.00     0.163 HD
HETATM    3  C           1     -34.414  -2.434 -12.350  0.00  0.00     0.248 C 
HETATM    4  O           1     -34.198  -1.973 -11.254  0.00  0.00    -0.271 OA
ENDROOT
BRANCH   1   5
HETATM    5  C           1     -35.382  -0.293 -13.013  0.00  0.00     0.194 C 
BRANCH   5   6
HETATM    6  C           1     -35.091   0.586 -14.223  0.00  0.00     0.138 C 
BRANCH   6   7
HETATM    7  C           1     -35.505  -0.136 -15.481  0.00  0.00     0.217 C 
HETATM    8  O           1     -34.787  -0.985 -15.954  0.00  0.00    -0.274 OA
HETATM    9  N           1     -36.694   0.171 -16.088  0.00  0.00    -0.370 N 
HETATM   10  H           1     -36.971  -0.313 -16.931  0.00  0.00     0.159 HD
HETATM   11  H           1     -37.295   0.883 -15.692  0.00  0.00     0.159 HD
ENDBRANCH   6   7
ENDBRANCH   5   6
BRANCH   5  12
HETATM   12  C           1     -36.853  -0.231 -12.688  0.00  0.00     0.197 C 
HETATM   13  O           1     -37.685  -0.769 -13.451  0.00  0.00    -0.646 OA
HETATM   14  O           1     -37.242   0.357 -11.656  0.00  0.00    -0.646 OA
ENDBRANCH   5  12
ENDBRANCH   1   5
BRANCH   3  15
HETATM   15  C           1     -34.027  -3.859 -12.660  0.00  0.00     0.270 C 
HETATM   16  C           1     -32.725  -4.198 -11.947  0.00  0.00     0.050 C 
BRANCH  15  17
HETATM   17  N           1     -33.840  -4.016 -14.140  0.00  0.00    -0.067 N 
HETATM   18  H           1     -34.506  -3.388 -14.644  0.00  0.00     0.275 HD
HETATM   19  H           1     -34.023  -5.008 -14.410  0.00  0.00     0.275 HD
HETATM   20  H           1     -32.860  -3.760 -14.397  0.00  0.00     0.275 HD
ENDBRANCH  15  17
ENDBRANCH   3  15
TORSDOF 6
ENDMDL
MODEL 2
REMARK VINA RESULT:      -6.1     12.476     14.466
REMARK  6 active torsions:
REMARK  status: ('A' for Active; 'I' for Inactive)
REMARK    1  A    between atoms: N_5  and  C_15 
REMARK       I    between atoms: N_5  and  C_17 
REMARK       I    between atoms: C_7  and  N_20 
REMARK    2  A    between atoms: C_7  and  C_12 
REMARK    3  A    between atoms: N_9  and  C_11 
REMARK    4  A    between atoms: C_11  and  C_17 
REMARK    5  A    between atoms: C_12  and  C_15 
REMARK    6  A    between atoms: C_13  and  C_15 
ROOT
HETATM    1  N           1     -22.359  -4.834  -8.562  0.00  0.00    -0.344 N 
HETATM    2  H           1     -22.529  -5.825  -8.671  0.00  0.00     0.163 HD
HETATM    3  C           1     -21.744  -4.364  -7.433  0.00  0.00     0.248 C 
HETATM    4  O           1     -21.542  -3.180  -7.304  0.00  0.00    -0.271 OA
ENDROOT
BRANCH   1   5
HETATM    5  C           1     -22.769  -3.910  -9.602  0.00  0.00     0.194 C 
BRANCH   5   6
HETATM    6  C           1     -22.210  -4.372 -10.941  0.00  0.00     0.138 C 
BRANCH   6   7
HETATM    7  C           1     -20.734  -4.065 -11.003  0.00  0.00     0.217 C 
HETATM    8  O           1     -19.933  -4.853 -10.559  0.00  0.00    -0.274 OA
HETATM    9  N           1     -20.302  -2.892 -11.563  0.00  0.00    -0.370 N 
HETATM   10  H           1     -19.312  -2.686 -11.604  0.00  0.00     0.159 HD
HETATM   11  H           1     -20.973  -2.232 -11.934  0.00  0.00     0.159 HD
ENDBRANCH   6   7
ENDBRANCH   5   6
BRANCH   5  12
HETATM   12  C           1     -24.276  -3.869  -9.672  0.00  0.00     0.197 C 
HETATM   13  O           1     -24.921  -4.920  -9.877  0.00  0.00    -0.646 OA
HETATM   14  O           1     -24.879  -2.784  -9.526  0.00  0.00    -0.646 OA
ENDBRANCH   5  12
ENDBRANCH   1   5
BRANCH   3  15
HETATM   15  C           1     -21.317  -5.326  -6.351  0.00  0.00     0.270 C 
HETATM   16  C           1     -20.182  -4.711  -5.544  0.00  0.00     0.050 C 
BRANCH  15  17
HETATM   17  N           1     -20.849  -6.606  -6.977  0.00  0.00    -0.067 N 
HETATM   18  H           1     -20.425  -7.218  -6.243  0.00  0.00     0.275 HD
HETATM   19  H           1     -20.135  -6.394  -7.710  0.00  0.00     0.275 HD
HETATM   20  H           1     -21.660  -7.098  -7.414  0.00  0.00     0.275 HD
ENDBRANCH  15  17
ENDBRANCH   3  15
TORSDOF 6
ENDMDL
MODEL 3
REMARK VINA RESULT:      -5.9      1.537      4.408
REMARK  6 active torsions:
REMARK  status: ('A' for Active; 'I' for Inactive)
REMARK    1  A    between atoms: N_5  and  C_15 
REMARK       I    between atoms: N_5  and  C_17 
REMARK       I    between atoms: C_7  and  N_20 
REMARK    2  A    between atoms: C_7  and  C_12 
REMARK    3  A    between atoms: N_9  and  C_11 
REMARK    4  A    between atoms: C_11  and  C_17 
REMARK    5  A    between atoms: C_12  and  C_15 
REMARK    6  A    between atoms: C_13  and  C_15 
ROOT
HETATM    1  N           1     -34.717  -1.257 -12.948  0.00  0.00    -0.344 N 
HETATM    2  H           1     -33.779  -0.948 -13.171  0.00  0.00     0.163 HD
HETATM    3  C           1     -35.787  -0.731 -13.619  0.00  0.00     0.248 C 
HETATM    4  O           1     -36.907  -1.099 -13.353  0.00  0.00    -0.271 OA
ENDROOT
BRANCH   1   5
HETATM    5  C           1     -34.925  -2.254 -11.917  0.00  0.00     0.194 C 
BRANCH   5   6
HETATM    6  C           1     -33.891  -3.361 -12.065  0.00  0.00     0.138 C 
BRANCH   6   7
HETATM    7  C           1     -34.289  -4.275 -13.198  0.00  0.00     0.217 C 
HETATM    8  O           1     -34.218  -3.887 -14.340  0.00  0.00    -0.274 OA
HETATM    9  N           1     -34.732  -5.543 -12.931  0.00  0.00    -0.370 N 
HETATM   10  H           1     -34.999  -6.155 -13.691  0.00  0.00     0.159 HD
HETATM   11  H           1     -34.791  -5.868 -11.975  0.00  0.00     0.159 HD
ENDBRANCH   6   7
ENDBRANCH   5   6
BRANCH   5  12
HETATM   12  C           1     -34.784  -1.611 -10.560  0.00  0.00     0.197 C 
HETATM   13  O           1     -35.736  -0.960 -10.074  0.00  0.00    -0.646 OA
HETATM   14  O           1     -33.717  -1.728  -9.919  0.00  0.00    -0.646 OA
ENDBRANCH   5  12
ENDBRANCH   1   5
BRANCH   3  15
HETATM   15  C           1     -35.570   0.307 -14.693  0.00  0.00     0.270 C 
HETATM   16  C           1     -34.718   1.441 -14.138  0.00  0.00     0.050 C 
BRANCH  15  17
HETATM   17  N           1     -36.894   0.850 -15.140  0.00  0.00    -0.067 N 
HETATM   18  H           1     -37.085   1.752 -14.649  0.00  0.00     0.275 HD
HETATM   19  H           1     -37.647   0.162 -14.910  0.00  0.00     0.275 HD
HETATM   20  H           1     -36.875   1.012 -16.172  0.00  0.00     0.275 HD
ENDBRANCH  15  17
ENDBRANCH   3  15
TORSDOF 6
ENDMDL
MODEL 4
REMARK VINA RESULT:      -5.8     11.972     13.867
REMARK  6 active torsions:
REMARK  status: ('A' for Active; 'I' for Inactive)
REMARK    1  A    between atoms: N_5  and  C_15 
REMARK       I    between atoms: N_5  and  C_17 
REMARK       I    between atoms: C_7  and  N_20 
REMARK    2  A    between atoms: C_7  and  C_12 
REMARK    3  A    between atoms: N_9  and  C_11 
REMARK    4  A    between atoms: C_11  and  C_17 
REMARK    5  A    between atoms: C_12  and  C_15 
REMARK    6  A    between atoms: C_13  and  C_15 
ROOT
HETATM    1  N           1     -22.152  -4.884  -8.815  0.00  0.00    -0.344 N 
HETATM    2  H           1     -22.218  -5.878  -8.991  0.00  0.00     0.163 HD
HETATM    3  C           1     -21.575  -4.430  -7.660  0.00  0.00     0.248 C 
HETATM    4  O           1     -21.496  -3.243  -7.451  0.00  0.00    -0.271 OA
ENDROOT
BRANCH   1   5
HETATM    5  C           1     -22.670  -3.940  -9.787  0.00  0.00     0.194 C 
BRANCH   5   6
HETATM    6  C           1     -22.243  -4.367 -11.185  0.00  0.00     0.138 C 
BRANCH   6   7
HETATM    7  C           1     -22.734  -3.355 -12.192  0.00  0.00     0.217 C 
HETATM    8  O           1     -22.464  -2.185 -12.053  0.00  0.00    -0.274 OA
HETATM    9  N           1     -23.484  -3.762 -13.263  0.00  0.00    -0.370 N 
HETATM   10  H           1     -23.812  -3.084 -13.937  0.00  0.00     0.159 HD
HETATM   11  H           1     -23.709  -4.742 -13.379  0.00  0.00     0.159 HD
ENDBRANCH   6   7
ENDBRANCH   5   6
BRANCH   5  12
HETATM   12  C           1     -24.175  -3.911  -9.706  0.00  0.00     0.197 C 
HETATM   13  O           1     -24.832  -4.959  -9.890  0.00  0.00    -0.646 OA
HETATM   14  O           1     -24.768  -2.839  -9.455  0.00  0.00    -0.646 OA
ENDBRANCH   5  12
ENDBRANCH   1   5
BRANCH   3  15
HETATM   15  C           1     -21.036  -5.412  -6.649  0.00  0.00     0.270 C 
HETATM   16  C           1     -20.290  -4.658  -5.556  0.00  0.00     0.050 C 
BRANCH  15  17
HETATM   17  N           1     -20.097  -6.364  -7.329  0.00  0.00    -0.067 N 
HETATM   18  H           1     -20.274  -6.353  -8.358  0.00  0.00     0.275 HD
HETATM   19  H           1     -20.252  -7.329  -6.957  0.00  0.00     0.275 HD
HETATM   20  H           1     -19.111  -6.074  -7.142  0.00  0.00     0.275 HD
ENDBRANCH  15  17
ENDBRANCH   3  15
TORSDOF 6
ENDMDL
MODEL 5
REMARK VINA RESULT:      -5.5      9.021     11.189
REMARK  6 active torsions:
REMARK  status: ('A' for Active; 'I' for Inactive)
REMARK    1  A    between atoms: N_5  and  C_15 
REMARK       I    between atoms: N_5  and  C_17 
REMARK       I    between atoms: C_7  and  N_20 
REMARK    2  A    between atoms: C_7  and  C_12 
REMARK    3  A    between atoms: N_9  and  C_11 
REMARK    4  A    between atoms: C_11  and  C_17 
REMARK    5  A    between atoms: C_12  and  C_15 
REMARK    6  A    between atoms: C_13  and  C_15 
ROOT
HETATM    1  N           1     -26.338  -6.672 -17.977  0.00  0.00    -0.344 N 
HETATM    2  H           1     -25.531  -7.265 -18.118  0.00  0.00     0.163 HD
HETATM    3  C           1     -27.069  -6.243 -19.051  0.00  0.00     0.248 C 
HETATM    4  O           1     -28.033  -5.535 -18.882  0.00  0.00    -0.271 OA
ENDROOT
BRANCH   1   5
HETATM    5  C           1     -26.718  -6.274 -16.635  0.00  0.00     0.194 C 
BRANCH   5   6
HETATM    6  C           1     -27.856  -7.160 -16.146  0.00  0.00     0.138 C 
BRANCH   6   7
HETATM    7  C           1     -29.084  -6.317 -15.907  0.00  0.00     0.217 C 
HETATM    8  O           1     -29.147  -5.604 -14.934  0.00  0.00    -0.274 OA
HETATM    9  N           1     -30.128  -6.361 -16.793  0.00  0.00    -0.370 N 
HETATM   10  H           1     -30.951  -5.796 -16.632  0.00  0.00     0.159 HD
HETATM   11  H           1     -30.075  -6.959 -17.607  0.00  0.00     0.159 HD
ENDBRANCH   6   7
ENDBRANCH   5   6
BRANCH   5  12
HETATM   12  C           1     -25.534  -6.419 -15.713  0.00  0.00     0.197 C 
HETATM   13  O           1     -25.120  -7.557 -15.401  0.00  0.00    -0.646 OA
HETATM   14  O           1     -24.965  -5.402 -15.260  0.00  0.00    -0.646 OA
ENDBRANCH   5  12
ENDBRANCH   1   5
BRANCH   3  15
HETATM   15  C           1     -26.673  -6.658 -20.447  0.00  0.00     0.270 C 
HETATM   16  C           1     -27.239  -8.040 -20.746  0.00  0.00     0.050 C 
BRANCH  15  17
HETATM   17  N           1     -25.178  -6.698 -20.551  0.00  0.00    -0.067 N 
HETATM   18  H           1     -24.841  -7.670 -20.367  0.00  0.00     0.275 HD
HETATM   19  H           1     -24.763  -6.045 -19.849  0.00  0.00     0.275 HD
HETATM   20  H           1     -24.887  -6.405 -21.511  0.00  0.00     0.275 HD
ENDBRANCH  15  17
ENDBRANCH   3  15
TORSDOF 6
ENDMDL
MODEL 6
REMARK VINA RESULT:      -5.5      1.563      1.921
REMARK  6 active torsions:
REMARK  status: ('A' for Active; 'I' for Inactive)
REMARK    1  A    between atoms: N_5  and  C_15 
REMARK       I    between atoms: N_5  and  C_17 
REMARK       I    between atoms: C_7  and  N_20 
REMARK    2  A    between atoms: C_7  and  C_12 
REMARK    3  A    between atoms: N_9  and  C_11 
REMARK    4  A    between atoms: C_11  and  C_17 
REMARK    5  A    between atoms: C_12  and  C_15 
REMARK    6  A    between atoms: C_13  and  C_15 
ROOT
HETATM    1  N           1     -35.255  -1.781 -12.306  0.00  0.00    -0.344 N 
HETATM    2  H           1     -35.676  -2.442 -12.946  0.00  0.00     0.163 HD
HETATM    3  C           1     -34.148  -2.137 -11.584  0.00  0.00     0.248 C 
HETATM    4  O           1     -33.645  -1.348 -10.821  0.00  0.00    -0.271 OA
ENDROOT
BRANCH   1   5
HETATM    5  C           1     -35.825  -0.457 -12.153  0.00  0.00     0.194 C 
BRANCH   5   6
HETATM    6  C           1     -36.589  -0.084 -13.417  0.00  0.00     0.138 C 
BRANCH   6   7
HETATM    7  C           1     -35.612   0.300 -14.501  0.00  0.00     0.217 C 
HETATM    8  O           1     -34.832  -0.518 -14.929  0.00  0.00    -0.274 OA
HETATM    9  N           1     -35.609   1.575 -15.000  0.00  0.00    -0.370 N 
HETATM   10  H           1     -34.954   1.832 -15.727  0.00  0.00     0.159 HD
HETATM   11  H           1     -36.262   2.260 -14.641  0.00  0.00     0.159 HD
ENDBRANCH   6   7
ENDBRANCH   5   6
BRANCH   5  12
HETATM   12  C           1     -36.766  -0.448 -10.974  0.00  0.00     0.197 C 
HETATM   13  O           1     -36.457   0.170  -9.932  0.00  0.00    -0.646 OA
HETATM   14  O           1     -37.855  -1.057 -11.039  0.00  0.00    -0.646 OA
ENDBRANCH   5  12
ENDBRANCH   1   5
BRANCH   3  15
HETATM   15  C           1     -33.554  -3.516 -11.744  0.00  0.00     0.270 C 
HETATM   16  C           1     -34.140  -4.180 -12.984  0.00  0.00     0.050 C 
BRANCH  15  17
HETATM   17  N           1     -33.877  -4.343 -10.535  0.00  0.00    -0.067 N 
HETATM   18  H           1     -33.055  -4.939 -10.291  0.00  0.00     0.275 HD
HETATM   19  H           1     -34.701  -4.951 -10.741  0.00  0.00     0.275 HD
HETATM   20  H           1     -34.102  -3.713  -9.732  0.00  0.00     0.275 HD
ENDBRANCH  15  17
ENDBRANCH   3  15
TORSDOF 6
ENDMDL
MODEL 7
REMARK VINA RESULT:      -5.5      2.018      3.292
REMARK  6 active torsions:
REMARK  status: ('A' for Active; 'I' for Inactive)
REMARK    1  A    between atoms: N_5  and  C_15 
REMARK       I    between atoms: N_5  and  C_17 
REMARK       I    between atoms: C_7  and  N_20 
REMARK    2  A    between atoms: C_7  and  C_12 
REMARK    3  A    between atoms: N_9  and  C_11 
REMARK    4  A    between atoms: C_11  and  C_17 
REMARK    5  A    between atoms: C_12  and  C_15 
REMARK    6  A    between atoms: C_13  and  C_15 
ROOT
HETATM    1  N           1     -34.910  -2.330 -12.393  0.00  0.00    -0.344 N 
HETATM    2  H           1     -34.066  -2.332 -12.950  0.00  0.00     0.163 HD
HETATM    3  C           1     -35.159  -3.357 -11.523  0.00  0.00     0.248 C 
HETATM    4  O           1     -36.167  -3.354 -10.857  0.00  0.00    -0.271 OA
ENDROOT
BRANCH   1   5
HETATM    5  C           1     -35.858  -1.239 -12.517  0.00  0.00     0.194 C 
BRANCH   5   6
HETATM    6  C           1     -35.496  -0.138 -11.528  0.00  0.00     0.138 C 
BRANCH   6   7
HETATM    7  C           1     -36.702   0.196 -10.685  0.00  0.00     0.217 C 
HETATM    8  O           1     -37.772  -0.307 -10.933  0.00  0.00    -0.274 OA
HETATM    9  N           1     -36.583   1.071  -9.637  0.00  0.00    -0.370 N 
HETATM   10  H           1     -37.391   1.295  -9.072  0.00  0.00     0.159 HD
HETATM   11  H           1     -35.687   1.492  -9.429  0.00  0.00     0.159 HD
ENDBRANCH   6   7
ENDBRANCH   5   6
BRANCH   5  12
HETATM   12  C           1     -35.811  -0.690 -13.921  0.00  0.00     0.197 C 
HETATM   13  O           1     -34.760  -0.169 -14.354  0.00  0.00    -0.646 OA
HETATM   14  O           1     -36.822  -0.757 -14.653  0.00  0.00    -0.646 OA
ENDBRANCH   5  12
ENDBRANCH   1   5
BRANCH   3  15
HETATM   15  C           1     -34.173  -4.492 -11.394  0.00  0.00     0.270 C 
HETATM   16  C           1     -32.783  -4.004 -11.781  0.00  0.00     0.050 C 
BRANCH  15  17
HETATM   17  N           1     -34.580  -5.614 -12.303  0.00  0.00    -0.067 N 
HETATM   18  H           1     -35.216  -5.247 -13.046  0.00  0.00     0.275 HD
HETATM   19  H           1     -35.076  -6.347 -11.748  0.00  0.00     0.275 HD
HETATM   20  H           1     -33.730  -6.029 -12.746  0.00  0.00     0.275 HD
ENDBRANCH  15  17
ENDBRANCH   3  15
TORSDOF 6
ENDMDL
MODEL 8
REMARK VINA RESULT:      -5.5      8.490     10.319
REMARK  6 active torsions:
REMARK  status: ('A' for Active; 'I' for Inactive)
REMARK    1  A    between atoms: N_5  and  C_15 
REMARK       I    between atoms: N_5  and  C_17 
REMARK       I    between atoms: C_7  and  N_20 
REMARK    2  A    between atoms: C_7  and  C_12 
REMARK    3  A    between atoms: N_9  and  C_11 
REMARK    4  A    between atoms: C_11  and  C_17 
REMARK    5  A    between atoms: C_12  and  C_15 
REMARK    6  A    between atoms: C_13  and  C_15 
ROOT
HETATM    1  N           1     -27.473  -6.691 -18.239  0.00  0.00    -0.344 N 
HETATM    2  H           1     -27.643  -7.183 -19.107  0.00  0.00     0.163 HD
HETATM    3  C           1     -26.203  -6.296 -17.914  0.00  0.00     0.248 C 
HETATM    4  O           1     -26.001  -5.708 -16.878  0.00  0.00    -0.271 OA
ENDROOT
BRANCH   1   5
HETATM    5  C           1     -28.574  -6.407 -17.339  0.00  0.00     0.194 C 
BRANCH   5   6
HETATM    6  C           1     -29.851  -6.214 -18.146  0.00  0.00     0.138 C 
BRANCH   6   7
HETATM    7  C           1     -30.965  -5.772 -17.228  0.00  0.00     0.217 C 
HETATM    8  O           1     -30.876  -4.727 -16.630  0.00  0.00    -0.274 OA
HETATM    9  N           1     -32.076  -6.558 -17.073  0.00  0.00    -0.370 N 
HETATM   10  H           1     -32.822  -6.262 -16.457  0.00  0.00     0.159 HD
HETATM   11  H           1     -32.150  -7.434 -17.574  0.00  0.00     0.159 HD
ENDBRANCH   6   7
ENDBRANCH   5   6
BRANCH   5  12
HETATM   12  C           1     -28.752  -7.559 -16.382  0.00  0.00     0.197 C 
HETATM   13  O           1     -28.223  -7.519 -15.250  0.00  0.00    -0.646 OA
HETATM   14  O           1     -29.428  -8.554 -16.720  0.00  0.00    -0.646 OA
ENDBRANCH   5  12
ENDBRANCH   1   5
BRANCH   3  15
HETATM   15  C           1     -25.058  -6.592 -18.850  0.00  0.00     0.270 C 
HETATM   16  C           1     -25.600  -7.182 -20.146  0.00  0.00     0.050 C 
BRANCH  15  17
HETATM   17  N           1     -24.126  -7.574 -18.206  0.00  0.00    -0.067 N 
HETATM   18  H           1     -24.672  -8.393 -17.854  0.00  0.00     0.275 HD
HETATM   19  H           1     -23.634  -7.114 -17.408  0.00  0.00     0.275 HD
HETATM   20  H           1     -23.423  -7.900 -18.907  0.00  0.00     0.275 HD
ENDBRANCH  15  17
ENDBRANCH   3  15
TORSDOF 6
ENDMDL
MODEL 9
REMARK VINA RESULT:      -5.3      8.608     10.312
REMARK  6 active torsions:
REMARK  status: ('A' for Active; 'I' for Inactive)
REMARK    1  A    between atoms: N_5  and  C_15 
REMARK       I    between atoms: N_5  and  C_17 
REMARK       I    between atoms: C_7  and  N_20 
REMARK    2  A    between atoms: C_7  and  C_12 
REMARK    3  A    between atoms: N_9  and  C_11 
REMARK    4  A    between atoms: C_11  and  C_17 
REMARK    5  A    between atoms: C_12  and  C_15 
REMARK    6  A    between atoms: C_13  and  C_15 
ROOT
HETATM    1  N           1     -27.743  -6.981 -17.859  0.00  0.00    -0.344 N 
HETATM    2  H           1     -27.102  -7.746 -17.691  0.00  0.00     0.163 HD
HETATM    3  C           1     -27.627  -6.227 -18.995  0.00  0.00     0.248 C 
HETATM    4  O           1     -28.393  -5.314 -19.195  0.00  0.00    -0.271 OA
ENDROOT
BRANCH   1   5
HETATM    5  C           1     -28.785  -6.685 -16.895  0.00  0.00     0.194 C 
BRANCH   5   6
HETATM    6  C           1     -29.814  -7.807 -16.898  0.00  0.00     0.138 C 
BRANCH   6   7
HETATM    7  C           1     -30.952  -7.444 -17.820  0.00  0.00     0.217 C 
HETATM    8  O           1     -30.939  -7.813 -18.970  0.00  0.00    -0.274 OA
HETATM    9  N           1     -31.999  -6.695 -17.353  0.00  0.00    -0.370 N 
HETATM   10  H           1     -32.762  -6.452 -17.971  0.00  0.00     0.159 HD
HETATM   11  H           1     -32.010  -6.386 -16.390  0.00  0.00     0.159 HD
ENDBRANCH   6   7
ENDBRANCH   5   6
BRANCH   5  12
HETATM   12  C           1     -28.177  -6.563 -15.520  0.00  0.00     0.197 C 
HETATM   13  O           1     -27.526  -7.515 -15.037  0.00  0.00    -0.646 OA
HETATM   14  O           1     -28.323  -5.510 -14.862  0.00  0.00    -0.646 OA
ENDBRANCH   5  12
ENDBRANCH   1   5
BRANCH   3  15
HETATM   15  C           1     -26.543  -6.536 -19.998  0.00  0.00     0.270 C 
HETATM   16  C           1     -26.958  -7.735 -20.841  0.00  0.00     0.050 C 
BRANCH  15  17
HETATM   17  N           1     -25.267  -6.851 -19.275  0.00  0.00    -0.067 N 
HETATM   18  H           1     -25.283  -6.407 -18.330  0.00  0.00     0.275 HD
HETATM   19  H           1     -24.458  -6.481 -19.822  0.00  0.00     0.275 HD
HETATM   20  H           1     -25.172  -7.887 -19.171  0.00  0.00     0.275 HD
ENDBRANCH  15  17
ENDBRANCH   3  15
TORSDOF 6
ENDMDL
