MODEL 1
REMARK VINA RESULT:      -6.8      0.000      0.000
REMARK  10 active torsions:
REMARK  status: ('A' for Active; 'I' for Inactive)
REMARK    1  A    between atoms: N_7  and  C_21 
REMARK       I    between atoms: N_7  and  C_8 
REMARK    2  A    between atoms: C_8  and  C_9 
REMARK    3  A    between atoms: C_9  and  C_10 
REMARK    4  A    between atoms: C_9  and  N_14 
REMARK    5  A    between atoms: C_10  and  C_11 
REMARK       I    between atoms: C_11  and  N_12 
REMARK    6  A    between atoms: C_19  and  C_21 
REMARK    7  A    between atoms: C_21  and  C_22 
REMARK    8  A    between atoms: C_22  and  O_23 
REMARK    9  A    between atoms: O_23  and  P_24 
REMARK   10  A    between atoms: P_24  and  O_26 
ROOT
HETATM    1  N           1     -21.842  -4.600  -9.596  0.00  0.00    -0.343 N 
HETATM    2  C           1     -21.509  -4.366  -8.289  0.00  0.00     0.249 C 
HETATM    3  O           1     -21.860  -3.344  -7.749  0.00  0.00    -0.271 OA
HETATM    4  H           1     -21.548  -5.456 -10.048  0.00  0.00     0.163 HD
ENDROOT
BRANCH   1   5
HETATM    5  C           1     -22.617  -3.622 -10.333  0.00  0.00     0.210 C 
BRANCH   5   6
HETATM    6  C           1     -24.088  -3.861 -10.092  0.00  0.00     0.198 C 
HETATM    7  O           1     -24.839  -2.902  -9.810  0.00  0.00    -0.646 OA
HETATM    8  O           1     -24.554  -5.017 -10.174  0.00  0.00    -0.646 OA
ENDBRANCH   5   6
BRANCH   5   9
HETATM    9  C           1     -22.318  -3.754 -11.820  0.00  0.00     0.217 C 
BRANCH   9  10
HETATM   10  O           1     -22.653  -2.560 -12.474  0.00  0.00    -0.287 OA
BRANCH  10  11
HETATM   11  P           1     -23.535  -2.712 -13.819  0.00  0.00     0.406 P 
HETATM   12  O           1     -22.635  -2.838 -14.987  0.00  0.00    -0.624 OA
HETATM   13  O           1     -24.384  -3.919 -13.718  0.00  0.00    -0.624 OA
BRANCH  11  14
HETATM   14  O           1     -24.472  -1.409 -13.997  0.00  0.00    -0.300 OA
HETATM   15  H           1     -24.702  -1.153 -13.119  0.00  0.00     0.223 HD
ENDBRANCH  11  14
ENDBRANCH  10  11
ENDBRANCH   9  10
ENDBRANCH   5   9
ENDBRANCH   1   5
BRANCH   2  16
HETATM   16  C           1     -20.702  -5.385  -7.523  0.00  0.00     0.283 C 
BRANCH  16  17
HETATM   17  C           1     -21.328  -5.604  -6.151  0.00  0.00     0.145 C 
BRANCH  17  18
HETATM   18  C           1     -21.018  -7.002  -5.674  0.00  0.00     0.217 C 
HETATM   19  N           1     -21.896  -7.654  -4.851  0.00  0.00    -0.370 N 
HETATM   20  H           1     -21.688  -8.592  -4.531  0.00  0.00     0.159 HD
HETATM   21  H           1     -22.752  -7.199  -4.562  0.00  0.00     0.159 HD
HETATM   22  O           1     -19.995  -7.544  -6.019  0.00  0.00    -0.274 OA
ENDBRANCH  17  18
ENDBRANCH  16  17
BRANCH  16  23
HETATM   23  N           1     -19.297  -4.886  -7.355  0.00  0.00    -0.066 N 
HETATM   24  H           1     -19.276  -3.850  -7.496  0.00  0.00     0.275 HD
HETATM   25  H           1     -18.960  -5.113  -6.393  0.00  0.00     0.275 HD
HETATM   26  H           1     -18.677  -5.345  -8.059  0.00  0.00     0.275 HD
ENDBRANCH  16  23
ENDBRANCH   2  16
TORSDOF 10
ENDMDL
MODEL 2
REMARK VINA RESULT:      -6.5     13.612     15.662
REMARK  10 active torsions:
REMARK  status: ('A' for Active; 'I' for Inactive)
REMARK    1  A    between atoms: N_7  and  C_21 
REMARK       I    between atoms: N_7  and  C_8 
REMARK    2  A    between atoms: C_8  and  C_9 
REMARK    3  A    between atoms: C_9  and  C_10 
REMARK    4  A    between atoms: C_9  and  N_14 
REMARK    5  A    between atoms: C_10  and  C_11 
REMARK       I    between atoms: C_11  and  N_12 
REMARK    6  A    between atoms: C_19  and  C_21 
REMARK    7  A    between atoms: C_21  and  C_22 
REMARK    8  A    between atoms: C_22  and  O_23 
REMARK    9  A    between atoms: O_23  and  P_24 
REMARK   10  A    between atoms: P_24  and  O_26 
ROOT
HETATM    1  N           1     -36.148   0.225 -11.564  0.00  0.00    -0.343 N 
HETATM    2  C           1     -36.544  -0.025 -12.849  0.00  0.00     0.249 C 
HETATM    3  O           1     -37.558  -0.648 -13.059  0.00  0.00    -0.271 OA
HETATM    4  H           1     -35.298   0.746 -11.388  0.00  0.00     0.163 HD
ENDROOT
BRANCH   1   5
HETATM    5  C           1     -36.946  -0.255 -10.453  0.00  0.00     0.210 C 
BRANCH   5   6
HETATM    6  C           1     -37.113   0.851  -9.439  0.00  0.00     0.198 C 
HETATM    7  O           1     -36.289   0.975  -8.507  0.00  0.00    -0.646 OA
HETATM    8  O           1     -38.074   1.644  -9.532  0.00  0.00    -0.646 OA
ENDBRANCH   5   6
BRANCH   5   9
HETATM    9  C           1     -36.246  -1.440  -9.801  0.00  0.00     0.217 C 
BRANCH   9  10
HETATM   10  O           1     -36.213  -2.516 -10.698  0.00  0.00    -0.287 OA
BRANCH  10  11
HETATM   11  P           1     -34.756  -2.924 -11.263  0.00  0.00     0.406 P 
HETATM   12  O           1     -34.300  -4.166 -10.600  0.00  0.00    -0.624 OA
HETATM   13  O           1     -34.837  -3.146 -12.724  0.00  0.00    -0.624 OA
BRANCH  11  14
HETATM   14  O           1     -33.709  -1.733 -10.958  0.00  0.00    -0.300 OA
HETATM   15  H           1     -32.862  -2.146 -10.965  0.00  0.00     0.223 HD
ENDBRANCH  11  14
ENDBRANCH  10  11
ENDBRANCH   9  10
ENDBRANCH   5   9
ENDBRANCH   1   5
BRANCH   2  16
HETATM   16  C           1     -35.713   0.474 -14.006  0.00  0.00     0.283 C 
BRANCH  16  17
HETATM   17  C           1     -35.732  -0.556 -15.129  0.00  0.00     0.145 C 
BRANCH  17  18
HETATM   18  C           1     -36.753  -0.152 -16.164  0.00  0.00     0.217 C 
HETATM   19  N           1     -37.555   0.935 -15.946  0.00  0.00    -0.370 N 
HETATM   20  H           1     -38.240   1.207 -16.640  0.00  0.00     0.159 HD
HETATM   21  H           1     -37.464   1.468 -15.090  0.00  0.00     0.159 HD
HETATM   22  O           1     -36.862  -0.788 -17.186  0.00  0.00    -0.274 OA
ENDBRANCH  17  18
ENDBRANCH  16  17
BRANCH  16  23
HETATM   23  N           1     -34.300   0.688 -13.550  0.00  0.00    -0.066 N 
HETATM   24  H           1     -33.773  -0.212 -13.613  0.00  0.00     0.275 HD
HETATM   25  H           1     -33.843   1.402 -14.161  0.00  0.00     0.275 HD
HETATM   26  H           1     -34.299   1.024 -12.561  0.00  0.00     0.275 HD
ENDBRANCH  16  23
ENDBRANCH   2  16
TORSDOF 10
ENDMDL
MODEL 3
REMARK VINA RESULT:      -6.1      2.948      4.700
REMARK  10 active torsions:
REMARK  status: ('A' for Active; 'I' for Inactive)
REMARK    1  A    between atoms: N_7  and  C_21 
REMARK       I    between atoms: N_7  and  C_8 
REMARK    2  A    between atoms: C_8  and  C_9 
REMARK    3  A    between atoms: C_9  and  C_10 
REMARK    4  A    between atoms: C_9  and  N_14 
REMARK    5  A    between atoms: C_10  and  C_11 
REMARK       I    between atoms: C_11  and  N_12 
REMARK    6  A    between atoms: C_19  and  C_21 
REMARK    7  A    between atoms: C_21  and  C_22 
REMARK    8  A    between atoms: C_22  and  O_23 
REMARK    9  A    between atoms: O_23  and  P_24 
REMARK   10  A    between atoms: P_24  and  O_26 
ROOT
HETATM    1  N           1     -24.082  -3.976 -12.275  0.00  0.00    -0.343 N 
HETATM    2  C           1     -23.104  -4.104 -11.327  0.00  0.00     0.249 C 
HETATM    3  O           1     -21.981  -4.408 -11.653  0.00  0.00    -0.271 OA
HETATM    4  H           1     -25.022  -3.721 -12.001  0.00  0.00     0.163 HD
ENDROOT
BRANCH   1   5
HETATM    5  C           1     -23.772  -4.204 -13.672  0.00  0.00     0.210 C 
BRANCH   5   6
HETATM    6  C           1     -23.473  -2.885 -14.343  0.00  0.00     0.198 C 
HETATM    7  O           1     -22.594  -2.819 -15.229  0.00  0.00    -0.646 OA
HETATM    8  O           1     -24.105  -1.859 -14.012  0.00  0.00    -0.646 OA
ENDBRANCH   5   6
BRANCH   5   9
HETATM    9  C           1     -24.963  -4.862 -14.355  0.00  0.00     0.217 C 
BRANCH   9  10
HETATM   10  O           1     -24.677  -6.214 -14.595  0.00  0.00    -0.287 OA
BRANCH  10  11
HETATM   11  P           1     -25.452  -6.891 -15.840  0.00  0.00     0.406 P 
HETATM   12  O           1     -26.735  -7.462 -15.372  0.00  0.00    -0.624 OA
HETATM   13  O           1     -25.716  -5.866 -16.874  0.00  0.00    -0.624 OA
BRANCH  11  14
HETATM   14  O           1     -24.537  -8.064 -16.468  0.00  0.00    -0.300 OA
HETATM   15  H           1     -23.672  -7.907 -16.127  0.00  0.00     0.223 HD
ENDBRANCH  11  14
ENDBRANCH  10  11
ENDBRANCH   9  10
ENDBRANCH   5   9
ENDBRANCH   1   5
BRANCH   2  16
HETATM   16  C           1     -23.428  -3.866  -9.872  0.00  0.00     0.283 C 
BRANCH  16  17
HETATM   17  C           1     -22.518  -4.724  -9.001  0.00  0.00     0.145 C 
BRANCH  17  18
HETATM   18  C           1     -22.539  -4.202  -7.585  0.00  0.00     0.217 C 
HETATM   19  N           1     -21.608  -3.284  -7.181  0.00  0.00    -0.370 N 
HETATM   20  H           1     -21.622  -2.934  -6.231  0.00  0.00     0.159 HD
HETATM   21  H           1     -20.905  -2.956  -7.831  0.00  0.00     0.159 HD
HETATM   22  O           1     -23.379  -4.594  -6.809  0.00  0.00    -0.274 OA
ENDBRANCH  17  18
ENDBRANCH  16  17
BRANCH  16  23
HETATM   23  N           1     -24.859  -4.234  -9.612  0.00  0.00    -0.066 N 
HETATM   24  H           1     -24.949  -5.274  -9.564  0.00  0.00     0.275 HD
HETATM   25  H           1     -25.165  -3.816  -8.704  0.00  0.00     0.275 HD
HETATM   26  H           1     -25.459  -3.868 -10.384  0.00  0.00     0.275 HD
ENDBRANCH  16  23
ENDBRANCH   2  16
TORSDOF 10
ENDMDL
MODEL 4
REMARK VINA RESULT:      -5.9      3.288      7.281
REMARK  10 active torsions:
REMARK  status: ('A' for Active; 'I' for Inactive)
REMARK    1  A    between atoms: N_7  and  C_21 
REMARK       I    between atoms: N_7  and  C_8 
REMARK    2  A    between atoms: C_8  and  C_9 
REMARK    3  A    between atoms: C_9  and  C_10 
REMARK    4  A    between atoms: C_9  and  N_14 
REMARK    5  A    between atoms: C_10  and  C_11 
REMARK       I    between atoms: C_11  and  N_12 
REMARK    6  A    between atoms: C_19  and  C_21 
REMARK    7  A    between atoms: C_21  and  C_22 
REMARK    8  A    between atoms: C_22  and  O_23 
REMARK    9  A    between atoms: O_23  and  P_24 
REMARK   10  A    between atoms: P_24  and  O_26 
ROOT
HETATM    1  N           1     -21.661  -4.821  -8.649  0.00  0.00    -0.343 N 
HETATM    2  C           1     -22.983  -4.466  -8.626  0.00  0.00     0.249 C 
HETATM    3  O           1     -23.495  -4.107  -7.592  0.00  0.00    -0.271 OA
HETATM    4  H           1     -21.233  -5.121  -9.516  0.00  0.00     0.163 HD
ENDROOT
BRANCH   1   5
HETATM    5  C           1     -20.875  -4.767  -7.433  0.00  0.00     0.210 C 
BRANCH   5   6
HETATM    6  C           1     -19.503  -4.222  -7.745  0.00  0.00     0.198 C 
HETATM    7  O           1     -18.510  -4.617  -7.096  0.00  0.00    -0.646 OA
HETATM    8  O           1     -19.359  -3.375  -8.653  0.00  0.00    -0.646 OA
ENDBRANCH   5   6
BRANCH   5   9
HETATM    9  C           1     -20.745  -6.169  -6.852  0.00  0.00     0.217 C 
BRANCH   9  10
HETATM   10  O           1     -20.628  -6.089  -5.457  0.00  0.00    -0.287 OA
BRANCH  10  11
HETATM   11  P           1     -21.917  -6.570  -4.610  0.00  0.00     0.406 P 
HETATM   12  O           1     -21.948  -8.049  -4.557  0.00  0.00    -0.624 OA
HETATM   13  O           1     -21.834  -6.029  -3.235  0.00  0.00    -0.624 OA
BRANCH  11  14
HETATM   14  O           1     -23.261  -6.027  -5.321  0.00  0.00    -0.300 OA
HETATM   15  H           1     -22.959  -5.464  -6.014  0.00  0.00     0.223 HD
ENDBRANCH  11  14
ENDBRANCH  10  11
ENDBRANCH   9  10
ENDBRANCH   5   9
ENDBRANCH   1   5
BRANCH   2  16
HETATM   16  C           1     -23.801  -4.522  -9.893  0.00  0.00     0.283 C 
BRANCH  16  17
HETATM   17  C           1     -23.316  -3.451 -10.861  0.00  0.00     0.145 C 
BRANCH  17  18
HETATM   18  C           1     -24.146  -3.498 -12.121  0.00  0.00     0.217 C 
HETATM   19  N           1     -23.689  -4.181 -13.216  0.00  0.00    -0.370 N 
HETATM   20  H           1     -24.246  -4.213 -14.061  0.00  0.00     0.159 HD
HETATM   21  H           1     -22.795  -4.653 -13.181  0.00  0.00     0.159 HD
HETATM   22  O           1     -25.214  -2.935 -12.162  0.00  0.00    -0.274 OA
ENDBRANCH  17  18
ENDBRANCH  16  17
BRANCH  16  23
HETATM   23  N           1     -25.246  -4.281  -9.566  0.00  0.00    -0.066 N 
HETATM   24  H           1     -25.816  -4.349 -10.439  0.00  0.00     0.275 HD
HETATM   25  H           1     -25.571  -5.000  -8.881  0.00  0.00     0.275 HD
HETATM   26  H           1     -25.355  -3.329  -9.151  0.00  0.00     0.275 HD
ENDBRANCH  16  23
ENDBRANCH   2  16
TORSDOF 10
ENDMDL
MODEL 5
REMARK VINA RESULT:      -5.9      9.717     12.082
REMARK  10 active torsions:
REMARK  status: ('A' for Active; 'I' for Inactive)
REMARK    1  A    between atoms: N_7  and  C_21 
REMARK       I    between atoms: N_7  and  C_8 
REMARK    2  A    between atoms: C_8  and  C_9 
REMARK    3  A    between atoms: C_9  and  C_10 
REMARK    4  A    between atoms: C_9  and  N_14 
REMARK    5  A    between atoms: C_10  and  C_11 
REMARK       I    between atoms: C_11  and  N_12 
REMARK    6  A    between atoms: C_19  and  C_21 
REMARK    7  A    between atoms: C_21  and  C_22 
REMARK    8  A    between atoms: C_22  and  O_23 
REMARK    9  A    between atoms: O_23  and  P_24 
REMARK   10  A    between atoms: P_24  and  O_26 
ROOT
HETATM    1  N           1     -31.545  -5.500 -16.509  0.00  0.00    -0.343 N 
HETATM    2  C           1     -31.129  -6.637 -17.148  0.00  0.00     0.249 C 
HETATM    3  O           1     -31.783  -7.095 -18.054  0.00  0.00    -0.271 OA
HETATM    4  H           1     -30.996  -5.117 -15.750  0.00  0.00     0.163 HD
ENDROOT
BRANCH   1   5
HETATM    5  C           1     -32.771  -4.845 -16.920  0.00  0.00     0.210 C 
BRANCH   5   6
HETATM    6  C           1     -32.460  -3.442 -17.382  0.00  0.00     0.198 C 
HETATM    7  O           1     -31.277  -3.103 -17.600  0.00  0.00    -0.646 OA
HETATM    8  O           1     -33.386  -2.620 -17.546  0.00  0.00    -0.646 OA
ENDBRANCH   5   6
BRANCH   5   9
HETATM    9  C           1     -33.735  -4.790 -15.742  0.00  0.00     0.217 C 
BRANCH   9  10
HETATM   10  O           1     -33.140  -4.092 -14.682  0.00  0.00    -0.287 OA
BRANCH  10  11
HETATM   11  P           1     -33.993  -4.025 -13.311  0.00  0.00     0.406 P 
HETATM   12  O           1     -33.075  -4.109 -12.154  0.00  0.00    -0.624 OA
HETATM   13  O           1     -34.740  -2.749 -13.258  0.00  0.00    -0.624 OA
BRANCH  11  14
HETATM   14  O           1     -35.034  -5.259 -13.266  0.00  0.00    -0.300 OA
HETATM   15  H           1     -35.721  -5.020 -13.866  0.00  0.00     0.223 HD
ENDBRANCH  11  14
ENDBRANCH  10  11
ENDBRANCH   9  10
ENDBRANCH   5   9
ENDBRANCH   1   5
BRANCH   2  16
HETATM   16  C           1     -29.853  -7.319 -16.720  0.00  0.00     0.283 C 
BRANCH  16  17
HETATM   17  C           1     -28.820  -6.269 -16.328  0.00  0.00     0.145 C 
BRANCH  17  18
HETATM   18  C           1     -27.555  -6.954 -15.873  0.00  0.00     0.217 C 
HETATM   19  N           1     -26.362  -6.657 -16.475  0.00  0.00    -0.370 N 
HETATM   20  H           1     -25.513  -7.116 -16.169  0.00  0.00     0.159 HD
HETATM   21  H           1     -26.328  -5.980 -17.226  0.00  0.00     0.159 HD
HETATM   22  O           1     -27.595  -7.762 -14.976  0.00  0.00    -0.274 OA
ENDBRANCH  17  18
ENDBRANCH  16  17
BRANCH  16  23
HETATM   23  N           1     -29.321  -8.143 -17.855  0.00  0.00    -0.066 N 
HETATM   24  H           1     -28.671  -8.871 -17.482  0.00  0.00     0.275 HD
HETATM   25  H           1     -30.116  -8.606 -18.350  0.00  0.00     0.275 HD
HETATM   26  H           1     -28.806  -7.526 -18.522  0.00  0.00     0.275 HD
ENDBRANCH  16  23
ENDBRANCH   2  16
TORSDOF 10
ENDMDL
MODEL 6
REMARK VINA RESULT:      -5.9      3.358      7.372
REMARK  10 active torsions:
REMARK  status: ('A' for Active; 'I' for Inactive)
REMARK    1  A    between atoms: N_7  and  C_21 
REMARK       I    between atoms: N_7  and  C_8 
REMARK    2  A    between atoms: C_8  and  C_9 
REMARK    3  A    between atoms: C_9  and  C_10 
REMARK    4  A    between atoms: C_9  and  N_14 
REMARK    5  A    between atoms: C_10  and  C_11 
REMARK       I    between atoms: C_11  and  N_12 
REMARK    6  A    between atoms: C_19  and  C_21 
REMARK    7  A    between atoms: C_21  and  C_22 
REMARK    8  A    between atoms: C_22  and  O_23 
REMARK    9  A    between atoms: O_23  and  P_24 
REMARK   10  A    between atoms: P_24  and  O_26 
ROOT
HETATM    1  N           1     -22.164  -4.034 -10.060  0.00  0.00    -0.343 N 
HETATM    2  C           1     -21.961  -3.332 -11.217  0.00  0.00     0.249 C 
HETATM    3  O           1     -21.143  -2.443 -11.248  0.00  0.00    -0.271 OA
HETATM    4  H           1     -22.849  -4.779 -10.034  0.00  0.00     0.163 HD
ENDROOT
BRANCH   1   5
HETATM    5  C           1     -21.397  -3.714  -8.873  0.00  0.00     0.210 C 
BRANCH   5   6
HETATM    6  C           1     -20.033  -4.352  -8.968  0.00  0.00     0.198 C 
HETATM    7  O           1     -19.786  -5.166  -9.884  0.00  0.00    -0.646 OA
HETATM    8  O           1     -19.151  -4.067  -8.131  0.00  0.00    -0.646 OA
ENDBRANCH   5   6
BRANCH   5   9
HETATM    9  C           1     -22.122  -4.245  -7.643  0.00  0.00     0.217 C 
BRANCH   9  10
HETATM   10  O           1     -21.775  -5.587  -7.438  0.00  0.00    -0.287 OA
BRANCH  10  11
HETATM   11  P           1     -21.496  -6.021  -5.907  0.00  0.00     0.406 P 
HETATM   12  O           1     -20.585  -5.041  -5.275  0.00  0.00    -0.624 OA
HETATM   13  O           1     -22.775  -6.057  -5.164  0.00  0.00    -0.624 OA
BRANCH  11  14
HETATM   14  O           1     -20.817  -7.486  -5.879  0.00  0.00    -0.300 OA
HETATM   15  H           1     -20.728  -7.695  -4.964  0.00  0.00     0.223 HD
ENDBRANCH  11  14
ENDBRANCH  10  11
ENDBRANCH   9  10
ENDBRANCH   5   9
ENDBRANCH   1   5
BRANCH   2  16
HETATM   16  C           1     -22.760  -3.665 -12.453  0.00  0.00     0.283 C 
BRANCH  16  17
HETATM   17  C           1     -23.784  -2.567 -12.709  0.00  0.00     0.145 C 
BRANCH  17  18
HETATM   18  C           1     -23.739  -2.167 -14.164  0.00  0.00     0.217 C 
HETATM   19  N           1     -24.102  -0.901 -14.537  0.00  0.00    -0.370 N 
HETATM   20  H           1     -24.072  -0.632 -15.512  0.00  0.00     0.159 HD
HETATM   21  H           1     -24.401  -0.234 -13.837  0.00  0.00     0.159 HD
HETATM   22  O           1     -23.382  -2.964 -14.999  0.00  0.00    -0.274 OA
ENDBRANCH  17  18
ENDBRANCH  16  17
BRANCH  16  23
HETATM   23  N           1     -23.469  -4.972 -12.252  0.00  0.00    -0.066 N 
HETATM   24  H           1     -24.072  -5.172 -13.082  0.00  0.00     0.275 HD
HETATM   25  H           1     -22.765  -5.736 -12.140  0.00  0.00     0.275 HD
HETATM   26  H           1     -24.064  -4.917 -11.395  0.00  0.00     0.275 HD
ENDBRANCH  16  23
ENDBRANCH   2  16
TORSDOF 10
ENDMDL
MODEL 7
REMARK VINA RESULT:      -5.8      2.148      3.710
REMARK  10 active torsions:
REMARK  status: ('A' for Active; 'I' for Inactive)
REMARK    1  A    between atoms: N_7  and  C_21 
REMARK       I    between atoms: N_7  and  C_8 
REMARK    2  A    between atoms: C_8  and  C_9 
REMARK    3  A    between atoms: C_9  and  C_10 
REMARK    4  A    between atoms: C_9  and  N_14 
REMARK    5  A    between atoms: C_10  and  C_11 
REMARK       I    between atoms: C_11  and  N_12 
REMARK    6  A    between atoms: C_19  and  C_21 
REMARK    7  A    between atoms: C_21  and  C_22 
REMARK    8  A    between atoms: C_22  and  O_23 
REMARK    9  A    between atoms: O_23  and  P_24 
REMARK   10  A    between atoms: P_24  and  O_26 
ROOT
HETATM    1  N           1     -21.547  -4.991  -6.800  0.00  0.00    -0.343 N 
HETATM    2  C           1     -21.253  -6.171  -6.172  0.00  0.00     0.249 C 
HETATM    3  O           1     -21.064  -7.172  -6.822  0.00  0.00    -0.271 OA
HETATM    4  H           1     -21.706  -4.154  -6.255  0.00  0.00     0.163 HD
ENDROOT
BRANCH   1   5
HETATM    5  C           1     -21.629  -4.941  -8.246  0.00  0.00     0.210 C 
BRANCH   5   6
HETATM    6  C           1     -20.314  -4.459  -8.808  0.00  0.00     0.198 C 
HETATM    7  O           1     -19.535  -3.793  -8.093  0.00  0.00    -0.646 OA
HETATM    8  O           1     -20.005  -4.725  -9.989  0.00  0.00    -0.646 OA
ENDBRANCH   5   6
BRANCH   5   9
HETATM    9  C           1     -22.740  -3.984  -8.658  0.00  0.00     0.217 C 
BRANCH   9  10
HETATM   10  O           1     -23.567  -4.604  -9.605  0.00  0.00    -0.287 OA
BRANCH  10  11
HETATM   11  P           1     -23.651  -3.888 -11.050  0.00  0.00     0.406 P 
HETATM   12  O           1     -24.936  -3.164 -11.168  0.00  0.00    -0.624 OA
HETATM   13  O           1     -22.531  -2.932 -11.192  0.00  0.00    -0.624 OA
BRANCH  11  14
HETATM   14  O           1     -23.552  -5.007 -12.210  0.00  0.00    -0.300 OA
HETATM   15  H           1     -23.854  -5.804 -11.806  0.00  0.00     0.223 HD
ENDBRANCH  11  14
ENDBRANCH  10  11
ENDBRANCH   9  10
ENDBRANCH   5   9
ENDBRANCH   1   5
BRANCH   2  16
HETATM   16  C           1     -21.168  -6.223  -4.666  0.00  0.00     0.283 C 
BRANCH  16  17
HETATM   17  C           1     -20.505  -7.526  -4.238  0.00  0.00     0.145 C 
BRANCH  17  18
HETATM   18  C           1     -21.033  -7.938  -2.885  0.00  0.00     0.217 C 
HETATM   19  N           1     -21.594  -9.176  -2.718  0.00  0.00    -0.370 N 
HETATM   20  H           1     -21.948  -9.453  -1.811  0.00  0.00     0.159 HD
HETATM   21  H           1     -21.655  -9.814  -3.501  0.00  0.00     0.159 HD
HETATM   22  O           1     -20.960  -7.176  -1.950  0.00  0.00    -0.274 OA
ENDBRANCH  17  18
ENDBRANCH  16  17
BRANCH  16  23
HETATM   23  N           1     -22.549  -6.151  -4.084  0.00  0.00    -0.066 N 
HETATM   24  H           1     -22.485  -6.076  -3.044  0.00  0.00     0.275 HD
HETATM   25  H           1     -23.043  -5.312  -4.464  0.00  0.00     0.275 HD
HETATM   26  H           1     -23.080  -7.013  -4.339  0.00  0.00     0.275 HD
ENDBRANCH  16  23
ENDBRANCH   2  16
TORSDOF 10
ENDMDL
MODEL 8
REMARK VINA RESULT:      -5.6      3.258      7.545
REMARK  10 active torsions:
REMARK  status: ('A' for Active; 'I' for Inactive)
REMARK    1  A    between atoms: N_7  and  C_21 
REMARK       I    between atoms: N_7  and  C_8 
REMARK    2  A    between atoms: C_8  and  C_9 
REMARK    3  A    between atoms: C_9  and  C_10 
REMARK    4  A    between atoms: C_9  and  N_14 
REMARK    5  A    between atoms: C_10  and  C_11 
REMARK       I    between atoms: C_11  and  N_12 
REMARK    6  A    between atoms: C_19  and  C_21 
REMARK    7  A    between atoms: C_21  and  C_22 
REMARK    8  A    between atoms: C_22  and  O_23 
REMARK    9  A    between atoms: O_23  and  P_24 
REMARK   10  A    between atoms: P_24  and  O_26 
ROOT
HETATM    1  N           1     -21.985  -5.149  -7.151  0.00  0.00    -0.343 N 
HETATM    2  C           1     -22.195  -4.141  -8.053  0.00  0.00     0.249 C 
HETATM    3  O           1     -21.520  -3.140  -8.007  0.00  0.00    -0.271 OA
HETATM    4  H           1     -22.550  -5.988  -7.190  0.00  0.00     0.163 HD
ENDROOT
BRANCH   1   5
HETATM    5  C           1     -20.954  -5.017  -6.142  0.00  0.00     0.210 C 
BRANCH   5   6
HETATM    6  C           1     -19.618  -5.392  -6.737  0.00  0.00     0.198 C 
HETATM    7  O           1     -19.433  -6.545  -7.183  0.00  0.00    -0.646 OA
HETATM    8  O           1     -18.697  -4.549  -6.783  0.00  0.00    -0.646 OA
ENDBRANCH   5   6
BRANCH   5   9
HETATM    9  C           1     -21.267  -5.942  -4.974  0.00  0.00     0.217 C 
BRANCH   9  10
HETATM   10  O           1     -21.827  -7.133  -5.456  0.00  0.00    -0.287 OA
BRANCH  10  11
HETATM   11  P           1     -21.120  -8.500  -4.964  0.00  0.00     0.406 P 
HETATM   12  O           1     -21.827  -9.021  -3.774  0.00  0.00    -0.624 OA
HETATM   13  O           1     -21.176  -9.502  -6.050  0.00  0.00    -0.624 OA
BRANCH  11  14
HETATM   14  O           1     -19.578  -8.200  -4.588  0.00  0.00    -0.300 OA
HETATM   15  H           1     -19.122  -8.197  -5.413  0.00  0.00     0.223 HD
ENDBRANCH  11  14
ENDBRANCH  10  11
ENDBRANCH   9  10
ENDBRANCH   5   9
ENDBRANCH   1   5
BRANCH   2  16
HETATM   16  C           1     -23.269  -4.279  -9.103  0.00  0.00     0.283 C 
BRANCH  16  17
HETATM   17  C           1     -22.819  -3.590 -10.385  0.00  0.00     0.145 C 
BRANCH  17  18
HETATM   18  C           1     -23.852  -3.811 -11.464  0.00  0.00     0.217 C 
HETATM   19  N           1     -23.639  -4.755 -12.432  0.00  0.00    -0.370 N 
HETATM   20  H           1     -24.332  -4.903 -13.155  0.00  0.00     0.159 HD
HETATM   21  H           1     -22.790  -5.304 -12.425  0.00  0.00     0.159 HD
HETATM   22  O           1     -24.867  -3.155 -11.471  0.00  0.00    -0.274 OA
ENDBRANCH  17  18
ENDBRANCH  16  17
BRANCH  16  23
HETATM   23  N           1     -24.534  -3.639  -8.611  0.00  0.00    -0.066 N 
HETATM   24  H           1     -24.932  -4.210  -7.831  0.00  0.00     0.275 HD
HETATM   25  H           1     -24.324  -2.676  -8.266  0.00  0.00     0.275 HD
HETATM   26  H           1     -25.225  -3.588  -9.392  0.00  0.00     0.275 HD
ENDBRANCH  16  23
ENDBRANCH   2  16
TORSDOF 10
ENDMDL
MODEL 9
REMARK VINA RESULT:      -5.5      3.946      8.031
REMARK  10 active torsions:
REMARK  status: ('A' for Active; 'I' for Inactive)
REMARK    1  A    between atoms: N_7  and  C_21 
REMARK       I    between atoms: N_7  and  C_8 
REMARK    2  A    between atoms: C_8  and  C_9 
REMARK    3  A    between atoms: C_9  and  C_10 
REMARK    4  A    between atoms: C_9  and  N_14 
REMARK    5  A    between atoms: C_10  and  C_11 
REMARK       I    between atoms: C_11  and  N_12 
REMARK    6  A    between atoms: C_19  and  C_21 
REMARK    7  A    between atoms: C_21  and  C_22 
REMARK    8  A    between atoms: C_22  and  O_23 
REMARK    9  A    between atoms: O_23  and  P_24 
REMARK   10  A    between atoms: P_24  and  O_26 
ROOT
HETATM    1  N           1     -21.018  -6.527  -5.188  0.00  0.00    -0.343 N 
HETATM    2  C           1     -21.610  -5.564  -5.960  0.00  0.00     0.249 C 
HETATM    3  O           1     -22.802  -5.379  -5.886  0.00  0.00    -0.271 OA
HETATM    4  H           1     -20.020  -6.682  -5.251  0.00  0.00     0.163 HD
ENDROOT
BRANCH   1   5
HETATM    5  C           1     -21.819  -7.323  -4.281  0.00  0.00     0.210 C 
BRANCH   5   6
HETATM    6  C           1     -21.567  -6.875  -2.862  0.00  0.00     0.198 C 
HETATM    7  O           1     -22.250  -5.954  -2.366  0.00  0.00    -0.646 OA
HETATM    8  O           1     -20.674  -7.426  -2.183  0.00  0.00    -0.646 OA
ENDBRANCH   5   6
BRANCH   5   9
HETATM    9  C           1     -21.440  -8.791  -4.425  0.00  0.00     0.217 C 
BRANCH   9  10
HETATM   10  O           1     -20.529  -8.938  -5.480  0.00  0.00    -0.287 OA
BRANCH  10  11
HETATM   11  P           1     -19.120  -9.636  -5.108  0.00  0.00     0.406 P 
HETATM   12  O           1     -19.311 -11.099  -4.987  0.00  0.00    -0.624 OA
HETATM   13  O           1     -18.133  -9.354  -6.174  0.00  0.00    -0.624 OA
BRANCH  11  14
HETATM   14  O           1     -18.581  -9.044  -3.706  0.00  0.00    -0.300 OA
HETATM   15  H           1     -19.018  -8.215  -3.608  0.00  0.00     0.223 HD
ENDBRANCH  11  14
ENDBRANCH  10  11
ENDBRANCH   9  10
ENDBRANCH   5   9
ENDBRANCH   1   5
BRANCH   2  16
HETATM   16  C           1     -20.776  -4.736  -6.905  0.00  0.00     0.283 C 
BRANCH  16  17
HETATM   17  C           1     -21.533  -3.466  -7.274  0.00  0.00     0.145 C 
BRANCH  17  18
HETATM   18  C           1     -22.400  -3.730  -8.481  0.00  0.00     0.217 C 
HETATM   19  N           1     -23.718  -4.063  -8.316  0.00  0.00    -0.370 N 
HETATM   20  H           1     -24.300  -4.239  -9.125  0.00  0.00     0.159 HD
HETATM   21  H           1     -24.110  -4.132  -7.386  0.00  0.00     0.159 HD
HETATM   22  O           1     -21.932  -3.646  -9.591  0.00  0.00    -0.274 OA
ENDBRANCH  17  18
ENDBRANCH  16  17
BRANCH  16  23
HETATM   23  N           1     -20.494  -5.527  -8.149  0.00  0.00    -0.066 N 
HETATM   24  H           1     -19.590  -6.040  -8.037  0.00  0.00     0.275 HD
HETATM   25  H           1     -21.267  -6.212  -8.306  0.00  0.00     0.275 HD
HETATM   26  H           1     -20.428  -4.880  -8.966  0.00  0.00     0.275 HD
ENDBRANCH  16  23
ENDBRANCH   2  16
TORSDOF 10
ENDMDL
