MODEL 1
REMARK VINA RESULT:      -8.9      0.000      0.000
REMARK  12 active torsions:
REMARK  status: ('A' for Active; 'I' for Inactive)
REMARK    1  A    between atoms: C_1  and  O_27 
REMARK    2  A    between atoms: C_3  and  C_25 
REMARK    3  A    between atoms: C_4  and  C_10 
REMARK    4  A    between atoms: C_4  and  C_5 
REMARK    5  A    between atoms: C_10  and  C_12 
REMARK    6  A    between atoms: C_10  and  N_30 
REMARK       I    between atoms: C_12  and  N_22 
REMARK    7  A    between atoms: O_18  and  P_28 
REMARK    8  A    between atoms: N_22  and  C_35 
REMARK    9  A    between atoms: C_23  and  C_35 
REMARK   10  A    between atoms: C_25  and  C_35 
REMARK   11  A    between atoms: P_28  and  O_34 
REMARK   12  A    between atoms: C_33  and  O_34 
ROOT
HETATM    1  O           1     -20.929  -5.891  -3.605  0.00  0.00    -0.271 OA
HETATM    2  C           1     -21.579  -6.483  -4.433  0.00  0.00     0.249 C 
HETATM    3  H           1     -23.178  -5.468  -5.271  0.00  0.00     0.163 HD
HETATM    4  N           1     -22.229  -5.788  -5.419  0.00  0.00    -0.344 N 
ENDROOT
BRANCH   4   5
HETATM    5  C           1     -21.557  -5.509  -6.673  0.00  0.00     0.189 C 
BRANCH   5   6
HETATM    6  C           1     -20.064  -5.591  -6.470  0.00  0.00     0.197 C 
HETATM    7  O           1     -19.443  -4.615  -5.994  0.00  0.00    -0.646 OA
HETATM    8  O           1     -19.447  -6.633  -6.781  0.00  0.00    -0.646 OA
ENDBRANCH   5   6
BRANCH   5   9
HETATM    9  C           1     -21.929  -4.110  -7.147  0.00  0.00     0.074 C 
BRANCH   9  10
HETATM   10  C           1     -22.405  -4.174  -8.565  0.00  0.00    -0.056 A 
HETATM   11  C           1     -23.766  -4.050  -8.851  0.00  0.00     0.010 A 
HETATM   12  C           1     -24.210  -4.110 -10.171  0.00  0.00     0.038 A 
HETATM   13  C           1     -23.293  -4.292 -11.207  0.00  0.00     0.081 A 
HETATM   14  C           1     -21.934  -4.416 -10.922  0.00  0.00     0.038 A 
HETATM   15  C           1     -21.489  -4.357  -9.601  0.00  0.00     0.010 A 
BRANCH  13  16
HETATM   16  O           1     -23.724  -4.350 -12.491  0.00  0.00    -0.247 OA
BRANCH  16  17
HETATM   17  P           1     -23.980  -2.958 -13.269  0.00  0.00     0.411 P 
HETATM   18  O           1     -25.388  -2.541 -13.083  0.00  0.00    -0.624 OA
HETATM   19  O           1     -23.705  -3.142 -14.711  0.00  0.00    -0.624 OA
BRANCH  17  20
HETATM   20  O           1     -22.999  -1.821 -12.673  0.00  0.00    -0.300 OA
HETATM   21  H           1     -22.742  -1.306 -13.419  0.00  0.00     0.223 HD
ENDBRANCH  17  20
ENDBRANCH  16  17
ENDBRANCH  13  16
ENDBRANCH   9  10
ENDBRANCH   5   9
ENDBRANCH   4   5
BRANCH   2  22
HETATM   22  C           1     -21.676  -7.988  -4.383  0.00  0.00     0.278 C 
BRANCH  22  23
HETATM   23  C           1     -20.847  -8.512  -3.217  0.00  0.00     0.081 C 
BRANCH  23  24
HETATM   24  C           1     -21.729  -9.279  -2.282  0.00  0.00    -0.056 A 
HETATM   25  C           1     -22.297 -10.485  -2.691  0.00  0.00     0.010 A 
HETATM   26  C           1     -23.119 -11.200  -1.819  0.00  0.00     0.037 A 
HETATM   27  C           1     -23.372 -10.707  -0.538  0.00  0.00     0.065 A 
HETATM   28  C           1     -22.804  -9.502  -0.130  0.00  0.00     0.037 A 
HETATM   29  C           1     -21.983  -8.787  -1.001  0.00  0.00     0.010 A 
BRANCH  27  30
HETATM   30  O           1     -24.171 -11.402   0.308  0.00  0.00    -0.361 OA
HETATM   31  H           1     -24.775 -10.771   0.736  0.00  0.00     0.217 HD
ENDBRANCH  27  30
ENDBRANCH  23  24
ENDBRANCH  22  23
BRANCH  22  32
HETATM   32  N           1     -21.155  -8.565  -5.665  0.00  0.00    -0.066 N 
HETATM   33  H           1     -20.246  -9.048  -5.486  0.00  0.00     0.275 HD
HETATM   34  H           1     -21.846  -9.251  -6.045  0.00  0.00     0.275 HD
HETATM   35  H           1     -21.011  -7.797  -6.360  0.00  0.00     0.275 HD
ENDBRANCH  22  32
ENDBRANCH   2  22
TORSDOF 12
ENDMDL
MODEL 2
REMARK VINA RESULT:      -8.7      1.675      2.419
REMARK  12 active torsions:
REMARK  status: ('A' for Active; 'I' for Inactive)
REMARK    1  A    between atoms: C_1  and  O_27 
REMARK    2  A    between atoms: C_3  and  C_25 
REMARK    3  A    between atoms: C_4  and  C_10 
REMARK    4  A    between atoms: C_4  and  C_5 
REMARK    5  A    between atoms: C_10  and  C_12 
REMARK    6  A    between atoms: C_10  and  N_30 
REMARK       I    between atoms: C_12  and  N_22 
REMARK    7  A    between atoms: O_18  and  P_28 
REMARK    8  A    between atoms: N_22  and  C_35 
REMARK    9  A    between atoms: C_23  and  C_35 
REMARK   10  A    between atoms: C_25  and  C_35 
REMARK   11  A    between atoms: P_28  and  O_34 
REMARK   12  A    between atoms: C_33  and  O_34 
ROOT
HETATM    1  O           1     -21.205  -5.584  -2.677  0.00  0.00    -0.271 OA
HETATM    2  C           1     -21.698  -6.567  -3.176  0.00  0.00     0.249 C 
HETATM    3  H           1     -23.423  -6.290  -4.288  0.00  0.00     0.163 HD
HETATM    4  N           1     -22.425  -6.457  -4.332  0.00  0.00    -0.344 N 
ENDROOT
BRANCH   4   5
HETATM    5  C           1     -21.766  -6.578  -5.618  0.00  0.00     0.189 C 
BRANCH   5   6
HETATM    6  C           1     -20.889  -7.806  -5.617  0.00  0.00     0.197 C 
HETATM    7  O           1     -19.644  -7.685  -5.615  0.00  0.00    -0.646 OA
HETATM    8  O           1     -21.406  -8.944  -5.621  0.00  0.00    -0.646 OA
ENDBRANCH   5   6
BRANCH   5   9
HETATM    9  C           1     -20.911  -5.343  -5.867  0.00  0.00     0.074 C 
BRANCH   9  10
HETATM   10  C           1     -21.196  -4.806  -7.236  0.00  0.00    -0.056 A 
HETATM   11  C           1     -20.251  -4.952  -8.253  0.00  0.00     0.010 A 
HETATM   12  C           1     -20.516  -4.451  -9.527  0.00  0.00     0.038 A 
HETATM   13  C           1     -21.726  -3.807  -9.786  0.00  0.00     0.081 A 
HETATM   14  C           1     -22.670  -3.661  -8.770  0.00  0.00     0.038 A 
HETATM   15  C           1     -22.406  -4.161  -7.494  0.00  0.00     0.010 A 
BRANCH  13  16
HETATM   16  O           1     -21.984  -3.321 -11.025  0.00  0.00    -0.247 OA
BRANCH  16  17
HETATM   17  P           1     -23.340  -3.801 -11.761  0.00  0.00     0.411 P 
HETATM   18  O           1     -24.465  -2.940 -11.332  0.00  0.00    -0.624 OA
HETATM   19  O           1     -23.626  -5.206 -11.396  0.00  0.00    -0.624 OA
BRANCH  17  20
HETATM   20  O           1     -23.153  -3.686 -13.361  0.00  0.00    -0.300 OA
HETATM   21  H           1     -23.218  -4.570 -13.678  0.00  0.00     0.223 HD
ENDBRANCH  17  20
ENDBRANCH  16  17
ENDBRANCH  13  16
ENDBRANCH   9  10
ENDBRANCH   5   9
ENDBRANCH   4   5
BRANCH   2  22
HETATM   22  C           1     -21.513  -7.917  -2.528  0.00  0.00     0.278 C 
BRANCH  22  23
HETATM   23  C           1     -21.924  -7.839  -1.064  0.00  0.00     0.081 C 
BRANCH  23  24
HETATM   24  C           1     -21.978  -9.217  -0.485  0.00  0.00    -0.056 A 
HETATM   25  C           1     -23.071 -10.043  -0.750  0.00  0.00     0.010 A 
HETATM   26  C           1     -23.120 -11.328  -0.211  0.00  0.00     0.037 A 
HETATM   27  C           1     -22.077 -11.789   0.593  0.00  0.00     0.065 A 
HETATM   28  C           1     -20.985 -10.964   0.858  0.00  0.00     0.037 A 
HETATM   29  C           1     -20.935  -9.678   0.319  0.00  0.00     0.010 A 
BRANCH  27  30
HETATM   30  O           1     -22.127 -13.038   1.117  0.00  0.00    -0.361 OA
HETATM   31  H           1     -21.254 -13.448   0.996  0.00  0.00     0.217 HD
ENDBRANCH  27  30
ENDBRANCH  23  24
ENDBRANCH  22  23
BRANCH  22  32
HETATM   32  N           1     -20.072  -8.321  -2.620  0.00  0.00    -0.066 N 
HETATM   33  H           1     -19.505  -7.746  -1.957  0.00  0.00     0.275 HD
HETATM   34  H           1     -19.976  -9.333  -2.374  0.00  0.00     0.275 HD
HETATM   35  H           1     -19.729  -8.168  -3.596  0.00  0.00     0.275 HD
ENDBRANCH  22  32
ENDBRANCH   2  22
TORSDOF 12
ENDMDL
MODEL 3
REMARK VINA RESULT:      -8.3      3.592     10.225
REMARK  12 active torsions:
REMARK  status: ('A' for Active; 'I' for Inactive)
REMARK    1  A    between atoms: C_1  and  O_27 
REMARK    2  A    between atoms: C_3  and  C_25 
REMARK    3  A    between atoms: C_4  and  C_10 
REMARK    4  A    between atoms: C_4  and  C_5 
REMARK    5  A    between atoms: C_10  and  C_12 
REMARK    6  A    between atoms: C_10  and  N_30 
REMARK       I    between atoms: C_12  and  N_22 
REMARK    7  A    between atoms: O_18  and  P_28 
REMARK    8  A    between atoms: N_22  and  C_35 
REMARK    9  A    between atoms: C_23  and  C_35 
REMARK   10  A    between atoms: C_25  and  C_35 
REMARK   11  A    between atoms: P_28  and  O_34 
REMARK   12  A    between atoms: C_33  and  O_34 
ROOT
HETATM    1  O           1     -19.415  -4.879  -6.048  0.00  0.00    -0.271 OA
HETATM    2  C           1     -20.171  -5.747  -6.413  0.00  0.00     0.249 C 
HETATM    3  H           1     -19.323  -7.429  -7.273  0.00  0.00     0.163 HD
HETATM    4  N           1     -19.755  -7.052  -6.439  0.00  0.00    -0.344 N 
ENDROOT
BRANCH   4   5
HETATM    5  C           1     -19.931  -7.893  -5.270  0.00  0.00     0.189 C 
BRANCH   5   6
HETATM    6  C           1     -18.842  -8.937  -5.236  0.00  0.00     0.197 C 
HETATM    7  O           1     -18.569  -9.590  -6.266  0.00  0.00    -0.646 OA
HETATM    8  O           1     -18.215  -9.151  -4.176  0.00  0.00    -0.646 OA
ENDBRANCH   5   6
BRANCH   5   9
HETATM    9  C           1     -21.290  -8.577  -5.340  0.00  0.00     0.074 C 
BRANCH   9  10
HETATM   10  C           1     -21.607  -9.194  -4.012  0.00  0.00    -0.056 A 
HETATM   11  C           1     -22.111 -10.493  -3.949  0.00  0.00     0.010 A 
HETATM   12  C           1     -22.407 -11.067  -2.713  0.00  0.00     0.038 A 
HETATM   13  C           1     -22.197 -10.343  -1.540  0.00  0.00     0.081 A 
HETATM   14  C           1     -21.693  -9.044  -1.602  0.00  0.00     0.038 A 
HETATM   15  C           1     -21.397  -8.469  -2.839  0.00  0.00     0.010 A 
BRANCH  13  16
HETATM   16  O           1     -22.483 -10.900  -0.338  0.00  0.00    -0.247 OA
BRANCH  16  17
HETATM   17  P           1     -21.273 -11.569   0.496  0.00  0.00     0.411 P 
HETATM   18  O           1     -21.793 -12.691   1.308  0.00  0.00    -0.624 OA
HETATM   19  O           1     -20.669 -10.553   1.387  0.00  0.00    -0.624 OA
BRANCH  17  20
HETATM   20  O           1     -20.153 -12.120  -0.529  0.00  0.00    -0.300 OA
HETATM   21  H           1     -19.687 -12.782  -0.048  0.00  0.00     0.223 HD
ENDBRANCH  17  20
ENDBRANCH  16  17
ENDBRANCH  13  16
ENDBRANCH   9  10
ENDBRANCH   5   9
ENDBRANCH   4   5
BRANCH   2  22
HETATM   22  C           1     -21.575  -5.395  -6.840  0.00  0.00     0.278 C 
BRANCH  22  23
HETATM   23  C           1     -21.614  -3.949  -7.317  0.00  0.00     0.081 C 
BRANCH  23  24
HETATM   24  C           1     -21.660  -3.917  -8.812  0.00  0.00    -0.056 A 
HETATM   25  C           1     -20.489  -4.093  -9.550  0.00  0.00     0.010 A 
HETATM   26  C           1     -20.532  -4.063 -10.944  0.00  0.00     0.037 A 
HETATM   27  C           1     -21.746  -3.858 -11.600  0.00  0.00     0.065 A 
HETATM   28  C           1     -22.917  -3.683 -10.863  0.00  0.00     0.037 A 
HETATM   29  C           1     -22.874  -3.713  -9.469  0.00  0.00     0.010 A 
BRANCH  27  30
HETATM   30  O           1     -21.787  -3.829 -12.955  0.00  0.00    -0.361 OA
HETATM   31  H           1     -21.274  -4.585 -13.286  0.00  0.00     0.217 HD
ENDBRANCH  27  30
ENDBRANCH  23  24
ENDBRANCH  22  23
BRANCH  22  32
HETATM   32  N           1     -22.508  -5.563  -5.678  0.00  0.00    -0.066 N 
HETATM   33  H           1     -22.198  -4.949  -4.891  0.00  0.00     0.275 HD
HETATM   34  H           1     -23.476  -5.298  -5.966  0.00  0.00     0.275 HD
HETATM   35  H           1     -22.499  -6.561  -5.365  0.00  0.00     0.275 HD
ENDBRANCH  22  32
ENDBRANCH   2  22
TORSDOF 12
ENDMDL
MODEL 4
REMARK VINA RESULT:      -8.2      3.536     10.146
REMARK  12 active torsions:
REMARK  status: ('A' for Active; 'I' for Inactive)
REMARK    1  A    between atoms: C_1  and  O_27 
REMARK    2  A    between atoms: C_3  and  C_25 
REMARK    3  A    between atoms: C_4  and  C_10 
REMARK    4  A    between atoms: C_4  and  C_5 
REMARK    5  A    between atoms: C_10  and  C_12 
REMARK    6  A    between atoms: C_10  and  N_30 
REMARK       I    between atoms: C_12  and  N_22 
REMARK    7  A    between atoms: O_18  and  P_28 
REMARK    8  A    between atoms: N_22  and  C_35 
REMARK    9  A    between atoms: C_23  and  C_35 
REMARK   10  A    between atoms: C_25  and  C_35 
REMARK   11  A    between atoms: P_28  and  O_34 
REMARK   12  A    between atoms: C_33  and  O_34 
ROOT
HETATM    1  O           1     -23.548  -4.455  -6.772  0.00  0.00    -0.271 OA
HETATM    2  C           1     -22.471  -4.170  -7.240  0.00  0.00     0.249 C 
HETATM    3  H           1     -21.209  -3.029  -6.060  0.00  0.00     0.163 HD
HETATM    4  N           1     -21.400  -3.958  -6.413  0.00  0.00    -0.344 N 
ENDROOT
BRANCH   4   5
HETATM    5  C           1     -20.540  -5.065  -6.042  0.00  0.00     0.189 C 
BRANCH   5   6
HETATM    6  C           1     -19.508  -5.282  -7.121  0.00  0.00     0.197 C 
HETATM    7  O           1     -19.549  -6.313  -7.828  0.00  0.00    -0.646 OA
HETATM    8  O           1     -18.612  -4.431  -7.309  0.00  0.00    -0.646 OA
ENDBRANCH   5   6
BRANCH   5   9
HETATM    9  C           1     -21.379  -6.326  -5.881  0.00  0.00     0.074 C 
BRANCH   9  10
HETATM   10  C           1     -21.222  -6.856  -4.489  0.00  0.00    -0.056 A 
HETATM   11  C           1     -21.907  -6.255  -3.432  0.00  0.00     0.010 A 
HETATM   12  C           1     -21.760  -6.748  -2.136  0.00  0.00     0.038 A 
HETATM   13  C           1     -20.929  -7.842  -1.896  0.00  0.00     0.081 A 
HETATM   14  C           1     -20.243  -8.443  -2.952  0.00  0.00     0.038 A 
HETATM   15  C           1     -20.390  -7.950  -4.249  0.00  0.00     0.010 A 
BRANCH  13  16
HETATM   16  O           1     -20.786  -8.322  -0.636  0.00  0.00    -0.247 OA
BRANCH  16  17
HETATM   17  P           1     -21.960  -9.261  -0.045  0.00  0.00     0.411 P 
HETATM   18  O           1     -21.377 -10.248   0.891  0.00  0.00    -0.624 OA
HETATM   19  O           1     -22.630  -9.970  -1.156  0.00  0.00    -0.624 OA
BRANCH  17  20
HETATM   20  O           1     -23.036  -8.346   0.739  0.00  0.00    -0.300 OA
HETATM   21  H           1     -23.107  -8.732   1.595  0.00  0.00     0.223 HD
ENDBRANCH  17  20
ENDBRANCH  16  17
ENDBRANCH  13  16
ENDBRANCH   9  10
ENDBRANCH   5   9
ENDBRANCH   4   5
BRANCH   2  22
HETATM   22  C           1     -22.306  -4.048  -8.735  0.00  0.00     0.278 C 
BRANCH  22  23
HETATM   23  C           1     -23.521  -3.346  -9.325  0.00  0.00     0.081 C 
BRANCH  23  24
HETATM   24  C           1     -23.379  -3.267 -10.813  0.00  0.00    -0.056 A 
HETATM   25  C           1     -22.113  -3.161 -11.388  0.00  0.00     0.010 A 
HETATM   26  C           1     -21.981  -3.088 -12.775  0.00  0.00     0.037 A 
HETATM   27  C           1     -23.115  -3.120 -13.586  0.00  0.00     0.065 A 
HETATM   28  C           1     -24.381  -3.226 -13.012  0.00  0.00     0.037 A 
HETATM   29  C           1     -24.513  -3.299 -11.625  0.00  0.00     0.010 A 
BRANCH  27  30
HETATM   30  O           1     -22.986  -3.048 -14.934  0.00  0.00    -0.361 OA
HETATM   31  H           1     -22.499  -2.234 -15.145  0.00  0.00     0.217 HD
ENDBRANCH  27  30
ENDBRANCH  23  24
ENDBRANCH  22  23
BRANCH  22  32
HETATM   32  N           1     -22.178  -5.415  -9.336  0.00  0.00    -0.066 N 
HETATM   33  H           1     -23.128  -5.788  -9.560  0.00  0.00     0.275 HD
HETATM   34  H           1     -21.610  -5.360 -10.212  0.00  0.00     0.275 HD
HETATM   35  H           1     -21.705  -6.053  -8.656  0.00  0.00     0.275 HD
ENDBRANCH  22  32
ENDBRANCH   2  22
TORSDOF 12
ENDMDL
MODEL 5
REMARK VINA RESULT:      -7.9      4.351      9.394
REMARK  12 active torsions:
REMARK  status: ('A' for Active; 'I' for Inactive)
REMARK    1  A    between atoms: C_1  and  O_27 
REMARK    2  A    between atoms: C_3  and  C_25 
REMARK    3  A    between atoms: C_4  and  C_10 
REMARK    4  A    between atoms: C_4  and  C_5 
REMARK    5  A    between atoms: C_10  and  C_12 
REMARK    6  A    between atoms: C_10  and  N_30 
REMARK       I    between atoms: C_12  and  N_22 
REMARK    7  A    between atoms: O_18  and  P_28 
REMARK    8  A    between atoms: N_22  and  C_35 
REMARK    9  A    between atoms: C_23  and  C_35 
REMARK   10  A    between atoms: C_25  and  C_35 
REMARK   11  A    between atoms: P_28  and  O_34 
REMARK   12  A    between atoms: C_33  and  O_34 
ROOT
HETATM    1  O           1     -22.519  -6.391  -4.343  0.00  0.00    -0.271 OA
HETATM    2  C           1     -21.334  -6.588  -4.220  0.00  0.00     0.249 C 
HETATM    3  H           1     -20.556  -6.463  -2.305  0.00  0.00     0.163 HD
HETATM    4  N           1     -20.841  -7.092  -3.045  0.00  0.00    -0.344 N 
ENDROOT
BRANCH   4   5
HETATM    5  C           1     -20.730  -8.526  -2.862  0.00  0.00     0.189 C 
BRANCH   5   6
HETATM    6  C           1     -21.857  -9.008  -1.982  0.00  0.00     0.197 C 
HETATM    7  O           1     -22.300  -8.272  -1.073  0.00  0.00    -0.646 OA
HETATM    8  O           1     -22.348 -10.143  -2.162  0.00  0.00    -0.646 OA
ENDBRANCH   5   6
BRANCH   5   9
HETATM    9  C           1     -19.396  -8.850  -2.201  0.00  0.00     0.074 C 
BRANCH   9  10
HETATM   10  C           1     -18.416  -9.291  -3.244  0.00  0.00    -0.056 A 
HETATM   11  C           1     -17.058  -9.379  -2.933  0.00  0.00     0.010 A 
HETATM   12  C           1     -16.146  -9.788  -3.904  0.00  0.00     0.038 A 
HETATM   13  C           1     -16.590 -10.111  -5.186  0.00  0.00     0.081 A 
HETATM   14  C           1     -17.947 -10.023  -5.497  0.00  0.00     0.038 A 
HETATM   15  C           1     -18.860  -9.613  -4.526  0.00  0.00     0.010 A 
BRANCH  13  16
HETATM   16  O           1     -15.703 -10.510  -6.130  0.00  0.00    -0.247 OA
BRANCH  16  17
HETATM   17  P           1     -15.480 -12.096  -6.340  0.00  0.00     0.411 P 
HETATM   18  O           1     -15.755 -12.805  -5.071  0.00  0.00    -0.624 OA
HETATM   19  O           1     -14.082 -12.347  -6.753  0.00  0.00    -0.624 OA
BRANCH  17  20
HETATM   20  O           1     -16.484 -12.633  -7.486  0.00  0.00    -0.300 OA
HETATM   21  H           1     -16.584 -11.911  -8.081  0.00  0.00     0.223 HD
ENDBRANCH  17  20
ENDBRANCH  16  17
ENDBRANCH  13  16
ENDBRANCH   9  10
ENDBRANCH   5   9
ENDBRANCH   4   5
BRANCH   2  22
HETATM   22  C           1     -20.395  -6.279  -5.360  0.00  0.00     0.278 C 
BRANCH  22  23
HETATM   23  C           1     -20.367  -4.776  -5.603  0.00  0.00     0.081 C 
BRANCH  23  24
HETATM   24  C           1     -20.803  -4.488  -7.005  0.00  0.00    -0.056 A 
HETATM   25  C           1     -19.861  -4.431  -8.031  0.00  0.00     0.010 A 
HETATM   26  C           1     -20.268  -4.162  -9.338  0.00  0.00     0.037 A 
HETATM   27  C           1     -21.618  -3.951  -9.619  0.00  0.00     0.065 A 
HETATM   28  C           1     -22.561  -4.008  -8.593  0.00  0.00     0.037 A 
HETATM   29  C           1     -22.153  -4.276  -7.286  0.00  0.00     0.010 A 
BRANCH  27  30
HETATM   30  O           1     -22.013  -3.689 -10.889  0.00  0.00    -0.361 OA
HETATM   31  H           1     -21.715  -4.424 -11.452  0.00  0.00     0.217 HD
ENDBRANCH  27  30
ENDBRANCH  23  24
ENDBRANCH  22  23
BRANCH  22  32
HETATM   32  N           1     -20.870  -6.976  -6.600  0.00  0.00    -0.066 N 
HETATM   33  H           1     -20.368  -7.888  -6.701  0.00  0.00     0.275 HD
HETATM   34  H           1     -21.898  -7.150  -6.531  0.00  0.00     0.275 HD
HETATM   35  H           1     -20.674  -6.377  -7.434  0.00  0.00     0.275 HD
ENDBRANCH  22  32
ENDBRANCH   2  22
TORSDOF 12
ENDMDL
MODEL 6
REMARK VINA RESULT:      -7.8      3.809      9.063
REMARK  12 active torsions:
REMARK  status: ('A' for Active; 'I' for Inactive)
REMARK    1  A    between atoms: C_1  and  O_27 
REMARK    2  A    between atoms: C_3  and  C_25 
REMARK    3  A    between atoms: C_4  and  C_10 
REMARK    4  A    between atoms: C_4  and  C_5 
REMARK    5  A    between atoms: C_10  and  C_12 
REMARK    6  A    between atoms: C_10  and  N_30 
REMARK       I    between atoms: C_12  and  N_22 
REMARK    7  A    between atoms: O_18  and  P_28 
REMARK    8  A    between atoms: N_22  and  C_35 
REMARK    9  A    between atoms: C_23  and  C_35 
REMARK   10  A    between atoms: C_25  and  C_35 
REMARK   11  A    between atoms: P_28  and  O_34 
REMARK   12  A    between atoms: C_33  and  O_34 
ROOT
HETATM    1  O           1     -22.840  -6.267  -4.730  0.00  0.00    -0.271 OA
HETATM    2  C           1     -21.715  -6.316  -4.292  0.00  0.00     0.249 C 
HETATM    3  H           1     -21.424  -5.590  -2.375  0.00  0.00     0.163 HD
HETATM    4  N           1     -21.511  -6.424  -2.941  0.00  0.00    -0.344 N 
ENDROOT
BRANCH   4   5
HETATM    5  C           1     -21.421  -7.733  -2.324  0.00  0.00     0.189 C 
BRANCH   5   6
HETATM    6  C           1     -22.260  -7.755  -1.070  0.00  0.00     0.197 C 
HETATM    7  O           1     -22.517  -8.842  -0.508  0.00  0.00    -0.646 OA
HETATM    8  O           1     -22.701  -6.686  -0.594  0.00  0.00    -0.646 OA
ENDBRANCH   5   6
BRANCH   5   9
HETATM    9  C           1     -19.969  -8.026  -1.968  0.00  0.00     0.074 C 
BRANCH   9  10
HETATM   10  C           1     -19.480  -9.185  -2.781  0.00  0.00    -0.056 A 
HETATM   11  C           1     -20.383 -10.146  -3.239  0.00  0.00     0.010 A 
HETATM   12  C           1     -19.927 -11.226  -3.995  0.00  0.00     0.038 A 
HETATM   13  C           1     -18.570 -11.344  -4.294  0.00  0.00     0.081 A 
HETATM   14  C           1     -17.668 -10.385  -3.836  0.00  0.00     0.038 A 
HETATM   15  C           1     -18.123  -9.304  -3.079  0.00  0.00     0.010 A 
BRANCH  13  16
HETATM   16  O           1     -18.127 -12.394  -5.029  0.00  0.00    -0.247 OA
BRANCH  16  17
HETATM   17  P           1     -17.800 -12.141  -6.591  0.00  0.00     0.411 P 
HETATM   18  O           1     -16.353 -11.876  -6.755  0.00  0.00    -0.624 OA
HETATM   19  O           1     -18.574 -10.976  -7.074  0.00  0.00    -0.624 OA
BRANCH  17  20
HETATM   20  O           1     -18.207 -13.450  -7.444  0.00  0.00    -0.300 OA
HETATM   21  H           1     -18.987 -13.204  -7.912  0.00  0.00     0.223 HD
ENDBRANCH  17  20
ENDBRANCH  16  17
ENDBRANCH  13  16
ENDBRANCH   9  10
ENDBRANCH   5   9
ENDBRANCH   4   5
BRANCH   2  22
HETATM   22  C           1     -20.536  -6.260  -5.231  0.00  0.00     0.278 C 
BRANCH  22  23
HETATM   23  C           1     -20.236  -4.809  -5.584  0.00  0.00     0.081 C 
BRANCH  23  24
HETATM   24  C           1     -20.638  -4.546  -7.001  0.00  0.00    -0.056 A 
HETATM   25  C           1     -19.702  -4.675  -8.027  0.00  0.00     0.010 A 
HETATM   26  C           1     -20.077  -4.430  -9.348  0.00  0.00     0.037 A 
HETATM   27  C           1     -21.388  -4.057  -9.643  0.00  0.00     0.065 A 
HETATM   28  C           1     -22.325  -3.929  -8.618  0.00  0.00     0.037 A 
HETATM   29  C           1     -21.949  -4.174  -7.297  0.00  0.00     0.010 A 
BRANCH  27  30
HETATM   30  O           1     -21.752  -3.819 -10.927  0.00  0.00    -0.361 OA
HETATM   31  H           1     -22.682  -3.536 -10.928  0.00  0.00     0.217 HD
ENDBRANCH  27  30
ENDBRANCH  23  24
ENDBRANCH  22  23
BRANCH  22  32
HETATM   32  N           1     -20.857  -7.023  -6.481  0.00  0.00    -0.066 N 
HETATM   33  H           1     -20.020  -7.033  -7.107  0.00  0.00     0.275 HD
HETATM   34  H           1     -21.120  -8.003  -6.234  0.00  0.00     0.275 HD
HETATM   35  H           1     -21.655  -6.562  -6.975  0.00  0.00     0.275 HD
ENDBRANCH  22  32
ENDBRANCH   2  22
TORSDOF 12
ENDMDL
MODEL 7
REMARK VINA RESULT:      -7.8      4.452      6.218
REMARK  12 active torsions:
REMARK  status: ('A' for Active; 'I' for Inactive)
REMARK    1  A    between atoms: C_1  and  O_27 
REMARK    2  A    between atoms: C_3  and  C_25 
REMARK    3  A    between atoms: C_4  and  C_10 
REMARK    4  A    between atoms: C_4  and  C_5 
REMARK    5  A    between atoms: C_10  and  C_12 
REMARK    6  A    between atoms: C_10  and  N_30 
REMARK       I    between atoms: C_12  and  N_22 
REMARK    7  A    between atoms: O_18  and  P_28 
REMARK    8  A    between atoms: N_22  and  C_35 
REMARK    9  A    between atoms: C_23  and  C_35 
REMARK   10  A    between atoms: C_25  and  C_35 
REMARK   11  A    between atoms: P_28  and  O_34 
REMARK   12  A    between atoms: C_33  and  O_34 
ROOT
HETATM    1  O           1     -19.163 -13.446  -2.844  0.00  0.00    -0.271 OA
HETATM    2  C           1     -19.474 -12.557  -2.087  0.00  0.00     0.249 C 
HETATM    3  H           1     -17.939 -11.399  -1.320  0.00  0.00     0.163 HD
HETATM    4  N           1     -18.695 -11.434  -1.992  0.00  0.00    -0.344 N 
ENDROOT
BRANCH   4   5
HETATM    5  C           1     -18.952 -10.298  -2.856  0.00  0.00     0.189 C 
BRANCH   5   6
HETATM    6  C           1     -17.646  -9.784  -3.409  0.00  0.00     0.197 C 
HETATM    7  O           1     -16.778  -9.321  -2.637  0.00  0.00    -0.646 OA
HETATM    8  O           1     -17.432  -9.820  -4.640  0.00  0.00    -0.646 OA
ENDBRANCH   5   6
BRANCH   5   9
HETATM    9  C           1     -19.632  -9.196  -2.053  0.00  0.00     0.074 C 
BRANCH   9  10
HETATM   10  C           1     -20.408  -8.311  -2.979  0.00  0.00    -0.056 A 
HETATM   11  C           1     -20.718  -8.749  -4.267  0.00  0.00     0.010 A 
HETATM   12  C           1     -21.439  -7.924  -5.129  0.00  0.00     0.038 A 
HETATM   13  C           1     -21.853  -6.662  -4.703  0.00  0.00     0.081 A 
HETATM   14  C           1     -21.543  -6.224  -3.416  0.00  0.00     0.038 A 
HETATM   15  C           1     -20.821  -7.048  -2.553  0.00  0.00     0.010 A 
BRANCH  13  16
HETATM   16  O           1     -22.555  -5.860  -5.541  0.00  0.00    -0.247 OA
BRANCH  16  17
HETATM   17  P           1     -21.752  -5.110  -6.724  0.00  0.00     0.411 P 
HETATM   18  O           1     -22.689  -4.267  -7.499  0.00  0.00    -0.624 OA
HETATM   19  O           1     -21.139  -6.117  -7.618  0.00  0.00    -0.624 OA
BRANCH  17  20
HETATM   20  O           1     -20.596  -4.181  -6.084  0.00  0.00    -0.300 OA
HETATM   21  H           1     -20.275  -3.662  -6.801  0.00  0.00     0.223 HD
ENDBRANCH  17  20
ENDBRANCH  16  17
ENDBRANCH  13  16
ENDBRANCH   9  10
ENDBRANCH   5   9
ENDBRANCH   4   5
BRANCH   2  22
HETATM   22  C           1     -20.721 -12.683  -1.248  0.00  0.00     0.278 C 
BRANCH  22  23
HETATM   23  C           1     -20.483 -12.048   0.116  0.00  0.00     0.081 C 
BRANCH  23  24
HETATM   24  C           1     -21.340 -10.830   0.257  0.00  0.00    -0.056 A 
HETATM   25  C           1     -20.883  -9.738   0.995  0.00  0.00     0.010 A 
HETATM   26  C           1     -21.683  -8.602   1.126  0.00  0.00     0.037 A 
HETATM   27  C           1     -22.939  -8.559   0.521  0.00  0.00     0.065 A 
HETATM   28  C           1     -23.396  -9.651  -0.216  0.00  0.00     0.037 A 
HETATM   29  C           1     -22.596 -10.786  -0.348  0.00  0.00     0.010 A 
BRANCH  27  30
HETATM   30  O           1     -23.715  -7.455   0.650  0.00  0.00    -0.361 OA
HETATM   31  H           1     -24.389  -7.641   1.326  0.00  0.00     0.217 HD
ENDBRANCH  27  30
ENDBRANCH  23  24
ENDBRANCH  22  23
BRANCH  22  32
HETATM   32  N           1     -21.061 -14.133  -1.072  0.00  0.00    -0.066 N 
HETATM   33  H           1     -21.517 -14.273  -0.142  0.00  0.00     0.275 HD
HETATM   34  H           1     -21.714 -14.433  -1.830  0.00  0.00     0.275 HD
HETATM   35  H           1     -20.186 -14.704  -1.121  0.00  0.00     0.275 HD
ENDBRANCH  22  32
ENDBRANCH   2  22
TORSDOF 12
ENDMDL
MODEL 8
REMARK VINA RESULT:      -7.6      6.168      9.874
REMARK  12 active torsions:
REMARK  status: ('A' for Active; 'I' for Inactive)
REMARK    1  A    between atoms: C_1  and  O_27 
REMARK    2  A    between atoms: C_3  and  C_25 
REMARK    3  A    between atoms: C_4  and  C_10 
REMARK    4  A    between atoms: C_4  and  C_5 
REMARK    5  A    between atoms: C_10  and  C_12 
REMARK    6  A    between atoms: C_10  and  N_30 
REMARK       I    between atoms: C_12  and  N_22 
REMARK    7  A    between atoms: O_18  and  P_28 
REMARK    8  A    between atoms: N_22  and  C_35 
REMARK    9  A    between atoms: C_23  and  C_35 
REMARK   10  A    between atoms: C_25  and  C_35 
REMARK   11  A    between atoms: P_28  and  O_34 
REMARK   12  A    between atoms: C_33  and  O_34 
ROOT
HETATM    1  O           1     -21.277  -8.383  -5.759  0.00  0.00    -0.271 OA
HETATM    2  C           1     -20.550  -8.665  -4.836  0.00  0.00     0.249 C 
HETATM    3  H           1     -19.713  -7.089  -3.786  0.00  0.00     0.163 HD
HETATM    4  N           1     -20.426  -7.807  -3.775  0.00  0.00    -0.344 N 
ENDROOT
BRANCH   4   5
HETATM    5  C           1     -21.316  -7.929  -2.637  0.00  0.00     0.189 C 
BRANCH   5   6
HETATM    6  C           1     -21.850  -6.566  -2.271  0.00  0.00     0.197 C 
HETATM    7  O           1     -21.518  -5.563  -2.941  0.00  0.00    -0.646 OA
HETATM    8  O           1     -22.623  -6.438  -1.297  0.00  0.00    -0.646 OA
ENDBRANCH   5   6
BRANCH   5   9
HETATM    9  C           1     -20.551  -8.509  -1.455  0.00  0.00     0.074 C 
BRANCH   9  10
HETATM   10  C           1     -21.310  -9.669  -0.889  0.00  0.00    -0.056 A 
HETATM   11  C           1     -20.759 -10.426   0.146  0.00  0.00     0.010 A 
HETATM   12  C           1     -21.465 -11.506   0.672  0.00  0.00     0.038 A 
HETATM   13  C           1     -22.724 -11.830   0.165  0.00  0.00     0.081 A 
HETATM   14  C           1     -23.275 -11.074  -0.869  0.00  0.00     0.038 A 
HETATM   15  C           1     -22.569  -9.993  -1.397  0.00  0.00     0.010 A 
BRANCH  13  16
HETATM   16  O           1     -23.412 -12.880   0.677  0.00  0.00    -0.247 OA
BRANCH  16  17
HETATM   17  P           1     -23.482 -14.238  -0.194  0.00  0.00     0.411 P 
HETATM   18  O           1     -24.637 -14.174  -1.116  0.00  0.00    -0.624 OA
HETATM   19  O           1     -23.638 -15.397   0.713  0.00  0.00    -0.624 OA
BRANCH  17  20
HETATM   20  O           1     -22.120 -14.401  -1.047  0.00  0.00    -0.300 OA
HETATM   21  H           1     -21.901 -15.314  -0.985  0.00  0.00     0.223 HD
ENDBRANCH  17  20
ENDBRANCH  16  17
ENDBRANCH  13  16
ENDBRANCH   9  10
ENDBRANCH   5   9
ENDBRANCH   4   5
BRANCH   2  22
HETATM   22  C           1     -19.779  -9.962  -4.852  0.00  0.00     0.278 C 
BRANCH  22  23
HETATM   23  C           1     -18.286  -9.665  -4.910  0.00  0.00     0.081 C 
BRANCH  23  24
HETATM   24  C           1     -17.618 -10.221  -3.691  0.00  0.00    -0.056 A 
HETATM   25  C           1     -18.335 -11.034  -2.813  0.00  0.00     0.010 A 
HETATM   26  C           1     -17.712 -11.552  -1.677  0.00  0.00     0.037 A 
HETATM   27  C           1     -16.373 -11.257  -1.420  0.00  0.00     0.065 A 
HETATM   28  C           1     -15.657 -10.444  -2.297  0.00  0.00     0.037 A 
HETATM   29  C           1     -16.279  -9.926  -3.433  0.00  0.00     0.010 A 
BRANCH  27  30
HETATM   30  O           1     -15.769 -11.760  -0.315  0.00  0.00    -0.361 OA
HETATM   31  H           1     -15.924 -11.141   0.419  0.00  0.00     0.217 HD
ENDBRANCH  27  30
ENDBRANCH  23  24
ENDBRANCH  22  23
BRANCH  22  32
HETATM   32  N           1     -20.175 -10.765  -6.055  0.00  0.00    -0.066 N 
HETATM   33  H           1     -19.677 -11.683  -6.041  0.00  0.00     0.275 HD
HETATM   34  H           1     -21.208 -10.928  -6.041  0.00  0.00     0.275 HD
HETATM   35  H           1     -19.918 -10.241  -6.923  0.00  0.00     0.275 HD
ENDBRANCH  22  32
ENDBRANCH   2  22
TORSDOF 12
ENDMDL
MODEL 9
REMARK VINA RESULT:      -7.5      5.299      8.631
REMARK  12 active torsions:
REMARK  status: ('A' for Active; 'I' for Inactive)
REMARK    1  A    between atoms: C_1  and  O_27 
REMARK    2  A    between atoms: C_3  and  C_25 
REMARK    3  A    between atoms: C_4  and  C_10 
REMARK    4  A    between atoms: C_4  and  C_5 
REMARK    5  A    between atoms: C_10  and  C_12 
REMARK    6  A    between atoms: C_10  and  N_30 
REMARK       I    between atoms: C_12  and  N_22 
REMARK    7  A    between atoms: O_18  and  P_28 
REMARK    8  A    between atoms: N_22  and  C_35 
REMARK    9  A    between atoms: C_23  and  C_35 
REMARK   10  A    between atoms: C_25  and  C_35 
REMARK   11  A    between atoms: P_28  and  O_34 
REMARK   12  A    between atoms: C_33  and  O_34 
ROOT
HETATM    1  O           1     -22.078  -5.897  -2.270  0.00  0.00    -0.271 OA
HETATM    2  C           1     -21.822  -7.054  -2.507  0.00  0.00     0.249 C 
HETATM    3  H           1     -22.610  -7.851  -4.248  0.00  0.00     0.163 HD
HETATM    4  N           1     -21.774  -7.492  -3.804  0.00  0.00    -0.344 N 
ENDROOT
BRANCH   4   5
HETATM    5  C           1     -20.527  -7.442  -4.541  0.00  0.00     0.189 C 
BRANCH   5   6
HETATM    6  C           1     -20.600  -6.347  -5.577  0.00  0.00     0.197 C 
HETATM    7  O           1     -20.832  -6.631  -6.772  0.00  0.00    -0.646 OA
HETATM    8  O           1     -20.427  -5.156  -5.239  0.00  0.00    -0.646 OA
ENDBRANCH   5   6
BRANCH   5   9
HETATM    9  C           1     -20.293  -8.780  -5.232  0.00  0.00     0.074 C 
BRANCH   9  10
HETATM   10  C           1     -18.963  -9.330  -4.818  0.00  0.00    -0.056 A 
HETATM   11  C           1     -18.177 -10.022  -5.740  0.00  0.00     0.010 A 
HETATM   12  C           1     -16.939 -10.535  -5.354  0.00  0.00     0.038 A 
HETATM   13  C           1     -16.486 -10.355  -4.047  0.00  0.00     0.081 A 
HETATM   14  C           1     -17.272  -9.664  -3.125  0.00  0.00     0.038 A 
HETATM   15  C           1     -18.511  -9.150  -3.510  0.00  0.00     0.010 A 
BRANCH  13  16
HETATM   16  O           1     -15.283 -10.853  -3.671  0.00  0.00    -0.247 OA
BRANCH  16  17
HETATM   17  P           1     -15.251 -12.300  -2.953  0.00  0.00     0.411 P 
HETATM   18  O           1     -13.908 -12.901  -3.115  0.00  0.00    -0.624 OA
HETATM   19  O           1     -16.264 -13.180  -3.575  0.00  0.00    -0.624 OA
BRANCH  17  20
HETATM   20  O           1     -15.578 -12.127  -1.381  0.00  0.00    -0.300 OA
HETATM   21  H           1     -16.461 -12.437  -1.280  0.00  0.00     0.223 HD
ENDBRANCH  17  20
ENDBRANCH  16  17
ENDBRANCH  13  16
ENDBRANCH   9  10
ENDBRANCH   5   9
ENDBRANCH   4   5
BRANCH   2  22
HETATM   22  C           1     -21.553  -8.015  -1.375  0.00  0.00     0.278 C 
BRANCH  22  23
HETATM   23  C           1     -22.221  -9.351  -1.673  0.00  0.00     0.081 C 
BRANCH  23  24
HETATM   24  C           1     -21.197 -10.441  -1.634  0.00  0.00    -0.056 A 
HETATM   25  C           1     -20.293 -10.511  -0.574  0.00  0.00     0.010 A 
HETATM   26  C           1     -19.338 -11.527  -0.538  0.00  0.00     0.037 A 
HETATM   27  C           1     -19.287 -12.474  -1.561  0.00  0.00     0.065 A 
HETATM   28  C           1     -20.191 -12.404  -2.621  0.00  0.00     0.037 A 
HETATM   29  C           1     -21.145 -11.388  -2.657  0.00  0.00     0.010 A 
BRANCH  27  30
HETATM   30  O           1     -18.359 -13.461  -1.526  0.00  0.00    -0.361 OA
HETATM   31  H           1     -17.552 -13.128  -1.955  0.00  0.00     0.217 HD
ENDBRANCH  27  30
ENDBRANCH  23  24
ENDBRANCH  22  23
BRANCH  22  32
HETATM   32  N           1     -22.108  -7.452  -0.101  0.00  0.00    -0.066 N 
HETATM   33  H           1     -22.183  -8.213   0.612  0.00  0.00     0.275 HD
HETATM   34  H           1     -21.473  -6.702   0.255  0.00  0.00     0.275 HD
HETATM   35  H           1     -23.055  -7.049  -0.281  0.00  0.00     0.275 HD
ENDBRANCH  22  32
ENDBRANCH   2  22
TORSDOF 12
ENDMDL
