MODEL 1
REMARK VINA RESULT:      -5.9      0.000      0.000
REMARK  8 active torsions:
REMARK  status: ('A' for Active; 'I' for Inactive)
REMARK    1  A    between atoms: N_3  and  C_9 
REMARK       I    between atoms: N_3  and  C_6 
REMARK    2  A    between atoms: C_4  and  C_5 
REMARK    3  A    between atoms: C_4  and  C_13 
REMARK    4  A    between atoms: C_5  and  C_6 
REMARK    5  A    between atoms: C_5  and  N_16 
REMARK    6  A    between atoms: S_7  and  C_8 
REMARK    7  A    between atoms: C_8  and  C_9 
REMARK    8  A    between atoms: C_9  and  C_10 
REMARK       I    between atoms: C_13  and  N_14 
ROOT
HETATM    1  C           1     -33.621  -2.775 -11.249  0.00  0.00     0.283 C 
ENDROOT
BRANCH   1   2
HETATM    2  C           1     -34.168  -4.087 -10.705  0.00  0.00     0.145 C 
BRANCH   2   3
HETATM    3  C           1     -33.349  -5.236 -11.242  0.00  0.00     0.217 C 
HETATM    4  N           1     -32.317  -4.995 -12.108  0.00  0.00    -0.370 N 
HETATM    5  H           1     -31.768  -5.765 -12.468  0.00  0.00     0.159 HD
HETATM    6  H           1     -32.102  -4.046 -12.387  0.00  0.00     0.159 HD
HETATM    7  O           1     -33.606  -6.368 -10.908  0.00  0.00    -0.274 OA
ENDBRANCH   2   3
ENDBRANCH   1   2
BRANCH   1   8
HETATM    8  C           1     -34.457  -2.328 -12.423  0.00  0.00     0.249 C 
HETATM    9  N           1     -35.185  -1.171 -12.343  0.00  0.00    -0.344 N 
HETATM   10  H           1     -35.162  -0.616 -11.497  0.00  0.00     0.163 HD
HETATM   11  O           1     -34.486  -2.992 -13.432  0.00  0.00    -0.271 OA
BRANCH   9  12
HETATM   12  C           1     -35.989  -0.741 -13.471  0.00  0.00     0.194 C 
BRANCH  12  13
HETATM   13  C           1     -37.257  -0.069 -12.963  0.00  0.00     0.106 C 
BRANCH  13  14
HETATM   14  S           1     -37.276  -0.101 -11.148  0.00  0.00    -0.180 SA
HETATM   15  H           1     -36.945   1.193 -10.982  0.00  0.00     0.101 HD
ENDBRANCH  13  14
ENDBRANCH  12  13
BRANCH  12  16
HETATM   16  C           1     -35.200   0.237 -14.307  0.00  0.00     0.197 C 
HETATM   17  O           1     -34.892  -0.053 -15.483  0.00  0.00    -0.646 OA
HETATM   18  O           1     -34.854   1.336 -13.822  0.00  0.00    -0.646 OA
ENDBRANCH  12  16
ENDBRANCH   9  12
ENDBRANCH   1   8
BRANCH   1  19
HETATM   19  N           1     -33.670  -1.730 -10.174  0.00  0.00    -0.066 N 
HETATM   20  H           1     -33.851  -0.794 -10.603  0.00  0.00     0.275 HD
HETATM   21  H           1     -34.436  -1.959  -9.501  0.00  0.00     0.275 HD
HETATM   22  H           1     -32.756  -1.709  -9.667  0.00  0.00     0.275 HD
ENDBRANCH   1  19
TORSDOF 8
ENDMDL
MODEL 2
REMARK VINA RESULT:      -5.5     12.493     14.067
REMARK  8 active torsions:
REMARK  status: ('A' for Active; 'I' for Inactive)
REMARK    1  A    between atoms: N_3  and  C_9 
REMARK       I    between atoms: N_3  and  C_6 
REMARK    2  A    between atoms: C_4  and  C_5 
REMARK    3  A    between atoms: C_4  and  C_13 
REMARK    4  A    between atoms: C_5  and  C_6 
REMARK    5  A    between atoms: C_5  and  N_16 
REMARK    6  A    between atoms: S_7  and  C_8 
REMARK    7  A    between atoms: C_8  and  C_9 
REMARK    8  A    between atoms: C_9  and  C_10 
REMARK       I    between atoms: C_13  and  N_14 
ROOT
HETATM    1  C           1     -21.196  -5.717  -6.805  0.00  0.00     0.283 C 
ENDROOT
BRANCH   1   2
HETATM    2  C           1     -20.914  -5.219  -5.394  0.00  0.00     0.145 C 
BRANCH   2   3
HETATM    3  C           1     -21.171  -6.331  -4.406  0.00  0.00     0.217 C 
HETATM    4  N           1     -22.014  -6.126  -3.348  0.00  0.00    -0.370 N 
HETATM    5  H           1     -22.187  -6.871  -2.686  0.00  0.00     0.159 HD
HETATM    6  H           1     -22.467  -5.227  -3.228  0.00  0.00     0.159 HD
HETATM    7  O           1     -20.631  -7.402  -4.549  0.00  0.00    -0.274 OA
ENDBRANCH   2   3
ENDBRANCH   1   2
BRANCH   1   8
HETATM    8  C           1     -21.723  -4.579  -7.645  0.00  0.00     0.249 C 
HETATM    9  N           1     -22.299  -4.836  -8.859  0.00  0.00    -0.344 N 
HETATM   10  H           1     -22.372  -5.788  -9.194  0.00  0.00     0.163 HD
HETATM   11  O           1     -21.635  -3.442  -7.245  0.00  0.00    -0.271 OA
BRANCH   9  12
HETATM   12  C           1     -22.806  -3.743  -9.667  0.00  0.00     0.194 C 
BRANCH  12  13
HETATM   13  C           1     -22.269  -3.870 -11.086  0.00  0.00     0.106 C 
BRANCH  13  14
HETATM   14  S           1     -20.455  -3.910 -11.048  0.00  0.00    -0.180 SA
HETATM   15  H           1     -20.351  -4.302  -9.766  0.00  0.00     0.101 HD
ENDBRANCH  13  14
ENDBRANCH  12  13
BRANCH  12  16
HETATM   16  C           1     -24.314  -3.794  -9.692  0.00  0.00     0.197 C 
HETATM   17  O           1     -24.977  -2.748  -9.522  0.00  0.00    -0.646 OA
HETATM   18  O           1     -24.900  -4.882  -9.882  0.00  0.00    -0.646 OA
ENDBRANCH  12  16
ENDBRANCH   9  12
ENDBRANCH   1   8
BRANCH   1  19
HETATM   19  N           1     -19.928  -6.242  -7.412  0.00  0.00    -0.066 N 
HETATM   20  H           1     -19.137  -5.601  -7.176  0.00  0.00     0.275 HD
HETATM   21  H           1     -19.731  -7.196  -7.033  0.00  0.00     0.275 HD
HETATM   22  H           1     -20.036  -6.294  -8.450  0.00  0.00     0.275 HD
ENDBRANCH   1  19
TORSDOF 8
ENDMDL
MODEL 3
REMARK VINA RESULT:      -5.5      2.088      2.335
REMARK  8 active torsions:
REMARK  status: ('A' for Active; 'I' for Inactive)
REMARK    1  A    between atoms: N_3  and  C_9 
REMARK       I    between atoms: N_3  and  C_6 
REMARK    2  A    between atoms: C_4  and  C_5 
REMARK    3  A    between atoms: C_4  and  C_13 
REMARK    4  A    between atoms: C_5  and  C_6 
REMARK    5  A    between atoms: C_5  and  N_16 
REMARK    6  A    between atoms: S_7  and  C_8 
REMARK    7  A    between atoms: C_8  and  C_9 
REMARK    8  A    between atoms: C_9  and  C_10 
REMARK       I    between atoms: C_13  and  N_14 
ROOT
HETATM    1  C           1     -34.294  -2.450 -12.064  0.00  0.00     0.283 C 
ENDROOT
BRANCH   1   2
HETATM    2  C           1     -34.908  -3.772 -11.623  0.00  0.00     0.145 C 
BRANCH   2   3
HETATM    3  C           1     -33.847  -4.846 -11.627  0.00  0.00     0.217 C 
HETATM    4  N           1     -34.209  -6.165 -11.566  0.00  0.00    -0.370 N 
HETATM    5  H           1     -33.499  -6.886 -11.569  0.00  0.00     0.159 HD
HETATM    6  H           1     -35.188  -6.420 -11.518  0.00  0.00     0.159 HD
HETATM    7  O           1     -32.680  -4.542 -11.684  0.00  0.00    -0.274 OA
ENDBRANCH   2   3
ENDBRANCH   1   2
BRANCH   1   8
HETATM    8  C           1     -35.283  -1.695 -12.918  0.00  0.00     0.249 C 
HETATM    9  N           1     -34.901  -1.212 -14.140  0.00  0.00    -0.344 N 
HETATM   10  H           1     -33.956  -1.360 -14.471  0.00  0.00     0.163 HD
HETATM   11  O           1     -36.410  -1.517 -12.522  0.00  0.00    -0.271 OA
BRANCH   9  12
HETATM   12  C           1     -35.851  -0.487 -14.962  0.00  0.00     0.194 C 
BRANCH  12  13
HETATM   13  C           1     -35.460   0.984 -15.012  0.00  0.00     0.106 C 
BRANCH  13  14
HETATM   14  S           1     -34.513   1.411 -13.523  0.00  0.00    -0.180 SA
HETATM   15  H           1     -33.693   0.345 -13.568  0.00  0.00     0.101 HD
ENDBRANCH  13  14
ENDBRANCH  12  13
BRANCH  12  16
HETATM   16  C           1     -35.845  -1.057 -16.359  0.00  0.00     0.197 C 
HETATM   17  O           1     -34.908  -1.795 -16.729  0.00  0.00    -0.646 OA
HETATM   18  O           1     -36.779  -0.790 -17.146  0.00  0.00    -0.646 OA
ENDBRANCH  12  16
ENDBRANCH   9  12
ENDBRANCH   1   8
BRANCH   1  19
HETATM   19  N           1     -33.951  -1.631 -10.854  0.00  0.00    -0.066 N 
HETATM   20  H           1     -34.792  -1.095 -10.545  0.00  0.00     0.275 HD
HETATM   21  H           1     -33.637  -2.265 -10.084  0.00  0.00     0.275 HD
HETATM   22  H           1     -33.182  -0.965 -11.092  0.00  0.00     0.275 HD
ENDBRANCH   1  19
TORSDOF 8
ENDMDL
MODEL 4
REMARK VINA RESULT:      -5.4     11.807     13.810
REMARK  8 active torsions:
REMARK  status: ('A' for Active; 'I' for Inactive)
REMARK    1  A    between atoms: N_3  and  C_9 
REMARK       I    between atoms: N_3  and  C_6 
REMARK    2  A    between atoms: C_4  and  C_5 
REMARK    3  A    between atoms: C_4  and  C_13 
REMARK    4  A    between atoms: C_5  and  C_6 
REMARK    5  A    between atoms: C_5  and  N_16 
REMARK    6  A    between atoms: S_7  and  C_8 
REMARK    7  A    between atoms: C_8  and  C_9 
REMARK    8  A    between atoms: C_9  and  C_10 
REMARK       I    between atoms: C_13  and  N_14 
ROOT
HETATM    1  C           1     -23.298  -3.921 -11.346  0.00  0.00     0.283 C 
ENDROOT
BRANCH   1   2
HETATM    2  C           1     -22.729  -2.726 -12.100  0.00  0.00     0.145 C 
BRANCH   2   3
HETATM    3  C           1     -23.332  -2.669 -13.483  0.00  0.00     0.217 C 
HETATM    4  N           1     -22.572  -2.992 -14.575  0.00  0.00    -0.370 N 
HETATM    5  H           1     -22.976  -2.955 -15.501  0.00  0.00     0.159 HD
HETATM    6  H           1     -21.606  -3.271 -14.455  0.00  0.00     0.159 HD
HETATM    7  O           1     -24.484  -2.338 -13.625  0.00  0.00    -0.274 OA
ENDBRANCH   2   3
ENDBRANCH   1   2
BRANCH   1   8
HETATM    8  C           1     -22.313  -4.369 -10.295  0.00  0.00     0.249 C 
HETATM    9  N           1     -22.681  -4.389  -8.977  0.00  0.00    -0.344 N 
HETATM   10  H           1     -23.614  -4.103  -8.707  0.00  0.00     0.163 HD
HETATM   11  O           1     -21.199  -4.710 -10.617  0.00  0.00    -0.271 OA
BRANCH   9  12
HETATM   12  C           1     -21.735  -4.820  -7.966  0.00  0.00     0.194 C 
BRANCH  12  13
HETATM   13  C           1     -20.738  -3.702  -7.694  0.00  0.00     0.106 C 
BRANCH  13  14
HETATM   14  S           1     -19.069  -4.398  -7.549  0.00  0.00    -0.180 SA
HETATM   15  H           1     -18.434  -3.363  -8.128  0.00  0.00     0.101 HD
ENDBRANCH  13  14
ENDBRANCH  12  13
BRANCH  12  16
HETATM   16  C           1     -22.476  -5.156  -6.694  0.00  0.00     0.197 C 
HETATM   17  O           1     -21.933  -5.871  -5.826  0.00  0.00    -0.646 OA
HETATM   18  O           1     -23.632  -4.719  -6.512  0.00  0.00    -0.646 OA
ENDBRANCH  12  16
ENDBRANCH   9  12
ENDBRANCH   1   8
BRANCH   1  19
HETATM   19  N           1     -24.587  -3.526 -10.687  0.00  0.00    -0.066 N 
HETATM   20  H           1     -24.905  -2.605 -11.064  0.00  0.00     0.275 HD
HETATM   21  H           1     -25.313  -4.252 -10.881  0.00  0.00     0.275 HD
HETATM   22  H           1     -24.440  -3.447  -9.655  0.00  0.00     0.275 HD
ENDBRANCH   1  19
TORSDOF 8
ENDMDL
MODEL 5
REMARK VINA RESULT:      -5.3     11.913     13.852
REMARK  8 active torsions:
REMARK  status: ('A' for Active; 'I' for Inactive)
REMARK    1  A    between atoms: N_3  and  C_9 
REMARK       I    between atoms: N_3  and  C_6 
REMARK    2  A    between atoms: C_4  and  C_5 
REMARK    3  A    between atoms: C_4  and  C_13 
REMARK    4  A    between atoms: C_5  and  C_6 
REMARK    5  A    between atoms: C_5  and  N_16 
REMARK    6  A    between atoms: S_7  and  C_8 
REMARK    7  A    between atoms: C_8  and  C_9 
REMARK    8  A    between atoms: C_9  and  C_10 
REMARK       I    between atoms: C_13  and  N_14 
ROOT
HETATM    1  C           1     -24.253  -4.613 -10.068  0.00  0.00     0.283 C 
ENDROOT
BRANCH   1   2
HETATM    2  C           1     -23.700  -4.608 -11.487  0.00  0.00     0.145 C 
BRANCH   2   3
HETATM    3  C           1     -24.044  -3.299 -12.157  0.00  0.00     0.217 C 
HETATM    4  N           1     -23.148  -2.264 -12.137  0.00  0.00    -0.370 N 
HETATM    5  H           1     -23.378  -1.388 -12.586  0.00  0.00     0.159 HD
HETATM    6  H           1     -22.255  -2.376 -11.673  0.00  0.00     0.159 HD
HETATM    7  O           1     -25.109  -3.166 -12.710  0.00  0.00    -0.274 OA
ENDBRANCH   2   3
ENDBRANCH   1   2
BRANCH   1   8
HETATM    8  C           1     -23.149  -4.281  -9.095  0.00  0.00     0.249 C 
HETATM    9  N           1     -22.252  -5.247  -8.724  0.00  0.00    -0.344 N 
HETATM   10  H           1     -22.330  -6.182  -9.101  0.00  0.00     0.163 HD
HETATM   11  O           1     -23.056  -3.164  -8.644  0.00  0.00    -0.271 OA
BRANCH   9  12
HETATM   12  C           1     -21.190  -4.928  -7.790  0.00  0.00     0.194 C 
BRANCH  12  13
HETATM   13  C           1     -20.946  -6.119  -6.873  0.00  0.00     0.106 C 
BRANCH  13  14
HETATM   14  S           1     -20.850  -5.551  -5.152  0.00  0.00    -0.180 SA
HETATM   15  H           1     -19.684  -6.158  -4.868  0.00  0.00     0.101 HD
ENDBRANCH  13  14
ENDBRANCH  12  13
BRANCH  12  16
HETATM   16  C           1     -19.926  -4.613  -8.553  0.00  0.00     0.197 C 
HETATM   17  O           1     -18.925  -4.173  -7.949  0.00  0.00    -0.646 OA
HETATM   18  O           1     -19.882  -4.792  -9.789  0.00  0.00    -0.646 OA
ENDBRANCH  12  16
ENDBRANCH   9  12
ENDBRANCH   1   8
BRANCH   1  19
HETATM   19  N           1     -25.344  -3.590  -9.954  0.00  0.00    -0.066 N 
HETATM   20  H           1     -25.166  -2.813 -10.630  0.00  0.00     0.275 HD
HETATM   21  H           1     -26.264  -4.037 -10.170  0.00  0.00     0.275 HD
HETATM   22  H           1     -25.362  -3.208  -8.981  0.00  0.00     0.275 HD
ENDBRANCH   1  19
TORSDOF 8
ENDMDL
MODEL 6
REMARK VINA RESULT:      -4.9     13.868     16.324
REMARK  8 active torsions:
REMARK  status: ('A' for Active; 'I' for Inactive)
REMARK    1  A    between atoms: N_3  and  C_9 
REMARK       I    between atoms: N_3  and  C_6 
REMARK    2  A    between atoms: C_4  and  C_5 
REMARK    3  A    between atoms: C_4  and  C_13 
REMARK    4  A    between atoms: C_5  and  C_6 
REMARK    5  A    between atoms: C_5  and  N_16 
REMARK    6  A    between atoms: S_7  and  C_8 
REMARK    7  A    between atoms: C_8  and  C_9 
REMARK    8  A    between atoms: C_9  and  C_10 
REMARK       I    between atoms: C_13  and  N_14 
ROOT
HETATM    1  C           1     -20.643  -4.829  -6.699  0.00  0.00     0.283 C 
ENDROOT
BRANCH   1   2
HETATM    2  C           1     -21.410  -3.559  -7.042  0.00  0.00     0.145 C 
BRANCH   2   3
HETATM    3  C           1     -22.297  -3.812  -8.237  0.00  0.00     0.217 C 
HETATM    4  N           1     -23.613  -4.143  -8.056  0.00  0.00    -0.370 N 
HETATM    5  H           1     -24.207  -4.312  -8.856  0.00  0.00     0.159 HD
HETATM    6  H           1     -23.992  -4.217  -7.119  0.00  0.00     0.159 HD
HETATM    7  O           1     -21.844  -3.723  -9.353  0.00  0.00    -0.274 OA
ENDBRANCH   2   3
ENDBRANCH   1   2
BRANCH   1   8
HETATM    8  C           1     -21.470  -5.680  -5.766  0.00  0.00     0.249 C 
HETATM    9  N           1     -20.861  -6.618  -4.977  0.00  0.00    -0.344 N 
HETATM   10  H           1     -19.858  -6.741  -5.019  0.00  0.00     0.163 HD
HETATM   11  O           1     -22.668  -5.534  -5.717  0.00  0.00    -0.271 OA
BRANCH   9  12
HETATM   12  C           1     -21.655  -7.436  -4.080  0.00  0.00     0.194 C 
BRANCH  12  13
HETATM   13  C           1     -21.110  -8.858  -4.074  0.00  0.00     0.106 C 
BRANCH  13  14
HETATM   14  S           1     -19.492  -8.891  -4.895  0.00  0.00    -0.180 SA
HETATM   15  H           1     -18.851  -8.154  -3.971  0.00  0.00     0.101 HD
ENDBRANCH  13  14
ENDBRANCH  12  13
BRANCH  12  16
HETATM   16  C           1     -21.586  -6.864  -2.685  0.00  0.00     0.197 C 
HETATM   17  O           1     -20.770  -7.326  -1.860  0.00  0.00    -0.646 OA
HETATM   18  O           1     -22.347  -5.928  -2.355  0.00  0.00    -0.646 OA
ENDBRANCH  12  16
ENDBRANCH   9  12
ENDBRANCH   1   8
BRANCH   1  19
HETATM   19  N           1     -20.361  -5.596  -7.957  0.00  0.00    -0.066 N 
HETATM   20  H           1     -21.072  -5.351  -8.683  0.00  0.00     0.275 HD
HETATM   21  H           1     -19.407  -5.351  -8.307  0.00  0.00     0.275 HD
HETATM   22  H           1     -20.407  -6.621  -7.758  0.00  0.00     0.275 HD
ENDBRANCH   1  19
TORSDOF 8
ENDMDL
MODEL 7
REMARK VINA RESULT:      -4.8      2.355      2.934
REMARK  8 active torsions:
REMARK  status: ('A' for Active; 'I' for Inactive)
REMARK    1  A    between atoms: N_3  and  C_9 
REMARK       I    between atoms: N_3  and  C_6 
REMARK    2  A    between atoms: C_4  and  C_5 
REMARK    3  A    between atoms: C_4  and  C_13 
REMARK    4  A    between atoms: C_5  and  C_6 
REMARK    5  A    between atoms: C_5  and  N_16 
REMARK    6  A    between atoms: S_7  and  C_8 
REMARK    7  A    between atoms: C_8  and  C_9 
REMARK    8  A    between atoms: C_9  and  C_10 
REMARK       I    between atoms: C_13  and  N_14 
ROOT
HETATM    1  C           1     -34.322  -3.783 -13.218  0.00  0.00     0.283 C 
ENDROOT
BRANCH   1   2
HETATM    2  C           1     -33.148  -3.920 -12.257  0.00  0.00     0.145 C 
BRANCH   2   3
HETATM    3  C           1     -33.526  -4.850 -11.130  0.00  0.00     0.217 C 
HETATM    4  N           1     -33.238  -6.185 -11.218  0.00  0.00    -0.370 N 
HETATM    5  H           1     -33.490  -6.809 -10.463  0.00  0.00     0.159 HD
HETATM    6  H           1     -32.772  -6.549 -12.040  0.00  0.00     0.159 HD
HETATM    7  O           1     -34.082  -4.415 -10.150  0.00  0.00    -0.274 OA
ENDBRANCH   2   3
ENDBRANCH   1   2
BRANCH   1   8
HETATM    8  C           1     -34.905  -2.396 -13.107  0.00  0.00     0.249 C 
HETATM    9  N           1     -35.587  -2.030 -11.978  0.00  0.00    -0.344 N 
HETATM   10  H           1     -35.701  -2.689 -11.218  0.00  0.00     0.163 HD
HETATM   11  O           1     -34.771  -1.609 -14.013  0.00  0.00    -0.271 OA
BRANCH   9  12
HETATM   12  C           1     -36.148  -0.697 -11.870  0.00  0.00     0.194 C 
BRANCH  12  13
HETATM   13  C           1     -37.614  -0.728 -12.280  0.00  0.00     0.106 C 
BRANCH  13  14
HETATM   14  S           1     -37.790  -0.049 -13.954  0.00  0.00    -0.180 SA
HETATM   15  H           1     -39.032   0.438 -13.777  0.00  0.00     0.101 HD
ENDBRANCH  13  14
ENDBRANCH  12  13
BRANCH  12  16
HETATM   16  C           1     -36.034  -0.218 -10.442  0.00  0.00     0.197 C 
HETATM   17  O           1     -36.525   0.882 -10.112  0.00  0.00    -0.646 OA
HETATM   18  O           1     -35.449  -0.923  -9.592  0.00  0.00    -0.646 OA
ENDBRANCH  12  16
ENDBRANCH   9  12
ENDBRANCH   1   8
BRANCH   1  19
HETATM   19  N           1     -33.847  -4.014 -14.622  0.00  0.00    -0.066 N 
HETATM   20  H           1     -34.458  -3.490 -15.289  0.00  0.00     0.275 HD
HETATM   21  H           1     -32.861  -3.679 -14.715  0.00  0.00     0.275 HD
HETATM   22  H           1     -33.890  -5.036 -14.840  0.00  0.00     0.275 HD
ENDBRANCH   1  19
TORSDOF 8
ENDMDL
MODEL 8
REMARK VINA RESULT:      -4.7     25.610     26.377
REMARK  8 active torsions:
REMARK  status: ('A' for Active; 'I' for Inactive)
REMARK    1  A    between atoms: N_3  and  C_9 
REMARK       I    between atoms: N_3  and  C_6 
REMARK    2  A    between atoms: C_4  and  C_5 
REMARK    3  A    between atoms: C_4  and  C_13 
REMARK    4  A    between atoms: C_5  and  C_6 
REMARK    5  A    between atoms: C_5  and  N_16 
REMARK    6  A    between atoms: S_7  and  C_8 
REMARK    7  A    between atoms: C_8  and  C_9 
REMARK    8  A    between atoms: C_9  and  C_10 
REMARK       I    between atoms: C_13  and  N_14 
ROOT
HETATM    1  C           1     -12.029   5.222 -19.769  0.00  0.00     0.283 C 
ENDROOT
BRANCH   1   2
HETATM    2  C           1     -10.669   4.858 -20.351  0.00  0.00     0.145 C 
BRANCH   2   3
HETATM    3  C           1      -9.594   5.659 -19.657  0.00  0.00     0.217 C 
HETATM    4  N           1      -9.428   5.554 -18.303  0.00  0.00    -0.370 N 
HETATM    5  H           1      -8.707   6.091 -17.838  0.00  0.00     0.159 HD
HETATM    6  H           1     -10.026   4.939 -17.765  0.00  0.00     0.159 HD
HETATM    7  O           1      -8.881   6.393 -20.299  0.00  0.00    -0.274 OA
ENDBRANCH   2   3
ENDBRANCH   1   2
BRANCH   1   8
HETATM    8  C           1     -12.450   6.576 -20.285  0.00  0.00     0.249 C 
HETATM    9  N           1     -11.863   7.709 -19.790  0.00  0.00    -0.344 N 
HETATM   10  H           1     -11.146   7.638 -19.078  0.00  0.00     0.163 HD
HETATM   11  O           1     -13.306   6.660 -21.134  0.00  0.00    -0.271 OA
BRANCH   9  12
HETATM   12  C           1     -12.267   9.011 -20.284  0.00  0.00     0.194 C 
BRANCH  12  13
HETATM   13  C           1     -12.815   9.843 -19.134  0.00  0.00     0.106 C 
BRANCH  13  14
HETATM   14  S           1     -13.813  11.208 -19.794  0.00  0.00    -0.180 SA
HETATM   15  H           1     -13.959  11.854 -18.623  0.00  0.00     0.101 HD
ENDBRANCH  13  14
ENDBRANCH  12  13
BRANCH  12  16
HETATM   16  C           1     -11.074   9.711 -20.890  0.00  0.00     0.197 C 
HETATM   17  O           1      -9.969   9.677 -20.309  0.00  0.00    -0.646 OA
HETATM   18  O           1     -11.194  10.325 -21.972  0.00  0.00    -0.646 OA
ENDBRANCH  12  16
ENDBRANCH   9  12
ENDBRANCH   1   8
BRANCH   1  19
HETATM   19  N           1     -13.040   4.193 -20.182  0.00  0.00    -0.066 N 
HETATM   20  H           1     -12.636   3.588 -20.933  0.00  0.00     0.275 HD
HETATM   21  H           1     -13.292   3.603 -19.357  0.00  0.00     0.275 HD
HETATM   22  H           1     -13.895   4.672 -20.544  0.00  0.00     0.275 HD
ENDBRANCH   1  19
TORSDOF 8
ENDMDL
MODEL 9
REMARK VINA RESULT:      -4.6     25.759     26.464
REMARK  8 active torsions:
REMARK  status: ('A' for Active; 'I' for Inactive)
REMARK    1  A    between atoms: N_3  and  C_9 
REMARK       I    between atoms: N_3  and  C_6 
REMARK    2  A    between atoms: C_4  and  C_5 
REMARK    3  A    between atoms: C_4  and  C_13 
REMARK    4  A    between atoms: C_5  and  C_6 
REMARK    5  A    between atoms: C_5  and  N_16 
REMARK    6  A    between atoms: S_7  and  C_8 
REMARK    7  A    between atoms: C_8  and  C_9 
REMARK    8  A    between atoms: C_9  and  C_10 
REMARK       I    between atoms: C_13  and  N_14 
ROOT
HETATM    1  C           1     -11.686   4.577 -19.439  0.00  0.00     0.283 C 
ENDROOT
BRANCH   1   2
HETATM    2  C           1     -11.206   3.363 -20.224  0.00  0.00     0.145 C 
BRANCH   2   3
HETATM    3  C           1     -11.874   3.342 -21.578  0.00  0.00     0.217 C 
HETATM    4  N           1     -11.257   3.919 -22.655  0.00  0.00    -0.370 N 
HETATM    5  H           1     -11.703   3.904 -23.562  0.00  0.00     0.159 HD
HETATM    6  H           1     -10.351   4.359 -22.544  0.00  0.00     0.159 HD
HETATM    7  O           1     -12.953   2.817 -21.709  0.00  0.00    -0.274 OA
ENDBRANCH   2   3
ENDBRANCH   1   2
BRANCH   1   8
HETATM    8  C           1     -10.694   5.703 -19.597  0.00  0.00     0.249 C 
HETATM    9  N           1     -11.029   6.812 -20.326  0.00  0.00    -0.344 N 
HETATM   10  H           1     -11.941   6.877 -20.759  0.00  0.00     0.163 HD
HETATM   11  O           1      -9.604   5.626 -19.080  0.00  0.00    -0.271 OA
BRANCH   9  12
HETATM   12  C           1     -10.076   7.895 -20.478  0.00  0.00     0.194 C 
BRANCH  12  13
HETATM   13  C           1     -10.085   8.380 -21.921  0.00  0.00     0.106 C 
BRANCH  13  14
HETATM   14  S           1     -11.489   7.640 -22.801  0.00  0.00    -0.180 SA
HETATM   15  H           1     -10.758   6.782 -23.535  0.00  0.00     0.101 HD
ENDBRANCH  13  14
ENDBRANCH  12  13
BRANCH  12  16
HETATM   16  C           1     -10.457   9.032 -19.561  0.00  0.00     0.197 C 
HETATM   17  O           1     -11.020  10.046 -20.025  0.00  0.00    -0.646 OA
HETATM   18  O           1     -10.208   8.959 -18.338  0.00  0.00    -0.646 OA
ENDBRANCH  12  16
ENDBRANCH   9  12
ENDBRANCH   1   8
BRANCH   1  19
HETATM   19  N           1     -13.023   5.012 -19.962  0.00  0.00    -0.066 N 
HETATM   20  H           1     -13.064   6.056 -19.994  0.00  0.00     0.275 HD
HETATM   21  H           1     -13.162   4.628 -20.924  0.00  0.00     0.275 HD
HETATM   22  H           1     -13.776   4.654 -19.331  0.00  0.00     0.275 HD
ENDBRANCH   1  19
TORSDOF 8
ENDMDL
