MODEL 1
REMARK VINA RESULT:      -5.3      0.000      0.000
REMARK  6 active torsions:
REMARK  status: ('A' for Active; 'I' for Inactive)
REMARK    1  A    between atoms: C_5  and  C_6 
REMARK    2  A    between atoms: C_5  and  C_12 
REMARK    3  A    between atoms: C_5  and  N_14 
REMARK       I    between atoms: C_6  and  N_7 
REMARK    4  A    between atoms: N_7  and  C_8 
REMARK    5  A    between atoms: C_8  and  C_10 
REMARK    6  A    between atoms: C_12  and  Se_13 
ROOT
HETATM    1  C           1     -23.193  -3.532  -9.265  0.00  0.00     0.274 C 
ENDROOT
BRANCH   1   2
HETATM    2  C           1     -24.120  -3.280 -10.428  0.00  0.00     0.248 C 
HETATM    3  N           1     -23.608  -3.107 -11.687  0.00  0.00    -0.349 N 
HETATM    4  H           1     -22.608  -3.148 -11.835  0.00  0.00     0.163 HD
HETATM    5  O           1     -25.314  -3.232 -10.251  0.00  0.00    -0.271 OA
BRANCH   3   6
HETATM    6  C           1     -24.499  -2.866 -12.805  0.00  0.00     0.235 C 
BRANCH   6   7
HETATM    7  C           1     -23.701  -2.364 -13.984  0.00  0.00     0.191 C 
HETATM    8  O           1     -22.603  -2.892 -14.266  0.00  0.00    -0.647 OA
HETATM    9  O           1     -24.138  -1.422 -14.679  0.00  0.00    -0.647 OA
ENDBRANCH   6   7
ENDBRANCH   3   6
ENDBRANCH   1   2
BRANCH   1  10
HETATM   10  C           1     -22.141  -4.556  -9.665  0.00  0.00     0.045 C 
BRANCH  10  11
HETATM   11 Se           1     -20.799  -4.695  -8.258  0.00  0.00     0.000 Se
HETATM   12  H           1     -20.273  -3.336  -8.466  0.00  0.00     0.000 HD
ENDBRANCH  10  11
ENDBRANCH   1  10
BRANCH   1  13
HETATM   13  N           1     -23.982  -4.055  -8.101  0.00  0.00    -0.067 N 
HETATM   14  H           1     -24.864  -3.504  -8.001  0.00  0.00     0.275 HD
HETATM   15  H           1     -24.217  -5.060  -8.264  0.00  0.00     0.275 HD
HETATM   16  H           1     -23.415  -3.966  -7.228  0.00  0.00     0.275 HD
ENDBRANCH   1  13
TORSDOF 6
ENDMDL
MODEL 2
REMARK VINA RESULT:      -5.2      8.193      9.500
REMARK  6 active torsions:
REMARK  status: ('A' for Active; 'I' for Inactive)
REMARK    1  A    between atoms: C_5  and  C_6 
REMARK    2  A    between atoms: C_5  and  C_12 
REMARK    3  A    between atoms: C_5  and  N_14 
REMARK       I    between atoms: C_6  and  N_7 
REMARK    4  A    between atoms: N_7  and  C_8 
REMARK    5  A    between atoms: C_8  and  C_10 
REMARK    6  A    between atoms: C_12  and  Se_13 
ROOT
HETATM    1  C           1     -29.980  -6.979 -18.411  0.00  0.00     0.274 C 
ENDROOT
BRANCH   1   2
HETATM    2  C           1     -28.624  -6.329 -18.303  0.00  0.00     0.248 C 
HETATM    3  N           1     -27.681  -6.848 -17.455  0.00  0.00    -0.349 N 
HETATM    4  H           1     -27.896  -7.668 -16.902  0.00  0.00     0.163 HD
HETATM    5  O           1     -28.368  -5.350 -18.963  0.00  0.00    -0.271 OA
BRANCH   3   6
HETATM    6  C           1     -26.378  -6.223 -17.351  0.00  0.00     0.235 C 
BRANCH   6   7
HETATM    7  C           1     -25.821  -6.449 -15.966  0.00  0.00     0.191 C 
HETATM    8  O           1     -25.091  -5.582 -15.437  0.00  0.00    -0.647 OA
HETATM    9  O           1     -26.089  -7.501 -15.348  0.00  0.00    -0.647 OA
ENDBRANCH   6   7
ENDBRANCH   3   6
ENDBRANCH   1   2
BRANCH   1  10
HETATM   10  C           1     -30.739  -6.795 -17.104  0.00  0.00     0.045 C 
BRANCH  10  11
HETATM   11 Se           1     -31.435  -4.977 -17.006  0.00  0.00     0.000 Se
HETATM   12  H           1     -30.124  -4.366 -16.731  0.00  0.00     0.000 HD
ENDBRANCH  10  11
ENDBRANCH   1  10
BRANCH   1  13
HETATM   13  N           1     -29.812  -8.444 -18.689  0.00  0.00    -0.067 N 
HETATM   14  H           1     -29.119  -8.848 -18.020  0.00  0.00     0.275 HD
HETATM   15  H           1     -30.731  -8.928 -18.573  0.00  0.00     0.275 HD
HETATM   16  H           1     -29.469  -8.575 -19.668  0.00  0.00     0.275 HD
ENDBRANCH   1  13
TORSDOF 6
ENDMDL
MODEL 3
REMARK VINA RESULT:      -5.1      1.964      2.317
REMARK  6 active torsions:
REMARK  status: ('A' for Active; 'I' for Inactive)
REMARK    1  A    between atoms: C_5  and  C_6 
REMARK    2  A    between atoms: C_5  and  C_12 
REMARK    3  A    between atoms: C_5  and  N_14 
REMARK       I    between atoms: C_6  and  N_7 
REMARK    4  A    between atoms: N_7  and  C_8 
REMARK    5  A    between atoms: C_8  and  C_10 
REMARK    6  A    between atoms: C_12  and  Se_13 
ROOT
HETATM    1  C           1     -21.334  -4.353 -10.938  0.00  0.00     0.274 C 
ENDROOT
BRANCH   1   2
HETATM    2  C           1     -22.593  -4.084 -11.725  0.00  0.00     0.248 C 
HETATM    3  N           1     -22.711  -2.930 -12.454  0.00  0.00    -0.349 N 
HETATM    4  H           1     -21.954  -2.259 -12.464  0.00  0.00     0.163 HD
HETATM    5  O           1     -23.496  -4.886 -11.713  0.00  0.00    -0.271 OA
BRANCH   3   6
HETATM    6  C           1     -23.920  -2.672 -13.210  0.00  0.00     0.235 C 
BRANCH   6   7
HETATM    7  C           1     -23.557  -2.096 -14.558  0.00  0.00     0.191 C 
HETATM    8  O           1     -24.152  -1.083 -14.985  0.00  0.00    -0.647 OA
HETATM    9  O           1     -22.663  -2.632 -15.246  0.00  0.00    -0.647 OA
ENDBRANCH   6   7
ENDBRANCH   3   6
ENDBRANCH   1   2
BRANCH   1  10
HETATM   10  C           1     -21.587  -4.071  -9.463  0.00  0.00     0.045 C 
BRANCH  10  11
HETATM   11 Se           1     -20.028  -4.605  -8.422  0.00  0.00     0.000 Se
HETATM   12  H           1     -19.408  -5.362  -9.522  0.00  0.00     0.000 HD
ENDBRANCH  10  11
ENDBRANCH   1  10
BRANCH   1  13
HETATM   13  N           1     -20.234  -3.462 -11.434  0.00  0.00    -0.067 N 
HETATM   14  H           1     -20.599  -2.491 -11.557  0.00  0.00     0.275 HD
HETATM   15  H           1     -19.452  -3.455 -10.741  0.00  0.00     0.275 HD
HETATM   16  H           1     -19.883  -3.821 -12.351  0.00  0.00     0.275 HD
ENDBRANCH   1  13
TORSDOF 6
ENDMDL
MODEL 4
REMARK VINA RESULT:      -4.9     11.738     12.395
REMARK  6 active torsions:
REMARK  status: ('A' for Active; 'I' for Inactive)
REMARK    1  A    between atoms: C_5  and  C_6 
REMARK    2  A    between atoms: C_5  and  C_12 
REMARK    3  A    between atoms: C_5  and  N_14 
REMARK       I    between atoms: C_6  and  N_7 
REMARK    4  A    between atoms: N_7  and  C_8 
REMARK    5  A    between atoms: C_8  and  C_10 
REMARK    6  A    between atoms: C_12  and  Se_13 
ROOT
HETATM    1  C           1     -34.876  -1.683 -11.967  0.00  0.00     0.274 C 
ENDROOT
BRANCH   1   2
HETATM    2  C           1     -35.625  -1.026 -13.100  0.00  0.00     0.248 C 
HETATM    3  N           1     -34.935  -0.474 -14.147  0.00  0.00    -0.349 N 
HETATM    4  H           1     -33.924  -0.507 -14.159  0.00  0.00     0.163 HD
HETATM    5  O           1     -36.832  -0.987 -13.085  0.00  0.00    -0.271 OA
BRANCH   3   6
HETATM    6  C           1     -35.655   0.157 -15.235  0.00  0.00     0.235 C 
BRANCH   6   7
HETATM    7  C           1     -35.799  -0.820 -16.377  0.00  0.00     0.191 C 
HETATM    8  O           1     -36.825  -0.801 -17.091  0.00  0.00    -0.647 OA
HETATM    9  O           1     -34.892  -1.649 -16.608  0.00  0.00    -0.647 OA
ENDBRANCH   6   7
ENDBRANCH   3   6
ENDBRANCH   1   2
BRANCH   1  10
HETATM   10  C           1     -34.283  -3.002 -12.446  0.00  0.00     0.045 C 
BRANCH  10  11
HETATM   11 Se           1     -33.694  -4.046 -10.909  0.00  0.00     0.000 Se
HETATM   12  H           1     -32.878  -4.976 -11.708  0.00  0.00     0.000 HD
ENDBRANCH  10  11
ENDBRANCH   1  10
BRANCH   1  13
HETATM   13  N           1     -35.819  -1.944 -10.830  0.00  0.00    -0.067 N 
HETATM   14  H           1     -36.785  -1.656 -11.104  0.00  0.00     0.275 HD
HETATM   15  H           1     -35.812  -2.963 -10.598  0.00  0.00     0.275 HD
HETATM   16  H           1     -35.516  -1.394  -9.994  0.00  0.00     0.275 HD
ENDBRANCH   1  13
TORSDOF 6
ENDMDL
MODEL 5
REMARK VINA RESULT:      -4.8      8.706      9.808
REMARK  6 active torsions:
REMARK  status: ('A' for Active; 'I' for Inactive)
REMARK    1  A    between atoms: C_5  and  C_6 
REMARK    2  A    between atoms: C_5  and  C_12 
REMARK    3  A    between atoms: C_5  and  N_14 
REMARK       I    between atoms: C_6  and  N_7 
REMARK    4  A    between atoms: N_7  and  C_8 
REMARK    5  A    between atoms: C_8  and  C_10 
REMARK    6  A    between atoms: C_12  and  Se_13 
ROOT
HETATM    1  C           1     -29.152  -7.132 -17.100  0.00  0.00     0.274 C 
ENDROOT
BRANCH   1   2
HETATM    2  C           1     -30.552  -6.585 -17.230  0.00  0.00     0.248 C 
HETATM    3  N           1     -30.908  -5.447 -16.556  0.00  0.00    -0.349 N 
HETATM    4  H           1     -30.231  -4.973 -15.972  0.00  0.00     0.163 HD
HETATM    5  O           1     -31.360  -7.151 -17.928  0.00  0.00    -0.271 OA
BRANCH   3   6
HETATM    6  C           1     -32.253  -4.921 -16.681  0.00  0.00     0.235 C 
BRANCH   6   7
HETATM    7  C           1     -32.202  -3.555 -17.321  0.00  0.00     0.191 C 
HETATM    8  O           1     -33.263  -2.949 -17.586  0.00  0.00    -0.647 OA
HETATM    9  O           1     -31.099  -3.029 -17.585  0.00  0.00    -0.647 OA
ENDBRANCH   6   7
ENDBRANCH   3   6
ENDBRANCH   1   2
BRANCH   1  10
HETATM   10  C           1     -28.535  -6.646 -15.795  0.00  0.00     0.045 C 
BRANCH  10  11
HETATM   11 Se           1     -26.592  -6.671 -15.945  0.00  0.00     0.000 Se
HETATM   12  H           1     -26.568  -7.746 -16.951  0.00  0.00     0.000 HD
ENDBRANCH  10  11
ENDBRANCH   1  10
BRANCH   1  13
HETATM   13  N           1     -28.320  -6.655 -18.253  0.00  0.00    -0.067 N 
HETATM   14  H           1     -28.650  -5.711 -18.555  0.00  0.00     0.275 HD
HETATM   15  H           1     -27.319  -6.596 -17.959  0.00  0.00     0.275 HD
HETATM   16  H           1     -28.411  -7.328 -19.049  0.00  0.00     0.275 HD
ENDBRANCH   1  13
TORSDOF 6
ENDMDL
MODEL 6
REMARK VINA RESULT:      -4.7      3.288      5.293
REMARK  6 active torsions:
REMARK  status: ('A' for Active; 'I' for Inactive)
REMARK    1  A    between atoms: C_5  and  C_6 
REMARK    2  A    between atoms: C_5  and  C_12 
REMARK    3  A    between atoms: C_5  and  N_14 
REMARK       I    between atoms: C_6  and  N_7 
REMARK    4  A    between atoms: N_7  and  C_8 
REMARK    5  A    between atoms: C_8  and  C_10 
REMARK    6  A    between atoms: C_12  and  Se_13 
ROOT
HETATM    1  C           1     -22.986  -2.712 -12.257  0.00  0.00     0.274 C 
ENDROOT
BRANCH   1   2
HETATM    2  C           1     -23.682  -3.191 -11.007  0.00  0.00     0.248 C 
HETATM    3  N           1     -22.946  -3.580  -9.920  0.00  0.00    -0.349 N 
HETATM    4  H           1     -21.935  -3.547  -9.955  0.00  0.00     0.163 HD
HETATM    5  O           1     -24.889  -3.230 -10.965  0.00  0.00    -0.271 OA
BRANCH   3   6
HETATM    6  C           1     -23.615  -4.040  -8.719  0.00  0.00     0.235 C 
BRANCH   6   7
HETATM    7  C           1     -22.586  -4.386  -7.671  0.00  0.00     0.191 C 
HETATM    8  O           1     -22.952  -4.752  -6.532  0.00  0.00    -0.647 OA
HETATM    9  O           1     -21.368  -4.308  -7.940  0.00  0.00    -0.647 OA
ENDBRANCH   6   7
ENDBRANCH   3   6
ENDBRANCH   1   2
BRANCH   1  10
HETATM   10  C           1     -23.997  -2.598 -13.390  0.00  0.00     0.045 C 
BRANCH  10  11
HETATM   11 Se           1     -23.133  -1.825 -14.957  0.00  0.00     0.000 Se
HETATM   12  H           1     -21.831  -2.463 -14.698  0.00  0.00     0.000 HD
ENDBRANCH  10  11
ENDBRANCH   1  10
BRANCH   1  13
HETATM   13  N           1     -21.916  -3.691 -12.639  0.00  0.00    -0.067 N 
HETATM   14  H           1     -21.321  -3.282 -13.394  0.00  0.00     0.275 HD
HETATM   15  H           1     -21.323  -3.903 -11.805  0.00  0.00     0.275 HD
HETATM   16  H           1     -22.359  -4.573 -12.984  0.00  0.00     0.275 HD
ENDBRANCH   1  13
TORSDOF 6
ENDMDL
MODEL 7
REMARK VINA RESULT:      -4.7      2.373      3.096
REMARK  6 active torsions:
REMARK  status: ('A' for Active; 'I' for Inactive)
REMARK    1  A    between atoms: C_5  and  C_6 
REMARK    2  A    between atoms: C_5  and  C_12 
REMARK    3  A    between atoms: C_5  and  N_14 
REMARK       I    between atoms: C_6  and  N_7 
REMARK    4  A    between atoms: N_7  and  C_8 
REMARK    5  A    between atoms: C_8  and  C_10 
REMARK    6  A    between atoms: C_12  and  Se_13 
ROOT
HETATM    1  C           1     -20.856  -4.645  -8.775  0.00  0.00     0.274 C 
ENDROOT
BRANCH   1   2
HETATM    2  C           1     -21.216  -4.135 -10.148  0.00  0.00     0.248 C 
HETATM    3  N           1     -22.435  -3.550 -10.364  0.00  0.00    -0.349 N 
HETATM    4  H           1     -23.094  -3.460  -9.601  0.00  0.00     0.163 HD
HETATM    5  O           1     -20.429  -4.243 -11.058  0.00  0.00    -0.271 OA
BRANCH   3   6
HETATM    6  C           1     -22.781  -3.060 -11.684  0.00  0.00     0.235 C 
BRANCH   6   7
HETATM    7  C           1     -24.279  -3.102 -11.860  0.00  0.00     0.191 C 
HETATM    8  O           1     -25.023  -3.217 -10.861  0.00  0.00    -0.647 OA
HETATM    9  O           1     -24.777  -3.022 -13.003  0.00  0.00    -0.647 OA
ENDBRANCH   6   7
ENDBRANCH   3   6
ENDBRANCH   1   2
BRANCH   1  10
HETATM   10  C           1     -22.053  -4.492  -7.846  0.00  0.00     0.045 C 
BRANCH  10  11
HETATM   11 Se           1     -21.713  -5.451  -6.184  0.00  0.00     0.000 Se
HETATM   12  H           1     -20.644  -4.540  -5.741  0.00  0.00     0.000 HD
ENDBRANCH  10  11
ENDBRANCH   1  10
BRANCH   1  13
HETATM   13  N           1     -19.701  -3.856  -8.235  0.00  0.00    -0.067 N 
HETATM   14  H           1     -20.001  -2.870  -8.063  0.00  0.00     0.275 HD
HETATM   15  H           1     -19.376  -4.282  -7.338  0.00  0.00     0.275 HD
HETATM   16  H           1     -18.918  -3.866  -8.929  0.00  0.00     0.275 HD
ENDBRANCH   1  13
TORSDOF 6
ENDMDL
MODEL 8
REMARK VINA RESULT:      -4.6      3.887      5.985
REMARK  6 active torsions:
REMARK  status: ('A' for Active; 'I' for Inactive)
REMARK    1  A    between atoms: C_5  and  C_6 
REMARK    2  A    between atoms: C_5  and  C_12 
REMARK    3  A    between atoms: C_5  and  N_14 
REMARK       I    between atoms: C_6  and  N_7 
REMARK    4  A    between atoms: N_7  and  C_8 
REMARK    5  A    between atoms: C_8  and  C_10 
REMARK    6  A    between atoms: C_12  and  Se_13 
ROOT
HETATM    1  C           1     -23.559  -3.899  -9.946  0.00  0.00     0.274 C 
ENDROOT
BRANCH   1   2
HETATM    2  C           1     -22.385  -4.190  -9.045  0.00  0.00     0.248 C 
HETATM    3  N           1     -22.506  -4.035  -7.690  0.00  0.00    -0.349 N 
HETATM    4  H           1     -23.384  -3.726  -7.293  0.00  0.00     0.163 HD
HETATM    5  O           1     -21.337  -4.560  -9.519  0.00  0.00    -0.271 OA
BRANCH   3   6
HETATM    6  C           1     -21.378  -4.315  -6.824  0.00  0.00     0.235 C 
BRANCH   6   7
HETATM    7  C           1     -21.530  -5.694  -6.229  0.00  0.00     0.191 C 
HETATM    8  O           1     -21.047  -6.686  -6.819  0.00  0.00    -0.647 OA
HETATM    9  O           1     -22.138  -5.845  -5.148  0.00  0.00    -0.647 OA
ENDBRANCH   6   7
ENDBRANCH   3   6
ENDBRANCH   1   2
BRANCH   1  10
HETATM   10  C           1     -23.104  -3.027 -11.109  0.00  0.00     0.045 C 
BRANCH  10  11
HETATM   11 Se           1     -24.337  -3.242 -12.603  0.00  0.00     0.000 Se
HETATM   12  H           1     -23.780  -4.538 -13.027  0.00  0.00     0.000 HD
ENDBRANCH  10  11
ENDBRANCH   1  10
BRANCH   1  13
HETATM   13  N           1     -24.620  -3.178  -9.167  0.00  0.00    -0.067 N 
HETATM   14  H           1     -25.412  -2.932  -9.802  0.00  0.00     0.275 HD
HETATM   15  H           1     -24.968  -3.796  -8.399  0.00  0.00     0.275 HD
HETATM   16  H           1     -24.217  -2.305  -8.757  0.00  0.00     0.275 HD
ENDBRANCH   1  13
TORSDOF 6
ENDMDL
MODEL 9
REMARK VINA RESULT:      -4.5      3.810      5.895
REMARK  6 active torsions:
REMARK  status: ('A' for Active; 'I' for Inactive)
REMARK    1  A    between atoms: C_5  and  C_6 
REMARK    2  A    between atoms: C_5  and  C_12 
REMARK    3  A    between atoms: C_5  and  N_14 
REMARK       I    between atoms: C_6  and  N_7 
REMARK    4  A    between atoms: N_7  and  C_8 
REMARK    5  A    between atoms: C_8  and  C_10 
REMARK    6  A    between atoms: C_12  and  Se_13 
ROOT
HETATM    1  C           1     -22.161  -3.587 -11.404  0.00  0.00     0.274 C 
ENDROOT
BRANCH   1   2
HETATM    2  C           1     -20.986  -4.077 -10.594  0.00  0.00     0.248 C 
HETATM    3  N           1     -21.065  -4.117  -9.227  0.00  0.00    -0.349 N 
HETATM    4  H           1     -21.912  -3.818  -8.761  0.00  0.00     0.163 HD
HETATM    5  O           1     -19.975  -4.434 -11.151  0.00  0.00    -0.271 OA
BRANCH   3   6
HETATM    6  C           1     -19.936  -4.588  -8.449  0.00  0.00     0.235 C 
BRANCH   6   7
HETATM    7  C           1     -20.408  -5.612  -7.446  0.00  0.00     0.191 C 
HETATM    8  O           1     -21.534  -5.495  -6.916  0.00  0.00    -0.647 OA
HETATM    9  O           1     -19.674  -6.578  -7.146  0.00  0.00    -0.647 OA
ENDBRANCH   6   7
ENDBRANCH   3   6
ENDBRANCH   1   2
BRANCH   1  10
HETATM   10  C           1     -23.371  -4.469 -11.128  0.00  0.00     0.045 C 
BRANCH  10  11
HETATM   11 Se           1     -24.601  -3.533  -9.941  0.00  0.00     0.000 Se
HETATM   12  H           1     -25.751  -4.394 -10.264  0.00  0.00     0.000 HD
ENDBRANCH  10  11
ENDBRANCH   1  10
BRANCH   1  13
HETATM   13  N           1     -21.821  -3.647 -12.864  0.00  0.00    -0.067 N 
HETATM   14  H           1     -22.691  -3.525 -13.430  0.00  0.00     0.275 HD
HETATM   15  H           1     -21.145  -2.885 -13.095  0.00  0.00     0.275 HD
HETATM   16  H           1     -21.391  -4.574 -13.083  0.00  0.00     0.275 HD
ENDBRANCH   1  13
TORSDOF 6
ENDMDL
