MODEL 1
REMARK VINA RESULT:      -6.7      0.000      0.000
REMARK  9 active torsions:
REMARK  status: ('A' for Active; 'I' for Inactive)
REMARK    1  A    between atoms: S_2  and  C_7 
REMARK    2  A    between atoms: C_3  and  C_6 
REMARK    3  A    between atoms: C_3  and  C_18 
REMARK    4  A    between atoms: C_3  and  N_22 
REMARK    5  A    between atoms: O_4  and  C_17 
REMARK       I    between atoms: C_6  and  N_12 
REMARK    6  A    between atoms: C_7  and  C_9 
REMARK    7  A    between atoms: C_8  and  C_18 
REMARK    8  A    between atoms: C_9  and  C_25 
REMARK    9  A    between atoms: C_9  and  N_12 
ROOT
HETATM    1  C           1     -22.219  -5.137  -6.931  0.00  0.00     0.278 C 
ENDROOT
BRANCH   1   2
HETATM    2  C           1     -21.319  -5.682  -5.849  0.00  0.00     0.249 C 
HETATM    3  N           1     -21.554  -6.924  -5.325  0.00  0.00    -0.344 N 
HETATM    4  H           1     -22.330  -7.477  -5.663  0.00  0.00     0.163 HD
HETATM    5  O           1     -20.392  -5.020  -5.445  0.00  0.00    -0.271 OA
BRANCH   3   6
HETATM    6  C           1     -20.690  -7.446  -4.285  0.00  0.00     0.194 C 
BRANCH   6   7
HETATM    7  C           1     -21.528  -7.839  -3.075  0.00  0.00     0.106 C 
BRANCH   7   8
HETATM    8  S           1     -21.992  -6.349  -2.149  0.00  0.00    -0.180 SA
HETATM    9  H           1     -22.489  -5.678  -3.203  0.00  0.00     0.101 HD
ENDBRANCH   7   8
ENDBRANCH   6   7
BRANCH   6  10
HETATM   10  C           1     -19.957  -8.660  -4.802  0.00  0.00     0.197 C 
HETATM   11  O           1     -20.501  -9.407  -5.643  0.00  0.00    -0.646 OA
HETATM   12  O           1     -18.805  -8.917  -4.390  0.00  0.00    -0.646 OA
ENDBRANCH   6  10
ENDBRANCH   3   6
ENDBRANCH   1   2
BRANCH   1  13
HETATM   13  C           1     -21.664  -3.812  -7.436  0.00  0.00     0.081 C 
BRANCH  13  14
HETATM   14  C           1     -21.693  -3.793  -8.932  0.00  0.00    -0.056 A 
HETATM   15  C           1     -20.526  -4.043  -9.655  0.00  0.00     0.010 A 
HETATM   16  C           1     -20.553  -4.026 -11.049  0.00  0.00     0.037 A 
HETATM   17  C           1     -21.746  -3.760 -11.721  0.00  0.00     0.065 A 
HETATM   18  C           1     -22.913  -3.512 -10.998  0.00  0.00     0.037 A 
HETATM   19  C           1     -22.886  -3.528  -9.604  0.00  0.00     0.010 A 
BRANCH  17  20
HETATM   20  O           1     -21.772  -3.745 -13.075  0.00  0.00    -0.361 OA
HETATM   21  H           1     -22.495  -4.325 -13.369  0.00  0.00     0.217 HD
ENDBRANCH  17  20
ENDBRANCH  13  14
ENDBRANCH   1  13
BRANCH   1  22
HETATM   22  N           1     -23.596  -4.923  -6.376  0.00  0.00    -0.066 N 
HETATM   23  H           1     -24.304  -5.285  -7.054  0.00  0.00     0.275 HD
HETATM   24  H           1     -23.688  -5.434  -5.469  0.00  0.00     0.275 HD
HETATM   25  H           1     -23.754  -3.902  -6.218  0.00  0.00     0.275 HD
ENDBRANCH   1  22
TORSDOF 9
ENDMDL
MODEL 2
REMARK VINA RESULT:      -6.6     13.345     16.094
REMARK  9 active torsions:
REMARK  status: ('A' for Active; 'I' for Inactive)
REMARK    1  A    between atoms: S_2  and  C_7 
REMARK    2  A    between atoms: C_3  and  C_6 
REMARK    3  A    between atoms: C_3  and  C_18 
REMARK    4  A    between atoms: C_3  and  N_22 
REMARK    5  A    between atoms: O_4  and  C_17 
REMARK       I    between atoms: C_6  and  N_12 
REMARK    6  A    between atoms: C_7  and  C_9 
REMARK    7  A    between atoms: C_8  and  C_18 
REMARK    8  A    between atoms: C_9  and  C_25 
REMARK    9  A    between atoms: C_9  and  N_12 
ROOT
HETATM    1  C           1     -34.064  -2.818 -11.531  0.00  0.00     0.278 C 
ENDROOT
BRANCH   1   2
HETATM    2  C           1     -34.738  -2.216 -12.740  0.00  0.00     0.249 C 
HETATM    3  N           1     -35.458  -1.058 -12.616  0.00  0.00    -0.344 N 
HETATM    4  H           1     -35.539  -0.607 -11.714  0.00  0.00     0.163 HD
HETATM    5  O           1     -34.641  -2.755 -13.817  0.00  0.00    -0.271 OA
BRANCH   3   6
HETATM    6  C           1     -36.106  -0.480 -13.776  0.00  0.00     0.194 C 
BRANCH   6   7
HETATM    7  C           1     -37.532  -0.081 -13.418  0.00  0.00     0.106 C 
BRANCH   7   8
HETATM    8  S           1     -37.749  -0.156 -11.618  0.00  0.00    -0.180 SA
HETATM    9  H           1     -36.487  -0.528 -11.340  0.00  0.00     0.101 HD
ENDBRANCH   7   8
ENDBRANCH   6   7
BRANCH   6  10
HETATM   10  C           1     -35.341   0.741 -14.224  0.00  0.00     0.197 C 
HETATM   11  O           1     -34.477   1.246 -13.475  0.00  0.00    -0.646 OA
HETATM   12  O           1     -35.570   1.246 -15.345  0.00  0.00    -0.646 OA
ENDBRANCH   6  10
ENDBRANCH   3   6
ENDBRANCH   1   2
BRANCH   1  13
HETATM   13  C           1     -35.081  -3.616 -10.726  0.00  0.00     0.081 C 
BRANCH  13  14
HETATM   14  C           1     -34.615  -5.032 -10.593  0.00  0.00    -0.056 A 
HETATM   15  C           1     -35.394  -5.960  -9.902  0.00  0.00     0.010 A 
HETATM   16  C           1     -34.961  -7.280  -9.778  0.00  0.00     0.037 A 
HETATM   17  C           1     -33.748  -7.672 -10.344  0.00  0.00     0.065 A 
HETATM   18  C           1     -32.969  -6.744 -11.035  0.00  0.00     0.037 A 
HETATM   19  C           1     -33.402  -5.424 -11.159  0.00  0.00     0.010 A 
BRANCH  17  20
HETATM   20  O           1     -33.327  -8.953 -10.223  0.00  0.00    -0.361 OA
HETATM   21  H           1     -32.359  -8.962 -10.316  0.00  0.00     0.217 HD
ENDBRANCH  17  20
ENDBRANCH  13  14
ENDBRANCH   1  13
BRANCH   1  22
HETATM   22  N           1     -33.498  -1.723 -10.676  0.00  0.00    -0.066 N 
HETATM   23  H           1     -33.550  -0.816 -11.194  0.00  0.00     0.275 HD
HETATM   24  H           1     -34.051  -1.652  -9.793  0.00  0.00     0.275 HD
HETATM   25  H           1     -32.502  -1.938 -10.448  0.00  0.00     0.275 HD
ENDBRANCH   1  22
TORSDOF 9
ENDMDL
MODEL 3
REMARK VINA RESULT:      -6.6     13.988     16.986
REMARK  9 active torsions:
REMARK  status: ('A' for Active; 'I' for Inactive)
REMARK    1  A    between atoms: S_2  and  C_7 
REMARK    2  A    between atoms: C_3  and  C_6 
REMARK    3  A    between atoms: C_3  and  C_18 
REMARK    4  A    between atoms: C_3  and  N_22 
REMARK    5  A    between atoms: O_4  and  C_17 
REMARK       I    between atoms: C_6  and  N_12 
REMARK    6  A    between atoms: C_7  and  C_9 
REMARK    7  A    between atoms: C_8  and  C_18 
REMARK    8  A    between atoms: C_9  and  C_25 
REMARK    9  A    between atoms: C_9  and  N_12 
ROOT
HETATM    1  C           1     -35.982  -0.495 -11.373  0.00  0.00     0.278 C 
ENDROOT
BRANCH   1   2
HETATM    2  C           1     -36.776  -0.502 -12.656  0.00  0.00     0.249 C 
HETATM    3  N           1     -36.131  -0.428 -13.861  0.00  0.00    -0.344 N 
HETATM    4  H           1     -35.121  -0.369 -13.891  0.00  0.00     0.163 HD
HETATM    5  O           1     -37.982  -0.572 -12.620  0.00  0.00    -0.271 OA
BRANCH   3   6
HETATM    6  C           1     -36.894  -0.434 -15.093  0.00  0.00     0.194 C 
BRANCH   6   7
HETATM    7  C           1     -37.183   1.000 -15.521  0.00  0.00     0.106 C 
BRANCH   7   8
HETATM    8  S           1     -35.637   1.950 -15.544  0.00  0.00    -0.180 SA
HETATM    9  H           1     -34.896   0.996 -16.135  0.00  0.00     0.101 HD
ENDBRANCH   7   8
ENDBRANCH   6   7
BRANCH   6  10
HETATM   10  C           1     -36.100  -1.128 -16.174  0.00  0.00     0.197 C 
HETATM   11  O           1     -35.117  -1.836 -15.869  0.00  0.00    -0.646 OA
HETATM   12  O           1     -36.429  -0.996 -17.373  0.00  0.00    -0.646 OA
ENDBRANCH   6  10
ENDBRANCH   3   6
ENDBRANCH   1   2
BRANCH   1  13
HETATM   13  C           1     -36.268  -1.771 -10.592  0.00  0.00     0.081 C 
BRANCH  13  14
HETATM   14  C           1     -35.211  -2.788 -10.890  0.00  0.00    -0.056 A 
HETATM   15  C           1     -35.534  -4.146 -10.897  0.00  0.00     0.010 A 
HETATM   16  C           1     -34.550  -5.095 -11.175  0.00  0.00     0.037 A 
HETATM   17  C           1     -33.244  -4.686 -11.446  0.00  0.00     0.065 A 
HETATM   18  C           1     -32.922  -3.329 -11.439  0.00  0.00     0.037 A 
HETATM   19  C           1     -33.906  -2.380 -11.161  0.00  0.00     0.010 A 
BRANCH  17  20
HETATM   20  O           1     -32.288  -5.607 -11.716  0.00  0.00    -0.361 OA
HETATM   21  H           1     -31.568  -5.162 -12.194  0.00  0.00     0.217 HD
ENDBRANCH  17  20
ENDBRANCH  13  14
ENDBRANCH   1  13
BRANCH   1  22
HETATM   22  N           1     -36.374   0.694 -10.549  0.00  0.00    -0.066 N 
HETATM   23  H           1     -37.204   1.160 -10.982  0.00  0.00     0.275 HD
HETATM   24  H           1     -36.616   0.382  -9.581  0.00  0.00     0.275 HD
HETATM   25  H           1     -35.578   1.369 -10.508  0.00  0.00     0.275 HD
ENDBRANCH   1  22
TORSDOF 9
ENDMDL
MODEL 4
REMARK VINA RESULT:      -6.6      3.117      7.389
REMARK  9 active torsions:
REMARK  status: ('A' for Active; 'I' for Inactive)
REMARK    1  A    between atoms: S_2  and  C_7 
REMARK    2  A    between atoms: C_3  and  C_6 
REMARK    3  A    between atoms: C_3  and  C_18 
REMARK    4  A    between atoms: C_3  and  N_22 
REMARK    5  A    between atoms: O_4  and  C_17 
REMARK       I    between atoms: C_6  and  N_12 
REMARK    6  A    between atoms: C_7  and  C_9 
REMARK    7  A    between atoms: C_8  and  C_18 
REMARK    8  A    between atoms: C_9  and  C_25 
REMARK    9  A    between atoms: C_9  and  N_12 
ROOT
HETATM    1  C           1     -21.132  -5.703  -6.857  0.00  0.00     0.278 C 
ENDROOT
BRANCH   1   2
HETATM    2  C           1     -21.702  -4.552  -7.648  0.00  0.00     0.249 C 
HETATM    3  N           1     -22.280  -4.779  -8.868  0.00  0.00    -0.344 N 
HETATM    4  H           1     -22.324  -5.719  -9.240  0.00  0.00     0.163 HD
HETATM    5  O           1     -21.649  -3.429  -7.204  0.00  0.00    -0.271 OA
BRANCH   3   6
HETATM    6  C           1     -22.826  -3.673  -9.629  0.00  0.00     0.194 C 
BRANCH   6   7
HETATM    7  C           1     -22.267  -3.702 -11.045  0.00  0.00     0.106 C 
BRANCH   7   8
HETATM    8  S           1     -20.478  -4.000 -10.984  0.00  0.00    -0.180 SA
HETATM    9  H           1     -20.305  -4.087 -12.315  0.00  0.00     0.101 HD
ENDBRANCH   7   8
ENDBRANCH   6   7
BRANCH   6  10
HETATM   10  C           1     -24.330  -3.793  -9.681  0.00  0.00     0.197 C 
HETATM   11  O           1     -25.044  -2.783  -9.506  0.00  0.00    -0.646 OA
HETATM   12  O           1     -24.861  -4.904  -9.901  0.00  0.00    -0.646 OA
ENDBRANCH   6  10
ENDBRANCH   3   6
ENDBRANCH   1   2
BRANCH   1  13
HETATM   13  C           1     -20.849  -5.249  -5.431  0.00  0.00     0.081 C 
BRANCH  13  14
HETATM   14  C           1     -21.142  -6.369  -4.481  0.00  0.00    -0.056 A 
HETATM   15  C           1     -21.254  -7.676  -4.958  0.00  0.00     0.010 A 
HETATM   16  C           1     -21.526  -8.719  -4.074  0.00  0.00     0.037 A 
HETATM   17  C           1     -21.688  -8.457  -2.714  0.00  0.00     0.065 A 
HETATM   18  C           1     -21.576  -7.151  -2.237  0.00  0.00     0.037 A 
HETATM   19  C           1     -21.303  -6.107  -3.121  0.00  0.00     0.010 A 
BRANCH  17  20
HETATM   20  O           1     -21.953  -9.470  -1.855  0.00  0.00    -0.361 OA
HETATM   21  H           1     -21.995  -9.101  -0.957  0.00  0.00     0.217 HD
ENDBRANCH  17  20
ENDBRANCH  13  14
ENDBRANCH   1  13
BRANCH   1  22
HETATM   22  N           1     -19.857  -6.166  -7.496  0.00  0.00    -0.066 N 
HETATM   23  H           1     -19.749  -7.195  -7.350  0.00  0.00     0.275 HD
HETATM   24  H           1     -19.887  -5.961  -8.520  0.00  0.00     0.275 HD
HETATM   25  H           1     -19.048  -5.666  -7.064  0.00  0.00     0.275 HD
ENDBRANCH   1  22
TORSDOF 9
ENDMDL
MODEL 5
REMARK VINA RESULT:      -6.5      2.149      2.456
REMARK  9 active torsions:
REMARK  status: ('A' for Active; 'I' for Inactive)
REMARK    1  A    between atoms: S_2  and  C_7 
REMARK    2  A    between atoms: C_3  and  C_6 
REMARK    3  A    between atoms: C_3  and  C_18 
REMARK    4  A    between atoms: C_3  and  N_22 
REMARK    5  A    between atoms: O_4  and  C_17 
REMARK       I    between atoms: C_6  and  N_12 
REMARK    6  A    between atoms: C_7  and  C_9 
REMARK    7  A    between atoms: C_8  and  C_18 
REMARK    8  A    between atoms: C_9  and  C_25 
REMARK    9  A    between atoms: C_9  and  N_12 
ROOT
HETATM    1  C           1     -20.842  -4.839  -6.552  0.00  0.00     0.278 C 
ENDROOT
BRANCH   1   2
HETATM    2  C           1     -21.606  -5.753  -5.625  0.00  0.00     0.249 C 
HETATM    3  N           1     -20.930  -6.600  -4.789  0.00  0.00    -0.344 N 
HETATM    4  H           1     -19.918  -6.614  -4.793  0.00  0.00     0.163 HD
HETATM    5  O           1     -22.815  -5.736  -5.621  0.00  0.00    -0.271 OA
BRANCH   3   6
HETATM    6  C           1     -21.664  -7.479  -3.900  0.00  0.00     0.194 C 
BRANCH   6   7
HETATM    7  C           1     -21.024  -8.861  -3.906  0.00  0.00     0.106 C 
BRANCH   7   8
HETATM    8  S           1     -19.475  -8.809  -4.851  0.00  0.00    -0.180 SA
HETATM    9  H           1     -19.947  -9.460  -5.929  0.00  0.00     0.101 HD
ENDBRANCH   7   8
ENDBRANCH   6   7
BRANCH   6  10
HETATM   10  C           1     -21.632  -6.917  -2.499  0.00  0.00     0.197 C 
HETATM   11  O           1     -22.337  -5.928  -2.206  0.00  0.00    -0.646 OA
HETATM   12  O           1     -20.901  -7.443  -1.632  0.00  0.00    -0.646 OA
ENDBRANCH   6  10
ENDBRANCH   3   6
ENDBRANCH   1   2
BRANCH   1  13
HETATM   13  C           1     -20.596  -5.548  -7.877  0.00  0.00     0.081 C 
BRANCH  13  14
HETATM   14  C           1     -21.163  -4.732  -8.995  0.00  0.00    -0.056 A 
HETATM   15  C           1     -20.362  -4.393 -10.087  0.00  0.00     0.010 A 
HETATM   16  C           1     -20.890  -3.632 -11.130  0.00  0.00     0.037 A 
HETATM   17  C           1     -22.219  -3.210 -11.082  0.00  0.00     0.065 A 
HETATM   18  C           1     -23.020  -3.549  -9.991  0.00  0.00     0.037 A 
HETATM   19  C           1     -22.492  -4.310  -8.948  0.00  0.00     0.010 A 
BRANCH  17  20
HETATM   20  O           1     -22.732  -2.471 -12.094  0.00  0.00    -0.361 OA
HETATM   21  H           1     -22.192  -1.668 -12.185  0.00  0.00     0.217 HD
ENDBRANCH  17  20
ENDBRANCH  13  14
ENDBRANCH   1  13
BRANCH   1  22
HETATM   22  N           1     -19.527  -4.478  -5.926  0.00  0.00    -0.066 N 
HETATM   23  H           1     -18.933  -3.984  -6.629  0.00  0.00     0.275 HD
HETATM   24  H           1     -19.692  -3.851  -5.107  0.00  0.00     0.275 HD
HETATM   25  H           1     -19.042  -5.347  -5.608  0.00  0.00     0.275 HD
ENDBRANCH   1  22
TORSDOF 9
ENDMDL
MODEL 6
REMARK VINA RESULT:      -6.3     13.338     16.383
REMARK  9 active torsions:
REMARK  status: ('A' for Active; 'I' for Inactive)
REMARK    1  A    between atoms: S_2  and  C_7 
REMARK    2  A    between atoms: C_3  and  C_6 
REMARK    3  A    between atoms: C_3  and  C_18 
REMARK    4  A    between atoms: C_3  and  N_22 
REMARK    5  A    between atoms: O_4  and  C_17 
REMARK       I    between atoms: C_6  and  N_12 
REMARK    6  A    between atoms: C_7  and  C_9 
REMARK    7  A    between atoms: C_8  and  C_18 
REMARK    8  A    between atoms: C_9  and  C_25 
REMARK    9  A    between atoms: C_9  and  N_12 
ROOT
HETATM    1  C           1     -34.621  -2.341 -11.831  0.00  0.00     0.278 C 
ENDROOT
BRANCH   1   2
HETATM    2  C           1     -35.521  -1.605 -12.792  0.00  0.00     0.249 C 
HETATM    3  N           1     -35.042  -1.207 -14.011  0.00  0.00    -0.344 N 
HETATM    4  H           1     -34.084  -1.407 -14.268  0.00  0.00     0.163 HD
HETATM    5  O           1     -36.666  -1.366 -12.485  0.00  0.00    -0.271 OA
BRANCH   3   6
HETATM    6  C           1     -35.907  -0.500 -14.934  0.00  0.00     0.194 C 
BRANCH   6   7
HETATM    7  C           1     -35.445   0.947 -15.058  0.00  0.00     0.106 C 
BRANCH   7   8
HETATM    8  S           1     -34.501   1.411 -13.580  0.00  0.00    -0.180 SA
HETATM    9  H           1     -33.371   0.772 -13.929  0.00  0.00     0.101 HD
ENDBRANCH   7   8
ENDBRANCH   6   7
BRANCH   6  10
HETATM   10  C           1     -35.848  -1.163 -16.289  0.00  0.00     0.197 C 
HETATM   11  O           1     -35.053  -2.105 -16.489  0.00  0.00    -0.646 OA
HETATM   12  O           1     -36.597  -0.770 -17.210  0.00  0.00    -0.646 OA
ENDBRANCH   6  10
ENDBRANCH   3   6
ENDBRANCH   1   2
BRANCH   1  13
HETATM   13  C           1     -35.465  -3.202 -10.901  0.00  0.00     0.081 C 
BRANCH  13  14
HETATM   14  C           1     -34.847  -4.560 -10.777  0.00  0.00    -0.056 A 
HETATM   15  C           1     -35.543  -5.587 -10.138  0.00  0.00     0.010 A 
HETATM   16  C           1     -34.969  -6.852 -10.023  0.00  0.00     0.037 A 
HETATM   17  C           1     -33.698  -7.091 -10.546  0.00  0.00     0.065 A 
HETATM   18  C           1     -33.002  -6.065 -11.186  0.00  0.00     0.037 A 
HETATM   19  C           1     -33.577  -4.800 -11.301  0.00  0.00     0.010 A 
BRANCH  17  20
HETATM   20  O           1     -33.140  -8.320 -10.434  0.00  0.00    -0.361 OA
HETATM   21  H           1     -32.515  -8.435 -11.170  0.00  0.00     0.217 HD
ENDBRANCH  17  20
ENDBRANCH  13  14
ENDBRANCH   1  13
BRANCH   1  22
HETATM   22  N           1     -33.838  -1.351 -11.021  0.00  0.00    -0.066 N 
HETATM   23  H           1     -34.048  -0.384 -11.357  0.00  0.00     0.275 HD
HETATM   24  H           1     -34.105  -1.436 -10.015  0.00  0.00     0.275 HD
HETATM   25  H           1     -32.816  -1.542 -11.128  0.00  0.00     0.275 HD
ENDBRANCH   1  22
TORSDOF 9
ENDMDL
MODEL 7
REMARK VINA RESULT:      -6.3     13.549     16.249
REMARK  9 active torsions:
REMARK  status: ('A' for Active; 'I' for Inactive)
REMARK    1  A    between atoms: S_2  and  C_7 
REMARK    2  A    between atoms: C_3  and  C_6 
REMARK    3  A    between atoms: C_3  and  C_18 
REMARK    4  A    between atoms: C_3  and  N_22 
REMARK    5  A    between atoms: O_4  and  C_17 
REMARK       I    between atoms: C_6  and  N_12 
REMARK    6  A    between atoms: C_7  and  C_9 
REMARK    7  A    between atoms: C_8  and  C_18 
REMARK    8  A    between atoms: C_9  and  C_25 
REMARK    9  A    between atoms: C_9  and  N_12 
ROOT
HETATM    1  C           1     -34.302  -3.701 -12.713  0.00  0.00     0.278 C 
ENDROOT
BRANCH   1   2
HETATM    2  C           1     -34.755  -2.266 -12.612  0.00  0.00     0.249 C 
HETATM    3  N           1     -35.238  -1.620 -13.718  0.00  0.00    -0.344 N 
HETATM    4  H           1     -35.291  -2.106 -14.604  0.00  0.00     0.163 HD
HETATM    5  O           1     -34.692  -1.686 -11.553  0.00  0.00    -0.271 OA
BRANCH   3   6
HETATM    6  C           1     -35.673  -0.241 -13.620  0.00  0.00     0.194 C 
BRANCH   6   7
HETATM    7  C           1     -35.575   0.423 -14.987  0.00  0.00     0.106 C 
BRANCH   7   8
HETATM    8  S           1     -35.630  -0.847 -16.283  0.00  0.00    -0.180 SA
HETATM    9  H           1     -36.823  -0.482 -16.786  0.00  0.00     0.101 HD
ENDBRANCH   7   8
ENDBRANCH   6   7
BRANCH   6  10
HETATM   10  C           1     -37.104  -0.197 -13.142  0.00  0.00     0.197 C 
HETATM   11  O           1     -38.016  -0.663 -13.858  0.00  0.00    -0.646 OA
HETATM   12  O           1     -37.376   0.304 -12.029  0.00  0.00    -0.646 OA
ENDBRANCH   6  10
ENDBRANCH   3   6
ENDBRANCH   1   2
BRANCH   1  13
HETATM   13  C           1     -33.311  -4.002 -11.596  0.00  0.00     0.081 C 
BRANCH  13  14
HETATM   14  C           1     -33.626  -5.336 -10.994  0.00  0.00    -0.056 A 
HETATM   15  C           1     -34.828  -5.527 -10.313  0.00  0.00     0.010 A 
HETATM   16  C           1     -35.122  -6.770  -9.752  0.00  0.00     0.037 A 
HETATM   17  C           1     -34.215  -7.822  -9.873  0.00  0.00     0.065 A 
HETATM   18  C           1     -33.013  -7.631 -10.555  0.00  0.00     0.037 A 
HETATM   19  C           1     -32.719  -6.389 -11.116  0.00  0.00     0.010 A 
BRANCH  17  20
HETATM   20  O           1     -34.500  -9.029  -9.328  0.00  0.00    -0.361 OA
HETATM   21  H           1     -33.963  -9.699  -9.784  0.00  0.00     0.217 HD
ENDBRANCH  17  20
ENDBRANCH  13  14
ENDBRANCH   1  13
BRANCH   1  22
HETATM   22  N           1     -33.640  -3.924 -14.041  0.00  0.00    -0.066 N 
HETATM   23  H           1     -34.106  -4.719 -14.533  0.00  0.00     0.275 HD
HETATM   24  H           1     -33.724  -3.058 -14.621  0.00  0.00     0.275 HD
HETATM   25  H           1     -32.630  -4.148 -13.895  0.00  0.00     0.275 HD
ENDBRANCH   1  22
TORSDOF 9
ENDMDL
MODEL 8
REMARK VINA RESULT:      -6.3      2.056      2.582
REMARK  9 active torsions:
REMARK  status: ('A' for Active; 'I' for Inactive)
REMARK    1  A    between atoms: S_2  and  C_7 
REMARK    2  A    between atoms: C_3  and  C_6 
REMARK    3  A    between atoms: C_3  and  C_18 
REMARK    4  A    between atoms: C_3  and  N_22 
REMARK    5  A    between atoms: O_4  and  C_17 
REMARK       I    between atoms: C_6  and  N_12 
REMARK    6  A    between atoms: C_7  and  C_9 
REMARK    7  A    between atoms: C_8  and  C_18 
REMARK    8  A    between atoms: C_9  and  C_25 
REMARK    9  A    between atoms: C_9  and  N_12 
ROOT
HETATM    1  C           1     -22.019  -4.192  -7.566  0.00  0.00     0.278 C 
ENDROOT
BRANCH   1   2
HETATM    2  C           1     -22.445  -5.165  -6.495  0.00  0.00     0.249 C 
HETATM    3  N           1     -21.524  -6.001  -5.923  0.00  0.00    -0.344 N 
HETATM    4  H           1     -20.557  -5.966  -6.220  0.00  0.00     0.163 HD
HETATM    5  O           1     -23.601  -5.206  -6.141  0.00  0.00    -0.271 OA
BRANCH   3   6
HETATM    6  C           1     -21.934  -6.936  -4.895  0.00  0.00     0.194 C 
BRANCH   6   7
HETATM    7  C           1     -21.108  -8.211  -5.007  0.00  0.00     0.106 C 
BRANCH   7   8
HETATM    8  S           1     -21.707  -9.430  -3.803  0.00  0.00    -0.180 SA
HETATM    9  H           1     -23.014  -9.162  -3.971  0.00  0.00     0.101 HD
ENDBRANCH   7   8
ENDBRANCH   6   7
BRANCH   6  10
HETATM   10  C           1     -21.716  -6.316  -3.536  0.00  0.00     0.197 C 
HETATM   11  O           1     -20.558  -6.061  -3.144  0.00  0.00    -0.646 OA
HETATM   12  O           1     -22.696  -6.057  -2.803  0.00  0.00    -0.646 OA
ENDBRANCH   6  10
ENDBRANCH   3   6
ENDBRANCH   1   2
BRANCH   1  13
HETATM   13  C           1     -21.763  -4.945  -8.865  0.00  0.00     0.081 C 
BRANCH  13  14
HETATM   14  C           1     -22.388  -4.204 -10.005  0.00  0.00    -0.056 A 
HETATM   15  C           1     -21.592  -3.732 -11.049  0.00  0.00     0.010 A 
HETATM   16  C           1     -22.173  -3.042 -12.113  0.00  0.00     0.037 A 
HETATM   17  C           1     -23.550  -2.824 -12.133  0.00  0.00     0.065 A 
HETATM   18  C           1     -24.347  -3.297 -11.089  0.00  0.00     0.037 A 
HETATM   19  C           1     -23.765  -3.987 -10.026  0.00  0.00     0.010 A 
BRANCH  17  20
HETATM   20  O           1     -24.116  -2.154 -13.165  0.00  0.00    -0.361 OA
HETATM   21  H           1     -24.594  -2.797 -13.716  0.00  0.00     0.217 HD
ENDBRANCH  17  20
ENDBRANCH  13  14
ENDBRANCH   1  13
BRANCH   1  22
HETATM   22  N           1     -20.763  -3.494  -7.137  0.00  0.00    -0.066 N 
HETATM   23  H           1     -20.958  -2.920  -6.286  0.00  0.00     0.275 HD
HETATM   24  H           1     -20.028  -4.204  -6.918  0.00  0.00     0.275 HD
HETATM   25  H           1     -20.428  -2.873  -7.907  0.00  0.00     0.275 HD
ENDBRANCH   1  22
TORSDOF 9
ENDMDL
MODEL 9
REMARK VINA RESULT:      -5.8      1.976      2.576
REMARK  9 active torsions:
REMARK  status: ('A' for Active; 'I' for Inactive)
REMARK    1  A    between atoms: S_2  and  C_7 
REMARK    2  A    between atoms: C_3  and  C_6 
REMARK    3  A    between atoms: C_3  and  C_18 
REMARK    4  A    between atoms: C_3  and  N_22 
REMARK    5  A    between atoms: O_4  and  C_17 
REMARK       I    between atoms: C_6  and  N_12 
REMARK    6  A    between atoms: C_7  and  C_9 
REMARK    7  A    between atoms: C_8  and  C_18 
REMARK    8  A    between atoms: C_9  and  C_25 
REMARK    9  A    between atoms: C_9  and  N_12 
ROOT
HETATM    1  C           1     -20.712  -5.566  -6.046  0.00  0.00     0.278 C 
ENDROOT
BRANCH   1   2
HETATM    2  C           1     -20.583  -6.837  -5.244  0.00  0.00     0.249 C 
HETATM    3  N           1     -19.933  -7.919  -5.774  0.00  0.00    -0.344 N 
HETATM    4  H           1     -19.540  -7.866  -6.705  0.00  0.00     0.163 HD
HETATM    5  O           1     -21.054  -6.900  -4.132  0.00  0.00    -0.271 OA
BRANCH   3   6
HETATM    6  C           1     -19.810  -9.140  -5.004  0.00  0.00     0.194 C 
BRANCH   6   7
HETATM    7  C           1     -20.963 -10.076  -5.345  0.00  0.00     0.106 C 
BRANCH   7   8
HETATM    8  S           1     -21.850 -10.524  -3.827  0.00  0.00    -0.180 SA
HETATM    9  H           1     -21.539 -11.831  -3.862  0.00  0.00     0.101 HD
ENDBRANCH   7   8
ENDBRANCH   6   7
BRANCH   6  10
HETATM   10  C           1     -18.501  -9.815  -5.336  0.00  0.00     0.197 C 
HETATM   11  O           1     -17.634  -9.966  -4.449  0.00  0.00    -0.646 OA
HETATM   12  O           1     -18.286 -10.223  -6.498  0.00  0.00    -0.646 OA
ENDBRANCH   6  10
ENDBRANCH   3   6
ENDBRANCH   1   2
BRANCH   1  13
HETATM   13  C           1     -20.000  -5.733  -7.382  0.00  0.00     0.081 C 
BRANCH  13  14
HETATM   14  C           1     -20.748  -4.990  -8.444  0.00  0.00    -0.056 A 
HETATM   15  C           1     -22.084  -4.640  -8.241  0.00  0.00     0.010 A 
HETATM   16  C           1     -22.781  -3.946  -9.230  0.00  0.00     0.037 A 
HETATM   17  C           1     -22.144  -3.602 -10.422  0.00  0.00     0.065 A 
HETATM   18  C           1     -20.808  -3.951 -10.625  0.00  0.00     0.037 A 
HETATM   19  C           1     -20.111  -4.645  -9.636  0.00  0.00     0.010 A 
BRANCH  17  20
HETATM   20  O           1     -22.821  -2.929 -11.382  0.00  0.00    -0.361 OA
HETATM   21  H           1     -22.221  -2.265 -11.765  0.00  0.00     0.217 HD
ENDBRANCH  17  20
ENDBRANCH  13  14
ENDBRANCH   1  13
BRANCH   1  22
HETATM   22  N           1     -20.090  -4.431  -5.288  0.00  0.00    -0.066 N 
HETATM   23  H           1     -19.807  -3.680  -5.957  0.00  0.00     0.275 HD
HETATM   24  H           1     -20.782  -4.048  -4.605  0.00  0.00     0.275 HD
HETATM   25  H           1     -19.248  -4.775  -4.773  0.00  0.00     0.275 HD
ENDBRANCH   1  22
TORSDOF 9
ENDMDL
