MODEL 1
REMARK VINA RESULT:      -5.0      0.000      0.000
REMARK  8 active torsions:
REMARK  status: ('A' for Active; 'I' for Inactive)
REMARK    1  A    between atoms: O_4  and  C_5 
REMARK    2  A    between atoms: C_5  and  C_6 
REMARK    3  A    between atoms: C_6  and  C_12 
REMARK    4  A    between atoms: C_6  and  N_10 
REMARK    5  A    between atoms: C_9  and  C_19 
REMARK    6  A    between atoms: N_11  and  C_19 
REMARK       I    between atoms: N_11  and  C_12 
REMARK    7  A    between atoms: S_15  and  C_16 
REMARK    8  A    between atoms: C_16  and  C_19 
ROOT
HETATM    1  O           1     -34.538   0.468 -14.167  0.00  0.00    -0.271 OA
HETATM    2  N           1     -35.981  -0.993 -13.287  0.00  0.00    -0.344 N 
HETATM    3  C           1     -35.595  -0.111 -14.259  0.00  0.00     0.251 C 
HETATM    4  H           1     -36.864  -1.478 -13.365  0.00  0.00     0.163 HD
ENDROOT
BRANCH   3   5
HETATM    5  C           1     -36.489   0.139 -15.449  0.00  0.00     0.297 C 
BRANCH   5   6
HETATM    6  C           1     -36.145  -0.844 -16.560  0.00  0.00     0.206 C 
BRANCH   6   7
HETATM    7  O           1     -35.220  -1.784 -16.084  0.00  0.00    -0.398 OA
HETATM    8  H           1     -35.084  -2.409 -16.775  0.00  0.00     0.209 HD
ENDBRANCH   6   7
ENDBRANCH   5   6
BRANCH   5   9
HETATM    9  N           1     -36.285   1.541 -15.942  0.00  0.00    -0.064 N 
HETATM   10  H           1     -35.864   1.517 -16.898  0.00  0.00     0.275 HD
HETATM   11  H           1     -37.206   2.034 -15.979  0.00  0.00     0.275 HD
HETATM   12  H           1     -35.645   2.049 -15.291  0.00  0.00     0.275 HD
ENDBRANCH   5   9
ENDBRANCH   3   5
BRANCH   2  13
HETATM   13  C           1     -35.120  -1.233 -12.144  0.00  0.00     0.194 C 
BRANCH  13  14
HETATM   14  C           1     -34.329  -2.498 -12.367  0.00  0.00     0.197 C 
HETATM   15  O           1     -33.538  -2.904 -11.489  0.00  0.00    -0.646 OA
HETATM   16  O           1     -34.465  -3.141 -13.431  0.00  0.00    -0.646 OA
ENDBRANCH  13  14
BRANCH  13  17
HETATM   17  C           1     -35.973  -1.381 -10.890  0.00  0.00     0.106 C 
BRANCH  17  18
HETATM   18  S           1     -37.138   0.007 -10.781  0.00  0.00    -0.180 SA
HETATM   19  H           1     -37.538  -0.245  -9.523  0.00  0.00     0.101 HD
ENDBRANCH  17  18
ENDBRANCH  13  17
ENDBRANCH   2  13
TORSDOF 8
ENDMDL
MODEL 2
REMARK VINA RESULT:      -4.9     11.909     12.524
REMARK  8 active torsions:
REMARK  status: ('A' for Active; 'I' for Inactive)
REMARK    1  A    between atoms: O_4  and  C_5 
REMARK    2  A    between atoms: C_5  and  C_6 
REMARK    3  A    between atoms: C_6  and  C_12 
REMARK    4  A    between atoms: C_6  and  N_10 
REMARK    5  A    between atoms: C_9  and  C_19 
REMARK    6  A    between atoms: N_11  and  C_19 
REMARK       I    between atoms: N_11  and  C_12 
REMARK    7  A    between atoms: S_15  and  C_16 
REMARK    8  A    between atoms: C_16  and  C_19 
ROOT
HETATM    1  O           1     -24.393  -3.972 -13.504  0.00  0.00    -0.271 OA
HETATM    2  N           1     -23.081  -3.177 -11.881  0.00  0.00    -0.344 N 
HETATM    3  C           1     -23.564  -3.163 -13.162  0.00  0.00     0.251 C 
HETATM    4  H           1     -22.387  -2.499 -11.595  0.00  0.00     0.163 HD
ENDROOT
BRANCH   3   5
HETATM    5  C           1     -23.062  -2.136 -14.147  0.00  0.00     0.297 C 
BRANCH   5   6
HETATM    6  C           1     -24.234  -1.314 -14.667  0.00  0.00     0.206 C 
BRANCH   6   7
HETATM    7  O           1     -23.754  -0.273 -15.474  0.00  0.00    -0.398 OA
HETATM    8  H           1     -23.883   0.527 -14.995  0.00  0.00     0.209 HD
ENDBRANCH   6   7
ENDBRANCH   5   6
BRANCH   5   9
HETATM    9  N           1     -22.391  -2.830 -15.295  0.00  0.00    -0.064 N 
HETATM   10  H           1     -22.597  -3.854 -15.252  0.00  0.00     0.275 HD
HETATM   11  H           1     -22.751  -2.440 -16.195  0.00  0.00     0.275 HD
HETATM   12  H           1     -21.359  -2.679 -15.238  0.00  0.00     0.275 HD
ENDBRANCH   5   9
ENDBRANCH   3   5
BRANCH   2  13
HETATM   13  C           1     -23.564  -4.164 -10.936  0.00  0.00     0.194 C 
BRANCH  13  14
HETATM   14  C           1     -24.505  -3.505  -9.958  0.00  0.00     0.197 C 
HETATM   15  O           1     -24.135  -3.285  -8.785  0.00  0.00    -0.646 OA
HETATM   16  O           1     -25.657  -3.180 -10.321  0.00  0.00    -0.646 OA
ENDBRANCH  13  14
BRANCH  13  17
HETATM   17  C           1     -22.384  -4.763 -10.180  0.00  0.00     0.106 C 
BRANCH  17  18
HETATM   18  S           1     -20.843  -3.993 -10.754  0.00  0.00    -0.180 SA
HETATM   19  H           1     -20.405  -5.058 -11.449  0.00  0.00     0.101 HD
ENDBRANCH  17  18
ENDBRANCH  13  17
ENDBRANCH   2  13
TORSDOF 8
ENDMDL
MODEL 3
REMARK VINA RESULT:      -4.8     11.424     12.395
REMARK  8 active torsions:
REMARK  status: ('A' for Active; 'I' for Inactive)
REMARK    1  A    between atoms: O_4  and  C_5 
REMARK    2  A    between atoms: C_5  and  C_6 
REMARK    3  A    between atoms: C_6  and  C_12 
REMARK    4  A    between atoms: C_6  and  N_10 
REMARK    5  A    between atoms: C_9  and  C_19 
REMARK    6  A    between atoms: N_11  and  C_19 
REMARK       I    between atoms: N_11  and  C_12 
REMARK    7  A    between atoms: S_15  and  C_16 
REMARK    8  A    between atoms: C_16  and  C_19 
ROOT
HETATM    1  O           1     -28.464  -5.319 -19.084  0.00  0.00    -0.271 OA
HETATM    2  N           1     -27.279  -7.210 -19.156  0.00  0.00    -0.344 N 
HETATM    3  C           1     -28.165  -6.360 -18.550  0.00  0.00     0.251 C 
HETATM    4  H           1     -27.029  -8.082 -18.709  0.00  0.00     0.163 HD
ENDROOT
BRANCH   3   5
HETATM    5  C           1     -28.767  -6.724 -17.216  0.00  0.00     0.297 C 
BRANCH   5   6
HETATM    6  C           1     -27.705  -6.614 -16.130  0.00  0.00     0.206 C 
BRANCH   6   7
HETATM    7  O           1     -26.648  -5.815 -16.589  0.00  0.00    -0.398 OA
HETATM    8  H           1     -27.013  -5.207 -17.208  0.00  0.00     0.209 HD
ENDBRANCH   6   7
ENDBRANCH   5   6
BRANCH   5   9
HETATM    9  N           1     -29.283  -8.132 -17.268  0.00  0.00    -0.064 N 
HETATM   10  H           1     -28.518  -8.794 -17.008  0.00  0.00     0.275 HD
HETATM   11  H           1     -30.077  -8.236 -16.595  0.00  0.00     0.275 HD
HETATM   12  H           1     -29.616  -8.345 -18.235  0.00  0.00     0.275 HD
ENDBRANCH   5   9
ENDBRANCH   3   5
BRANCH   2  13
HETATM   13  C           1     -26.701  -6.860 -20.439  0.00  0.00     0.194 C 
BRANCH  13  14
HETATM   14  C           1     -26.555  -8.103 -21.281  0.00  0.00     0.197 C 
HETATM   15  O           1     -25.466  -8.356 -21.841  0.00  0.00    -0.646 OA
HETATM   16  O           1     -27.524  -8.881 -21.420  0.00  0.00    -0.646 OA
ENDBRANCH  13  14
BRANCH  13  17
HETATM   17  C           1     -25.331  -6.230 -20.221  0.00  0.00     0.106 C 
BRANCH  17  18
HETATM   18  S           1     -24.441  -7.144 -18.930  0.00  0.00    -0.180 SA
HETATM   19  H           1     -23.450  -6.247 -18.782  0.00  0.00     0.101 HD
ENDBRANCH  17  18
ENDBRANCH  13  17
ENDBRANCH   2  13
TORSDOF 8
ENDMDL
MODEL 4
REMARK VINA RESULT:      -4.8      2.024      4.442
REMARK  8 active torsions:
REMARK  status: ('A' for Active; 'I' for Inactive)
REMARK    1  A    between atoms: O_4  and  C_5 
REMARK    2  A    between atoms: C_5  and  C_6 
REMARK    3  A    between atoms: C_6  and  C_12 
REMARK    4  A    between atoms: C_6  and  N_10 
REMARK    5  A    between atoms: C_9  and  C_19 
REMARK    6  A    between atoms: N_11  and  C_19 
REMARK       I    between atoms: N_11  and  C_12 
REMARK    7  A    between atoms: S_15  and  C_16 
REMARK    8  A    between atoms: C_16  and  C_19 
ROOT
HETATM    1  O           1     -34.521  -3.049 -13.596  0.00  0.00    -0.271 OA
HETATM    2  N           1     -35.166  -1.252 -12.437  0.00  0.00    -0.344 N 
HETATM    3  C           1     -34.491  -2.436 -12.555  0.00  0.00     0.251 C 
HETATM    4  H           1     -35.140  -0.739 -11.565  0.00  0.00     0.163 HD
ENDROOT
BRANCH   3   5
HETATM    5  C           1     -33.707  -2.978 -11.384  0.00  0.00     0.297 C 
BRANCH   5   6
HETATM    6  C           1     -34.494  -4.101 -10.721  0.00  0.00     0.206 C 
BRANCH   6   7
HETATM    7  O           1     -35.864  -3.909 -10.946  0.00  0.00    -0.398 OA
HETATM    8  H           1     -35.998  -3.954 -11.877  0.00  0.00     0.209 HD
ENDBRANCH   6   7
ENDBRANCH   5   6
BRANCH   5   9
HETATM    9  N           1     -33.472  -1.880 -10.390  0.00  0.00    -0.064 N 
HETATM   10  H           1     -32.449  -1.801 -10.192  0.00  0.00     0.275 HD
HETATM   11  H           1     -33.821  -0.975 -10.781  0.00  0.00     0.275 HD
HETATM   12  H           1     -33.983  -2.096  -9.504  0.00  0.00     0.275 HD
ENDBRANCH   5   9
ENDBRANCH   3   5
BRANCH   2  13
HETATM   13  C           1     -35.919  -0.732 -13.562  0.00  0.00     0.194 C 
BRANCH  13  14
HETATM   14  C           1     -35.090   0.298 -14.289  0.00  0.00     0.197 C 
HETATM   15  O           1     -34.681   0.068 -15.447  0.00  0.00    -0.646 OA
HETATM   16  O           1     -34.813   1.383 -13.732  0.00  0.00    -0.646 OA
ENDBRANCH  13  14
BRANCH  13  17
HETATM   17  C           1     -37.204  -0.087 -13.058  0.00  0.00     0.106 C 
BRANCH  17  18
HETATM   18  S           1     -37.274  -0.209 -11.248  0.00  0.00    -0.180 SA
HETATM   19  H           1     -38.493  -0.773 -11.193  0.00  0.00     0.101 HD
ENDBRANCH  17  18
ENDBRANCH  13  17
ENDBRANCH   2  13
TORSDOF 8
ENDMDL
MODEL 5
REMARK VINA RESULT:      -4.7     13.023     14.247
REMARK  8 active torsions:
REMARK  status: ('A' for Active; 'I' for Inactive)
REMARK    1  A    between atoms: O_4  and  C_5 
REMARK    2  A    between atoms: C_5  and  C_6 
REMARK    3  A    between atoms: C_6  and  C_12 
REMARK    4  A    between atoms: C_6  and  N_10 
REMARK    5  A    between atoms: C_9  and  C_19 
REMARK    6  A    between atoms: N_11  and  C_19 
REMARK       I    between atoms: N_11  and  C_12 
REMARK    7  A    between atoms: S_15  and  C_16 
REMARK    8  A    between atoms: C_16  and  C_19 
ROOT
HETATM    1  O           1     -23.523  -4.911 -10.728  0.00  0.00    -0.271 OA
HETATM    2  N           1     -21.725  -3.812  -9.987  0.00  0.00    -0.344 N 
HETATM    3  C           1     -22.740  -4.004 -10.885  0.00  0.00     0.251 C 
HETATM    4  H           1     -21.071  -3.052 -10.118  0.00  0.00     0.163 HD
ENDROOT
BRANCH   3   5
HETATM    5  C           1     -22.883  -3.081 -12.071  0.00  0.00     0.297 C 
BRANCH   5   6
HETATM    6  C           1     -24.283  -3.215 -12.655  0.00  0.00     0.206 C 
BRANCH   6   7
HETATM    7  O           1     -24.274  -4.172 -13.680  0.00  0.00    -0.398 OA
HETATM    8  H           1     -23.518  -3.995 -14.212  0.00  0.00     0.209 HD
ENDBRANCH   6   7
ENDBRANCH   5   6
BRANCH   5   9
HETATM    9  N           1     -21.870  -3.450 -13.115  0.00  0.00    -0.064 N 
HETATM   10  H           1     -21.118  -2.725 -13.143  0.00  0.00     0.275 HD
HETATM   11  H           1     -21.450  -4.378 -12.880  0.00  0.00     0.275 HD
HETATM   12  H           1     -22.337  -3.505 -14.048  0.00  0.00     0.275 HD
ENDBRANCH   5   9
ENDBRANCH   3   5
BRANCH   2  13
HETATM   13  C           1     -21.589  -4.699  -8.848  0.00  0.00     0.194 C 
BRANCH  13  14
HETATM   14  C           1     -22.180  -4.040  -7.625  0.00  0.00     0.197 C 
HETATM   15  O           1     -21.587  -3.083  -7.083  0.00  0.00    -0.646 OA
HETATM   16  O           1     -23.262  -4.454  -7.154  0.00  0.00    -0.646 OA
ENDBRANCH  13  14
BRANCH  13  17
HETATM   17  C           1     -20.114  -4.990  -8.606  0.00  0.00     0.106 C 
BRANCH  17  18
HETATM   18  S           1     -19.928  -5.944  -7.073  0.00  0.00    -0.180 SA
HETATM   19  H           1     -20.850  -5.263  -6.371  0.00  0.00     0.101 HD
ENDBRANCH  17  18
ENDBRANCH  13  17
ENDBRANCH   2  13
TORSDOF 8
ENDMDL
MODEL 6
REMARK VINA RESULT:      -4.7     13.365     15.259
REMARK  8 active torsions:
REMARK  status: ('A' for Active; 'I' for Inactive)
REMARK    1  A    between atoms: O_4  and  C_5 
REMARK    2  A    between atoms: C_5  and  C_6 
REMARK    3  A    between atoms: C_6  and  C_12 
REMARK    4  A    between atoms: C_6  and  N_10 
REMARK    5  A    between atoms: C_9  and  C_19 
REMARK    6  A    between atoms: N_11  and  C_19 
REMARK       I    between atoms: N_11  and  C_12 
REMARK    7  A    between atoms: S_15  and  C_16 
REMARK    8  A    between atoms: C_16  and  C_19 
ROOT
HETATM    1  O           1     -21.173  -3.286  -7.080  0.00  0.00    -0.271 OA
HETATM    2  N           1     -22.547  -4.717  -8.107  0.00  0.00    -0.344 N 
HETATM    3  C           1     -21.715  -4.367  -7.079  0.00  0.00     0.251 C 
HETATM    4  H           1     -23.000  -5.621  -8.105  0.00  0.00     0.163 HD
ENDROOT
BRANCH   3   5
HETATM    5  C           1     -21.474  -5.329  -5.942  0.00  0.00     0.297 C 
BRANCH   5   6
HETATM    6  C           1     -20.592  -6.474  -6.422  0.00  0.00     0.206 C 
BRANCH   6   7
HETATM    7  O           1     -19.958  -6.106  -7.617  0.00  0.00    -0.398 OA
HETATM    8  H           1     -20.586  -5.620  -8.122  0.00  0.00     0.209 HD
ENDBRANCH   6   7
ENDBRANCH   5   6
BRANCH   5   9
HETATM    9  N           1     -22.786  -5.877  -5.465  0.00  0.00    -0.064 N 
HETATM   10  H           1     -22.995  -6.770  -5.966  0.00  0.00     0.275 HD
HETATM   11  H           1     -22.734  -6.059  -4.437  0.00  0.00     0.275 HD
HETATM   12  H           1     -23.544  -5.184  -5.657  0.00  0.00     0.275 HD
ENDBRANCH   5   9
ENDBRANCH   3   5
BRANCH   2  13
HETATM   13  C           1     -22.777  -3.792  -9.200  0.00  0.00     0.194 C 
BRANCH  13  14
HETATM   14  C           1     -24.235  -3.828  -9.590  0.00  0.00     0.197 C 
HETATM   15  O           1     -24.931  -2.794  -9.505  0.00  0.00    -0.646 OA
HETATM   16  O           1     -24.746  -4.894  -9.999  0.00  0.00    -0.646 OA
ENDBRANCH  13  14
BRANCH  13  17
HETATM   17  C           1     -21.921  -4.194 -10.394  0.00  0.00     0.106 C 
BRANCH  17  18
HETATM   18  S           1     -22.087  -2.949 -11.705  0.00  0.00    -0.180 SA
HETATM   19  H           1     -21.039  -2.200 -11.320  0.00  0.00     0.101 HD
ENDBRANCH  17  18
ENDBRANCH  13  17
ENDBRANCH   2  13
TORSDOF 8
ENDMDL
MODEL 7
REMARK VINA RESULT:      -4.6      1.731      1.916
REMARK  8 active torsions:
REMARK  status: ('A' for Active; 'I' for Inactive)
REMARK    1  A    between atoms: O_4  and  C_5 
REMARK    2  A    between atoms: C_5  and  C_6 
REMARK    3  A    between atoms: C_6  and  C_12 
REMARK    4  A    between atoms: C_6  and  N_10 
REMARK    5  A    between atoms: C_9  and  C_19 
REMARK    6  A    between atoms: N_11  and  C_19 
REMARK       I    between atoms: N_11  and  C_12 
REMARK    7  A    between atoms: S_15  and  C_16 
REMARK    8  A    between atoms: C_16  and  C_19 
ROOT
HETATM    1  O           1     -35.337   0.358 -13.783  0.00  0.00    -0.271 OA
HETATM    2  N           1     -37.267  -0.253 -12.839  0.00  0.00    -0.344 N 
HETATM    3  C           1     -36.479  -0.009 -13.931  0.00  0.00     0.251 C 
HETATM    4  H           1     -38.222  -0.561 -12.963  0.00  0.00     0.163 HD
ENDROOT
BRANCH   3   5
HETATM    5  C           1     -37.035  -0.199 -15.321  0.00  0.00     0.297 C 
BRANCH   5   6
HETATM    6  C           1     -35.924  -0.655 -16.256  0.00  0.00     0.206 C 
BRANCH   6   7
HETATM    7  O           1     -36.437  -0.810 -17.552  0.00  0.00    -0.398 OA
HETATM    8  H           1     -37.369  -0.697 -17.492  0.00  0.00     0.209 HD
ENDBRANCH   6   7
ENDBRANCH   5   6
BRANCH   5   9
HETATM    9  N           1     -37.601   1.100 -15.814  0.00  0.00    -0.064 N 
HETATM   10  H           1     -36.963   1.508 -16.534  0.00  0.00     0.275 HD
HETATM   11  H           1     -38.542   0.930 -16.239  0.00  0.00     0.275 HD
HETATM   12  H           1     -37.696   1.765 -15.014  0.00  0.00     0.275 HD
ENDBRANCH   5   9
ENDBRANCH   3   5
BRANCH   2  13
HETATM   13  C           1     -36.731  -0.070 -11.504  0.00  0.00     0.194 C 
BRANCH  13  14
HETATM   14  C           1     -36.003  -1.321 -11.078  0.00  0.00     0.197 C 
HETATM   15  O           1     -34.773  -1.285 -10.859  0.00  0.00    -0.646 OA
HETATM   16  O           1     -36.630  -2.394 -10.944  0.00  0.00    -0.646 OA
ENDBRANCH  13  14
BRANCH  13  17
HETATM   17  C           1     -37.872   0.209 -10.533  0.00  0.00     0.106 C 
BRANCH  17  18
HETATM   18  S           1     -37.233   1.092  -9.083  0.00  0.00    -0.180 SA
HETATM   19  H           1     -38.284   1.920  -8.948  0.00  0.00     0.101 HD
ENDBRANCH  17  18
ENDBRANCH  13  17
ENDBRANCH   2  13
TORSDOF 8
ENDMDL
MODEL 8
REMARK VINA RESULT:      -4.4      3.802      4.475
REMARK  8 active torsions:
REMARK  status: ('A' for Active; 'I' for Inactive)
REMARK    1  A    between atoms: O_4  and  C_5 
REMARK    2  A    between atoms: C_5  and  C_6 
REMARK    3  A    between atoms: C_6  and  C_12 
REMARK    4  A    between atoms: C_6  and  N_10 
REMARK    5  A    between atoms: C_9  and  C_19 
REMARK    6  A    between atoms: N_11  and  C_19 
REMARK       I    between atoms: N_11  and  C_12 
REMARK    7  A    between atoms: S_15  and  C_16 
REMARK    8  A    between atoms: C_16  and  C_19 
ROOT
HETATM    1  O           1     -35.099  -5.156 -15.354  0.00  0.00    -0.271 OA
HETATM    2  N           1     -33.575  -3.899 -14.312  0.00  0.00    -0.344 N 
HETATM    3  C           1     -34.102  -4.478 -15.434  0.00  0.00     0.251 C 
HETATM    4  H           1     -32.742  -3.331 -14.379  0.00  0.00     0.163 HD
ENDROOT
BRANCH   3   5
HETATM    5  C           1     -33.438  -4.270 -16.773  0.00  0.00     0.297 C 
BRANCH   5   6
HETATM    6  C           1     -31.929  -4.412 -16.620  0.00  0.00     0.206 C 
BRANCH   6   7
HETATM    7  O           1     -31.290  -3.350 -17.275  0.00  0.00    -0.398 OA
HETATM    8  H           1     -30.463  -3.677 -17.584  0.00  0.00     0.209 HD
ENDBRANCH   6   7
ENDBRANCH   5   6
BRANCH   5   9
HETATM    9  N           1     -33.760  -2.896 -17.283  0.00  0.00    -0.064 N 
HETATM   10  H           1     -34.797  -2.783 -17.350  0.00  0.00     0.275 HD
HETATM   11  H           1     -33.374  -2.182 -16.624  0.00  0.00     0.275 HD
HETATM   12  H           1     -33.333  -2.766 -18.227  0.00  0.00     0.275 HD
ENDBRANCH   5   9
ENDBRANCH   3   5
BRANCH   2  13
HETATM   13  C           1     -34.214  -4.099 -13.026  0.00  0.00     0.194 C 
BRANCH  13  14
HETATM   14  C           1     -34.867  -2.813 -12.582  0.00  0.00     0.197 C 
HETATM   15  O           1     -35.620  -2.805 -11.584  0.00  0.00    -0.646 OA
HETATM   16  O           1     -34.655  -1.755 -13.213  0.00  0.00    -0.646 OA
ENDBRANCH  13  14
BRANCH  13  17
HETATM   17  C           1     -33.169  -4.518 -12.000  0.00  0.00     0.106 C 
BRANCH  17  18
HETATM   18  S           1     -33.834  -5.853 -10.966  0.00  0.00    -0.180 SA
HETATM   19  H           1     -34.800  -6.226 -11.823  0.00  0.00     0.101 HD
ENDBRANCH  17  18
ENDBRANCH  13  17
ENDBRANCH   2  13
TORSDOF 8
ENDMDL
MODEL 9
REMARK VINA RESULT:      -4.3     13.568     15.331
REMARK  8 active torsions:
REMARK  status: ('A' for Active; 'I' for Inactive)
REMARK    1  A    between atoms: O_4  and  C_5 
REMARK    2  A    between atoms: C_5  and  C_6 
REMARK    3  A    between atoms: C_6  and  C_12 
REMARK    4  A    between atoms: C_6  and  N_10 
REMARK    5  A    between atoms: C_9  and  C_19 
REMARK    6  A    between atoms: N_11  and  C_19 
REMARK       I    between atoms: N_11  and  C_12 
REMARK    7  A    between atoms: S_15  and  C_16 
REMARK    8  A    between atoms: C_16  and  C_19 
ROOT
HETATM    1  O           1     -19.886  -5.005  -9.849  0.00  0.00    -0.271 OA
HETATM    2  N           1     -21.903  -4.073  -9.627  0.00  0.00    -0.344 N 
HETATM    3  C           1     -20.666  -4.408  -9.146  0.00  0.00     0.251 C 
HETATM    4  H           1     -22.556  -3.572  -9.038  0.00  0.00     0.163 HD
ENDROOT
BRANCH   3   5
HETATM    5  C           1     -20.277  -4.032  -7.738  0.00  0.00     0.297 C 
BRANCH   5   6
HETATM    6  C           1     -19.925  -5.289  -6.954  0.00  0.00     0.206 C 
BRANCH   6   7
HETATM    7  O           1     -20.769  -6.337  -7.346  0.00  0.00    -0.398 OA
HETATM    8  H           1     -20.227  -6.983  -7.765  0.00  0.00     0.209 HD
ENDBRANCH   6   7
ENDBRANCH   5   6
BRANCH   5   9
HETATM    9  N           1     -21.425  -3.334  -7.071  0.00  0.00    -0.064 N 
HETATM   10  H           1     -21.154  -3.066  -6.098  0.00  0.00     0.275 HD
HETATM   11  H           1     -21.671  -2.474  -7.613  0.00  0.00     0.275 HD
HETATM   12  H           1     -22.251  -3.974  -7.040  0.00  0.00     0.275 HD
ENDBRANCH   5   9
ENDBRANCH   3   5
BRANCH   2  13
HETATM   13  C           1     -22.277  -4.435 -10.980  0.00  0.00     0.194 C 
BRANCH  13  14
HETATM   14  C           1     -22.028  -3.265 -11.901  0.00  0.00     0.197 C 
HETATM   15  O           1     -22.602  -3.208 -13.009  0.00  0.00    -0.646 OA
HETATM   16  O           1     -21.247  -2.352 -11.554  0.00  0.00    -0.646 OA
ENDBRANCH  13  14
BRANCH  13  17
HETATM   17  C           1     -23.754  -4.805 -11.017  0.00  0.00     0.106 C 
BRANCH  17  18
HETATM   18  S           1     -24.691  -3.663  -9.961  0.00  0.00    -0.180 SA
HETATM   19  H           1     -25.166  -2.904 -10.964  0.00  0.00     0.101 HD
ENDBRANCH  17  18
ENDBRANCH  13  17
ENDBRANCH   2  13
TORSDOF 8
ENDMDL
