MODEL 1
REMARK VINA RESULT:      -7.4      0.000      0.000
REMARK  10 active torsions:
REMARK  status: ('A' for Active; 'I' for Inactive)
REMARK    1  A    between atoms: C_5  and  C_14 
REMARK    2  A    between atoms: C_7  and  C_15 
REMARK       I    between atoms: C_12  and  N_26 
REMARK    3  A    between atoms: C_12  and  C_13 
REMARK    4  A    between atoms: C_13  and  C_14 
REMARK    5  A    between atoms: C_13  and  N_27 
REMARK    6  A    between atoms: C_15  and  C_25 
REMARK    7  A    between atoms: C_15  and  N_26 
REMARK       I    between atoms: N_17  and  C_18 
REMARK       I    between atoms: C_18  and  N_19 
REMARK    8  A    between atoms: N_20  and  C_21 
REMARK    9  A    between atoms: C_21  and  C_22 
REMARK   10  A    between atoms: C_22  and  C_25 
ROOT
HETATM    1  C           1     -22.673  -3.705  -9.576  0.00  0.00     0.185 C 
ENDROOT
BRANCH   1   2
HETATM    2  C           1     -24.174  -3.833  -9.677  0.00  0.00     0.196 C 
HETATM    3  O           1     -24.901  -2.836  -9.482  0.00  0.00    -0.646 OA
HETATM    4  O           1     -24.689  -4.937  -9.956  0.00  0.00    -0.646 OA
ENDBRANCH   1   2
BRANCH   1   5
HETATM    5  C           1     -22.051  -3.922 -10.950  0.00  0.00     0.038 C 
BRANCH   5   6
HETATM    6  C           1     -22.290  -2.692 -11.815  0.00  0.00     0.023 C 
BRANCH   6   7
HETATM    7  C           1     -23.113  -3.079 -13.035  0.00  0.00     0.138 C 
BRANCH   7   8
HETATM    8  N           1     -23.858  -1.907 -13.517  0.00  0.00    -0.227 N 
HETATM    9  H           1     -24.564  -1.442 -12.894  0.00  0.00     0.177 HD
HETATM   10  C           1     -23.647  -1.458 -14.681  0.00  0.00     0.665 C 
HETATM   11  N           1     -24.306  -0.421 -15.107  0.00  0.00    -0.235 N 
HETATM   12  N           1     -22.796  -2.019 -15.431  0.00  0.00    -0.235 N 
HETATM   13  H           1     -24.132  -0.050 -16.069  0.00  0.00     0.174 HD
HETATM   14  H           1     -25.009   0.042 -14.488  0.00  0.00     0.174 HD
HETATM   15  H           1     -22.621  -1.647 -16.398  0.00  0.00     0.174 HD
HETATM   16  H           1     -22.264  -2.856 -15.087  0.00  0.00     0.174 HD
ENDBRANCH   7   8
ENDBRANCH   6   7
ENDBRANCH   5   6
ENDBRANCH   1   5
BRANCH   1  17
HETATM   17  N           1     -22.165  -4.701  -8.653  0.00  0.00    -0.345 N 
HETATM   18  H           1     -22.254  -5.685  -8.872  0.00  0.00     0.163 HD
HETATM   19  C           1     -21.565  -4.309  -7.487  0.00  0.00     0.249 C 
HETATM   20  O           1     -21.460  -3.134  -7.226  0.00  0.00    -0.271 OA
BRANCH  19  21
HETATM   21  C           1     -21.036  -5.345  -6.525  0.00  0.00     0.284 C 
BRANCH  21  22
HETATM   22  C           1     -22.197  -5.978  -5.769  0.00  0.00     0.155 C 
BRANCH  22  23
HETATM   23  C           1     -21.704  -6.519  -4.450  0.00  0.00     0.175 C 
HETATM   24  O           1     -22.119  -6.026  -3.378  0.00  0.00    -0.648 OA
HETATM   25  O           1     -20.883  -7.461  -4.428  0.00  0.00    -0.648 OA
ENDBRANCH  22  23
ENDBRANCH  21  22
BRANCH  21  26
HETATM   26  N           1     -20.103  -4.691  -5.550  0.00  0.00    -0.066 N 
HETATM   27  H           1     -19.455  -5.408  -5.153  0.00  0.00     0.275 HD
HETATM   28  H           1     -19.549  -3.953  -6.041  0.00  0.00     0.275 HD
HETATM   29  H           1     -20.656  -4.256  -4.778  0.00  0.00     0.275 HD
ENDBRANCH  21  26
ENDBRANCH  19  21
ENDBRANCH   1  17
TORSDOF 10
ENDMDL
MODEL 2
REMARK VINA RESULT:      -6.6      2.470      7.803
REMARK  10 active torsions:
REMARK  status: ('A' for Active; 'I' for Inactive)
REMARK    1  A    between atoms: C_5  and  C_14 
REMARK    2  A    between atoms: C_7  and  C_15 
REMARK       I    between atoms: C_12  and  N_26 
REMARK    3  A    between atoms: C_12  and  C_13 
REMARK    4  A    between atoms: C_13  and  C_14 
REMARK    5  A    between atoms: C_13  and  N_27 
REMARK    6  A    between atoms: C_15  and  C_25 
REMARK    7  A    between atoms: C_15  and  N_26 
REMARK       I    between atoms: N_17  and  C_18 
REMARK       I    between atoms: C_18  and  N_19 
REMARK    8  A    between atoms: N_20  and  C_21 
REMARK    9  A    between atoms: C_21  and  C_22 
REMARK   10  A    between atoms: C_22  and  C_25 
ROOT
HETATM    1  C           1     -22.345  -4.398  -9.312  0.00  0.00     0.185 C 
ENDROOT
BRANCH   1   2
HETATM    2  C           1     -23.408  -4.137  -8.273  0.00  0.00     0.196 C 
HETATM    3  O           1     -24.473  -3.569  -8.597  0.00  0.00    -0.646 OA
HETATM    4  O           1     -23.222  -4.489  -7.088  0.00  0.00    -0.646 OA
ENDBRANCH   1   2
BRANCH   1   5
HETATM    5  C           1     -21.018  -3.818  -8.839  0.00  0.00     0.038 C 
BRANCH   5   6
HETATM    6  C           1     -19.974  -4.926  -8.776  0.00  0.00     0.023 C 
BRANCH   6   7
HETATM    7  C           1     -19.340  -4.950  -7.392  0.00  0.00     0.138 C 
BRANCH   7   8
HETATM    8  N           1     -20.395  -4.909  -6.369  0.00  0.00    -0.227 N 
HETATM    9  H           1     -20.906  -4.012  -6.178  0.00  0.00     0.177 HD
HETATM   10  C           1     -20.685  -5.955  -5.718  0.00  0.00     0.665 C 
HETATM   11  N           1     -21.618  -5.919  -4.813  0.00  0.00    -0.235 N 
HETATM   12  N           1     -20.068  -7.035  -5.948  0.00  0.00    -0.235 N 
HETATM   13  H           1     -21.858  -6.782  -4.275  0.00  0.00     0.174 HD
HETATM   14  H           1     -22.127  -5.026  -4.622  0.00  0.00     0.174 HD
HETATM   15  H           1     -20.309  -7.904  -5.408  0.00  0.00     0.174 HD
HETATM   16  H           1     -19.315  -7.064  -6.679  0.00  0.00     0.174 HD
ENDBRANCH   7   8
ENDBRANCH   6   7
ENDBRANCH   5   6
ENDBRANCH   1   5
BRANCH   1  17
HETATM   17  N           1     -22.727  -3.771 -10.562  0.00  0.00    -0.345 N 
HETATM   18  H           1     -22.475  -2.807 -10.743  0.00  0.00     0.163 HD
HETATM   19  C           1     -23.430  -4.482 -11.497  0.00  0.00     0.249 C 
HETATM   20  O           1     -23.732  -5.631 -11.282  0.00  0.00    -0.271 OA
BRANCH  19  21
HETATM   21  C           1     -23.829  -3.828 -12.799  0.00  0.00     0.284 C 
BRANCH  21  22
HETATM   22  C           1     -22.722  -2.888 -13.256  0.00  0.00     0.155 C 
BRANCH  22  23
HETATM   23  C           1     -23.032  -2.381 -14.643  0.00  0.00     0.175 C 
HETATM   24  O           1     -22.369  -2.789 -15.620  0.00  0.00    -0.648 OA
HETATM   25  O           1     -23.955  -1.554 -14.815  0.00  0.00    -0.648 OA
ENDBRANCH  22  23
ENDBRANCH  21  22
BRANCH  21  26
HETATM   26  N           1     -25.095  -3.049 -12.598  0.00  0.00    -0.066 N 
HETATM   27  H           1     -24.873  -2.137 -12.139  0.00  0.00     0.275 HD
HETATM   28  H           1     -25.545  -2.873 -13.525  0.00  0.00     0.275 HD
HETATM   29  H           1     -25.747  -3.595 -11.991  0.00  0.00     0.275 HD
ENDBRANCH  21  26
ENDBRANCH  19  21
ENDBRANCH   1  17
TORSDOF 10
ENDMDL
MODEL 3
REMARK VINA RESULT:      -6.5      3.185      8.094
REMARK  10 active torsions:
REMARK  status: ('A' for Active; 'I' for Inactive)
REMARK    1  A    between atoms: C_5  and  C_14 
REMARK    2  A    between atoms: C_7  and  C_15 
REMARK       I    between atoms: C_12  and  N_26 
REMARK    3  A    between atoms: C_12  and  C_13 
REMARK    4  A    between atoms: C_13  and  C_14 
REMARK    5  A    between atoms: C_13  and  N_27 
REMARK    6  A    between atoms: C_15  and  C_25 
REMARK    7  A    between atoms: C_15  and  N_26 
REMARK       I    between atoms: N_17  and  C_18 
REMARK       I    between atoms: C_18  and  N_19 
REMARK    8  A    between atoms: N_20  and  C_21 
REMARK    9  A    between atoms: C_21  and  C_22 
REMARK   10  A    between atoms: C_22  and  C_25 
ROOT
HETATM    1  C           1     -21.176  -4.342  -7.589  0.00  0.00     0.185 C 
ENDROOT
BRANCH   1   2
HETATM    2  C           1     -19.829  -4.552  -8.237  0.00  0.00     0.196 C 
HETATM    3  O           1     -19.758  -4.872  -9.442  0.00  0.00    -0.646 OA
HETATM    4  O           1     -18.784  -4.406  -7.566  0.00  0.00    -0.646 OA
ENDBRANCH   1   2
BRANCH   1   5
HETATM    5  C           1     -21.215  -5.068  -6.250  0.00  0.00     0.038 C 
BRANCH   5   6
HETATM    6  C           1     -21.281  -6.570  -6.489  0.00  0.00     0.023 C 
BRANCH   6   7
HETATM    7  C           1     -21.493  -7.288  -5.163  0.00  0.00     0.138 C 
BRANCH   7   8
HETATM    8  N           1     -22.004  -6.336  -4.166  0.00  0.00    -0.227 N 
HETATM    9  H           1     -22.519  -5.475  -4.478  0.00  0.00     0.177 HD
HETATM   10  C           1     -21.823  -6.553  -2.932  0.00  0.00     0.665 C 
HETATM   11  N           1     -22.275  -5.711  -2.051  0.00  0.00    -0.235 N 
HETATM   12  N           1     -21.202  -7.590  -2.557  0.00  0.00    -0.235 N 
HETATM   13  H           1     -22.126  -5.891  -1.032  0.00  0.00     0.174 HD
HETATM   14  H           1     -22.788  -4.855  -2.360  0.00  0.00     0.174 HD
HETATM   15  H           1     -21.052  -7.771  -1.533  0.00  0.00     0.174 HD
HETATM   16  H           1     -20.837  -8.270  -3.269  0.00  0.00     0.174 HD
ENDBRANCH   7   8
ENDBRANCH   6   7
ENDBRANCH   5   6
ENDBRANCH   1   5
BRANCH   1  17
HETATM   17  N           1     -22.215  -4.868  -8.453  0.00  0.00    -0.345 N 
HETATM   18  H           1     -22.251  -5.858  -8.655  0.00  0.00     0.163 HD
HETATM   19  C           1     -23.145  -4.023  -8.996  0.00  0.00     0.249 C 
HETATM   20  O           1     -23.101  -2.840  -8.755  0.00  0.00    -0.271 OA
BRANCH  19  21
HETATM   21  C           1     -24.226  -4.570  -9.896  0.00  0.00     0.284 C 
BRANCH  21  22
HETATM   22  C           1     -23.700  -4.667 -11.322  0.00  0.00     0.155 C 
BRANCH  22  23
HETATM   23  C           1     -24.027  -3.397 -12.068  0.00  0.00     0.175 C 
HETATM   24  O           1     -25.096  -3.307 -12.709  0.00  0.00    -0.648 OA
HETATM   25  O           1     -23.229  -2.434 -12.043  0.00  0.00    -0.648 OA
ENDBRANCH  22  23
ENDBRANCH  21  22
BRANCH  21  26
HETATM   26  N           1     -25.413  -3.652  -9.865  0.00  0.00    -0.066 N 
HETATM   27  H           1     -26.288  -4.210  -9.989  0.00  0.00     0.275 HD
HETATM   28  H           1     -25.444  -3.156  -8.946  0.00  0.00     0.275 HD
HETATM   29  H           1     -25.333  -2.953 -10.637  0.00  0.00     0.275 HD
ENDBRANCH  21  26
ENDBRANCH  19  21
ENDBRANCH   1  17
TORSDOF 10
ENDMDL
MODEL 4
REMARK VINA RESULT:      -6.4      3.075      4.560
REMARK  10 active torsions:
REMARK  status: ('A' for Active; 'I' for Inactive)
REMARK    1  A    between atoms: C_5  and  C_14 
REMARK    2  A    between atoms: C_7  and  C_15 
REMARK       I    between atoms: C_12  and  N_26 
REMARK    3  A    between atoms: C_12  and  C_13 
REMARK    4  A    between atoms: C_13  and  C_14 
REMARK    5  A    between atoms: C_13  and  N_27 
REMARK    6  A    between atoms: C_15  and  C_25 
REMARK    7  A    between atoms: C_15  and  N_26 
REMARK       I    between atoms: N_17  and  C_18 
REMARK       I    between atoms: C_18  and  N_19 
REMARK    8  A    between atoms: N_20  and  C_21 
REMARK    9  A    between atoms: C_21  and  C_22 
REMARK   10  A    between atoms: C_22  and  C_25 
ROOT
HETATM    1  C           1     -21.262  -5.395  -6.617  0.00  0.00     0.185 C 
ENDROOT
BRANCH   1   2
HETATM    2  C           1     -19.964  -5.732  -7.310  0.00  0.00     0.196 C 
HETATM    3  O           1     -19.414  -6.835  -7.104  0.00  0.00    -0.646 OA
HETATM    4  O           1     -19.440  -4.907  -8.089  0.00  0.00    -0.646 OA
ENDBRANCH   1   2
BRANCH   1   5
HETATM    5  C           1     -21.771  -4.049  -7.117  0.00  0.00     0.038 C 
BRANCH   5   6
HETATM    6  C           1     -23.062  -4.253  -7.899  0.00  0.00     0.023 C 
BRANCH   6   7
HETATM    7  C           1     -22.732  -4.650  -9.332  0.00  0.00     0.138 C 
BRANCH   7   8
HETATM    8  N           1     -21.669  -3.777  -9.850  0.00  0.00    -0.227 N 
HETATM    9  H           1     -21.136  -3.152  -9.194  0.00  0.00     0.177 HD
HETATM   10  C           1     -21.394  -3.779 -11.085  0.00  0.00     0.665 C 
HETATM   11  N           1     -20.454  -3.007 -11.544  0.00  0.00    -0.235 N 
HETATM   12  N           1     -22.035  -4.532 -11.875  0.00  0.00    -0.235 N 
HETATM   13  H           1     -20.227  -3.008 -12.564  0.00  0.00     0.174 HD
HETATM   14  H           1     -19.924  -2.385 -10.892  0.00  0.00     0.174 HD
HETATM   15  H           1     -21.808  -4.534 -12.900  0.00  0.00     0.174 HD
HETATM   16  H           1     -22.795  -5.156 -11.504  0.00  0.00     0.174 HD
ENDBRANCH   7   8
ENDBRANCH   6   7
ENDBRANCH   5   6
ENDBRANCH   1   5
BRANCH   1  17
HETATM   17  N           1     -21.043  -5.327  -5.186  0.00  0.00    -0.345 N 
HETATM   18  H           1     -20.558  -4.534  -4.786  0.00  0.00     0.163 HD
HETATM   19  C           1     -21.491  -6.335  -4.376  0.00  0.00     0.249 C 
HETATM   20  O           1     -22.070  -7.282  -4.853  0.00  0.00    -0.271 OA
BRANCH  19  21
HETATM   21  C           1     -21.262  -6.264  -2.885  0.00  0.00     0.284 C 
BRANCH  21  22
HETATM   22  C           1     -20.700  -7.591  -2.394  0.00  0.00     0.155 C 
BRANCH  22  23
HETATM   23  C           1     -21.591  -8.145  -1.309  0.00  0.00     0.175 C 
HETATM   24  O           1     -22.358  -9.100  -1.558  0.00  0.00    -0.648 OA
HETATM   25  O           1     -21.561  -7.650  -0.161  0.00  0.00    -0.648 OA
ENDBRANCH  22  23
ENDBRANCH  21  22
BRANCH  21  26
HETATM   26  N           1     -22.564  -5.987  -2.193  0.00  0.00    -0.066 N 
HETATM   27  H           1     -22.823  -6.805  -1.597  0.00  0.00     0.275 HD
HETATM   28  H           1     -22.464  -5.136  -1.595  0.00  0.00     0.275 HD
HETATM   29  H           1     -23.310  -5.826  -2.907  0.00  0.00     0.275 HD
ENDBRANCH  21  26
ENDBRANCH  19  21
ENDBRANCH   1  17
TORSDOF 10
ENDMDL
MODEL 5
REMARK VINA RESULT:      -6.4      2.253      3.162
REMARK  10 active torsions:
REMARK  status: ('A' for Active; 'I' for Inactive)
REMARK    1  A    between atoms: C_5  and  C_14 
REMARK    2  A    between atoms: C_7  and  C_15 
REMARK       I    between atoms: C_12  and  N_26 
REMARK    3  A    between atoms: C_12  and  C_13 
REMARK    4  A    between atoms: C_13  and  C_14 
REMARK    5  A    between atoms: C_13  and  N_27 
REMARK    6  A    between atoms: C_15  and  C_25 
REMARK    7  A    between atoms: C_15  and  N_26 
REMARK       I    between atoms: N_17  and  C_18 
REMARK       I    between atoms: C_18  and  N_19 
REMARK    8  A    between atoms: N_20  and  C_21 
REMARK    9  A    between atoms: C_21  and  C_22 
REMARK   10  A    between atoms: C_22  and  C_25 
ROOT
HETATM    1  C           1     -21.616  -4.803  -8.341  0.00  0.00     0.185 C 
ENDROOT
BRANCH   1   2
HETATM    2  C           1     -20.286  -4.429  -8.948  0.00  0.00     0.196 C 
HETATM    3  O           1     -20.096  -4.574 -10.175  0.00  0.00    -0.646 OA
HETATM    4  O           1     -19.375  -3.974  -8.223  0.00  0.00    -0.646 OA
ENDBRANCH   1   2
BRANCH   1   5
HETATM    5  C           1     -22.656  -3.751  -8.706  0.00  0.00     0.038 C 
BRANCH   5   6
HETATM    6  C           1     -23.862  -4.430  -9.341  0.00  0.00     0.023 C 
BRANCH   6   7
HETATM    7  C           1     -23.560  -4.743 -10.800  0.00  0.00     0.138 C 
BRANCH   7   8
HETATM    8  N           1     -23.977  -3.612 -11.641  0.00  0.00    -0.227 N 
HETATM    9  H           1     -24.948  -3.221 -11.551  0.00  0.00     0.177 HD
HETATM   10  C           1     -23.166  -3.109 -12.473  0.00  0.00     0.665 C 
HETATM   11  N           1     -23.535  -2.109 -13.217  0.00  0.00    -0.235 N 
HETATM   12  N           1     -21.997  -3.581 -12.581  0.00  0.00    -0.235 N 
HETATM   13  H           1     -22.866  -1.693 -13.904  0.00  0.00     0.174 HD
HETATM   14  H           1     -24.501  -1.719 -13.128  0.00  0.00     0.174 HD
HETATM   15  H           1     -21.323  -3.164 -13.271  0.00  0.00     0.174 HD
HETATM   16  H           1     -21.699  -4.389 -11.980  0.00  0.00     0.174 HD
ENDBRANCH   7   8
ENDBRANCH   6   7
ENDBRANCH   5   6
ENDBRANCH   1   5
BRANCH   1  17
HETATM   17  N           1     -21.486  -4.873  -6.899  0.00  0.00    -0.345 N 
HETATM   18  H           1     -21.574  -4.033  -6.342  0.00  0.00     0.163 HD
HETATM   19  C           1     -21.243  -6.076  -6.291  0.00  0.00     0.249 C 
HETATM   20  O           1     -21.138  -7.079  -6.956  0.00  0.00    -0.271 OA
BRANCH  19  21
HETATM   21  C           1     -21.107  -6.149  -4.790  0.00  0.00     0.284 C 
BRANCH  21  22
HETATM   22  C           1     -20.370  -7.426  -4.407  0.00  0.00     0.155 C 
BRANCH  22  23
HETATM   23  C           1     -20.967  -7.992  -3.142  0.00  0.00     0.175 C 
HETATM   24  O           1     -21.698  -9.004  -3.195  0.00  0.00    -0.648 OA
HETATM   25  O           1     -20.730  -7.449  -2.041  0.00  0.00    -0.648 OA
ENDBRANCH  22  23
ENDBRANCH  21  22
BRANCH  21  26
HETATM   26  N           1     -22.471  -6.153  -4.164  0.00  0.00    -0.066 N 
HETATM   27  H           1     -22.837  -5.175  -4.121  0.00  0.00     0.275 HD
HETATM   28  H           1     -23.114  -6.741  -4.740  0.00  0.00     0.275 HD
HETATM   29  H           1     -22.409  -6.545  -3.198  0.00  0.00     0.275 HD
ENDBRANCH  21  26
ENDBRANCH  19  21
ENDBRANCH   1  17
TORSDOF 10
ENDMDL
MODEL 6
REMARK VINA RESULT:      -6.1      3.310      9.387
REMARK  10 active torsions:
REMARK  status: ('A' for Active; 'I' for Inactive)
REMARK    1  A    between atoms: C_5  and  C_14 
REMARK    2  A    between atoms: C_7  and  C_15 
REMARK       I    between atoms: C_12  and  N_26 
REMARK    3  A    between atoms: C_12  and  C_13 
REMARK    4  A    between atoms: C_13  and  C_14 
REMARK    5  A    between atoms: C_13  and  N_27 
REMARK    6  A    between atoms: C_15  and  C_25 
REMARK    7  A    between atoms: C_15  and  N_26 
REMARK       I    between atoms: N_17  and  C_18 
REMARK       I    between atoms: C_18  and  N_19 
REMARK    8  A    between atoms: N_20  and  C_21 
REMARK    9  A    between atoms: C_21  and  C_22 
REMARK   10  A    between atoms: C_22  and  C_25 
ROOT
HETATM    1  C           1     -21.200  -6.055  -5.296  0.00  0.00     0.185 C 
ENDROOT
BRANCH   1   2
HETATM    2  C           1     -20.637  -7.348  -5.834  0.00  0.00     0.196 C 
HETATM    3  O           1     -19.450  -7.399  -6.224  0.00  0.00    -0.646 OA
HETATM    4  O           1     -21.357  -8.368  -5.889  0.00  0.00    -0.646 OA
ENDBRANCH   1   2
BRANCH   1   5
HETATM    5  C           1     -22.129  -6.353  -4.126  0.00  0.00     0.038 C 
BRANCH   5   6
HETATM    6  C           1     -21.309  -6.499  -2.852  0.00  0.00     0.023 C 
BRANCH   6   7
HETATM    7  C           1     -22.237  -6.778  -1.678  0.00  0.00     0.138 C 
BRANCH   7   8
HETATM    8  N           1     -21.517  -7.550  -0.655  0.00  0.00    -0.227 N 
HETATM    9  H           1     -20.479  -7.692  -0.739  0.00  0.00     0.177 HD
HETATM   10  C           1     -22.147  -8.044   0.325  0.00  0.00     0.665 C 
HETATM   11  N           1     -21.510  -8.726   1.230  0.00  0.00    -0.235 N 
HETATM   12  N           1     -23.397  -7.873   0.425  0.00  0.00    -0.235 N 
HETATM   13  H           1     -22.030  -9.134   2.040  0.00  0.00     0.174 HD
HETATM   14  H           1     -20.477  -8.868   1.148  0.00  0.00     0.174 HD
HETATM   15  H           1     -23.920  -8.282   1.239  0.00  0.00     0.174 HD
HETATM   16  H           1     -23.911  -7.321  -0.305  0.00  0.00     0.174 HD
ENDBRANCH   7   8
ENDBRANCH   6   7
ENDBRANCH   5   6
ENDBRANCH   1   5
BRANCH   1  17
HETATM   17  N           1     -21.942  -5.379  -6.342  0.00  0.00    -0.345 N 
HETATM   18  H           1     -22.917  -5.600  -6.494  0.00  0.00     0.163 HD
HETATM   19  C           1     -21.322  -4.443  -7.125  0.00  0.00     0.249 C 
HETATM   20  O           1     -20.157  -4.179  -6.944  0.00  0.00    -0.271 OA
BRANCH  19  21
HETATM   21  C           1     -22.094  -3.739  -8.215  0.00  0.00     0.284 C 
BRANCH  21  22
HETATM   22  C           1     -23.526  -4.257  -8.238  0.00  0.00     0.155 C 
BRANCH  22  23
HETATM   23  C           1     -24.086  -4.126  -9.634  0.00  0.00     0.175 C 
HETATM   24  O           1     -24.075  -5.109 -10.405  0.00  0.00    -0.648 OA
HETATM   25  O           1     -24.562  -3.035 -10.017  0.00  0.00    -0.648 OA
ENDBRANCH  22  23
ENDBRANCH  21  22
BRANCH  21  26
HETATM   26  N           1     -21.444  -4.009  -9.540  0.00  0.00    -0.066 N 
HETATM   27  H           1     -20.562  -4.549  -9.392  0.00  0.00     0.275 HD
HETATM   28  H           1     -22.096  -4.563 -10.140  0.00  0.00     0.275 HD
HETATM   29  H           1     -21.223  -3.102 -10.009  0.00  0.00     0.275 HD
ENDBRANCH  21  26
ENDBRANCH  19  21
ENDBRANCH   1  17
TORSDOF 10
ENDMDL
MODEL 7
REMARK VINA RESULT:      -6.0      3.867      6.371
REMARK  10 active torsions:
REMARK  status: ('A' for Active; 'I' for Inactive)
REMARK    1  A    between atoms: C_5  and  C_14 
REMARK    2  A    between atoms: C_7  and  C_15 
REMARK       I    between atoms: C_12  and  N_26 
REMARK    3  A    between atoms: C_12  and  C_13 
REMARK    4  A    between atoms: C_13  and  C_14 
REMARK    5  A    between atoms: C_13  and  N_27 
REMARK    6  A    between atoms: C_15  and  C_25 
REMARK    7  A    between atoms: C_15  and  N_26 
REMARK       I    between atoms: N_17  and  C_18 
REMARK       I    between atoms: C_18  and  N_19 
REMARK    8  A    between atoms: N_20  and  C_21 
REMARK    9  A    between atoms: C_21  and  C_22 
REMARK   10  A    between atoms: C_22  and  C_25 
ROOT
HETATM    1  C           1     -20.714  -6.865  -5.232  0.00  0.00     0.185 C 
ENDROOT
BRANCH   1   2
HETATM    2  C           1     -21.956  -6.282  -4.605  0.00  0.00     0.196 C 
HETATM    3  O           1     -21.985  -6.047  -3.378  0.00  0.00    -0.646 OA
HETATM    4  O           1     -22.956  -6.034  -5.313  0.00  0.00    -0.646 OA
ENDBRANCH   1   2
BRANCH   1   5
HETATM    5  C           1     -20.441  -6.170  -6.561  0.00  0.00     0.038 C 
BRANCH   5   6
HETATM    6  C           1     -20.054  -4.720  -6.305  0.00  0.00     0.023 C 
BRANCH   6   7
HETATM    7  C           1     -20.619  -3.839  -7.410  0.00  0.00     0.138 C 
BRANCH   7   8
HETATM    8  N           1     -22.086  -3.828  -7.326  0.00  0.00    -0.227 N 
HETATM    9  H           1     -22.558  -3.675  -6.400  0.00  0.00     0.177 HD
HETATM   10  C           1     -22.782  -4.001  -8.370  0.00  0.00     0.665 C 
HETATM   11  N           1     -24.079  -3.991  -8.295  0.00  0.00    -0.235 N 
HETATM   12  N           1     -22.213  -4.185  -9.485  0.00  0.00    -0.235 N 
HETATM   13  H           1     -24.654  -4.134  -9.157  0.00  0.00     0.174 HD
HETATM   14  H           1     -24.549  -3.839  -7.374  0.00  0.00     0.174 HD
HETATM   15  H           1     -22.790  -4.329 -10.351  0.00  0.00     0.174 HD
HETATM   16  H           1     -21.165  -4.193  -9.545  0.00  0.00     0.174 HD
ENDBRANCH   7   8
ENDBRANCH   6   7
ENDBRANCH   5   6
ENDBRANCH   1   5
BRANCH   1  17
HETATM   17  N           1     -20.907  -8.283  -5.460  0.00  0.00    -0.345 N 
HETATM   18  H           1     -21.719  -8.607  -5.971  0.00  0.00     0.163 HD
HETATM   19  C           1     -19.993  -9.184  -4.983  0.00  0.00     0.249 C 
HETATM   20  O           1     -19.025  -8.797  -4.373  0.00  0.00    -0.271 OA
BRANCH  19  21
HETATM   21  C           1     -20.195 -10.661  -5.220  0.00  0.00     0.284 C 
BRANCH  21  22
HETATM   22  C           1     -18.862 -11.306  -5.575  0.00  0.00     0.155 C 
BRANCH  22  23
HETATM   23  C           1     -19.034 -12.180  -6.793  0.00  0.00     0.175 C 
HETATM   24  O           1     -18.828 -11.711  -7.933  0.00  0.00    -0.648 OA
HETATM   25  O           1     -19.382 -13.374  -6.662  0.00  0.00    -0.648 OA
ENDBRANCH  22  23
ENDBRANCH  21  22
BRANCH  21  26
HETATM   26  N           1     -21.162 -10.858  -6.350  0.00  0.00    -0.066 N 
HETATM   27  H           1     -22.084 -11.169  -5.970  0.00  0.00     0.275 HD
HETATM   28  H           1     -21.283  -9.956  -6.864  0.00  0.00     0.275 HD
HETATM   29  H           1     -20.791 -11.585  -7.002  0.00  0.00     0.275 HD
ENDBRANCH  21  26
ENDBRANCH  19  21
ENDBRANCH   1  17
TORSDOF 10
ENDMDL
MODEL 8
REMARK VINA RESULT:      -5.9      3.712      9.518
REMARK  10 active torsions:
REMARK  status: ('A' for Active; 'I' for Inactive)
REMARK    1  A    between atoms: C_5  and  C_14 
REMARK    2  A    between atoms: C_7  and  C_15 
REMARK       I    between atoms: C_12  and  N_26 
REMARK    3  A    between atoms: C_12  and  C_13 
REMARK    4  A    between atoms: C_13  and  C_14 
REMARK    5  A    between atoms: C_13  and  N_27 
REMARK    6  A    between atoms: C_15  and  C_25 
REMARK    7  A    between atoms: C_15  and  N_26 
REMARK       I    between atoms: N_17  and  C_18 
REMARK       I    between atoms: C_18  and  N_19 
REMARK    8  A    between atoms: N_20  and  C_21 
REMARK    9  A    between atoms: C_21  and  C_22 
REMARK   10  A    between atoms: C_22  and  C_25 
ROOT
HETATM    1  C           1     -20.910  -6.690  -4.756  0.00  0.00     0.185 C 
ENDROOT
BRANCH   1   2
HETATM    2  C           1     -20.240  -8.040  -4.829  0.00  0.00     0.196 C 
HETATM    3  O           1     -20.459  -8.895  -3.944  0.00  0.00    -0.646 OA
HETATM    4  O           1     -19.465  -8.303  -5.774  0.00  0.00    -0.646 OA
ENDBRANCH   1   2
BRANCH   1   5
HETATM    5  C           1     -22.045  -6.739  -3.741  0.00  0.00     0.038 C 
BRANCH   5   6
HETATM    6  C           1     -21.620  -6.018  -2.469  0.00  0.00     0.023 C 
BRANCH   6   7
HETATM    7  C           1     -22.284  -6.673  -1.266  0.00  0.00     0.138 C 
BRANCH   7   8
HETATM    8  N           1     -21.964  -8.108  -1.250  0.00  0.00    -0.227 N 
HETATM    9  H           1     -21.298  -8.505  -1.959  0.00  0.00     0.177 HD
HETATM   10  C           1     -22.489  -8.864  -0.381  0.00  0.00     0.665 C 
HETATM   11  N           1     -22.206 -10.133  -0.367  0.00  0.00    -0.235 N 
HETATM   12  N           1     -23.291  -8.385   0.473  0.00  0.00    -0.235 N 
HETATM   13  H           1     -22.639 -10.757   0.351  0.00  0.00     0.174 HD
HETATM   14  H           1     -21.544 -10.529  -1.072  0.00  0.00     0.174 HD
HETATM   15  H           1     -23.727  -9.012   1.194  0.00  0.00     0.174 HD
HETATM   16  H           1     -23.519  -7.360   0.461  0.00  0.00     0.174 HD
ENDBRANCH   7   8
ENDBRANCH   6   7
ENDBRANCH   5   6
ENDBRANCH   1   5
BRANCH   1  17
HETATM   17  N           1     -21.443  -6.344  -6.059  0.00  0.00    -0.345 N 
HETATM   18  H           1     -22.080  -6.975  -6.528  0.00  0.00     0.163 HD
HETATM   19  C           1     -21.083  -5.166  -6.655  0.00  0.00     0.249 C 
HETATM   20  O           1     -20.321  -4.413  -6.095  0.00  0.00    -0.271 OA
BRANCH  19  21
HETATM   21  C           1     -21.637  -4.806  -8.012  0.00  0.00     0.284 C 
BRANCH  21  22
HETATM   22  C           1     -20.488  -4.551  -8.979  0.00  0.00     0.155 C 
BRANCH  22  23
HETATM   23  C           1     -21.042  -4.211 -10.341  0.00  0.00     0.175 C 
HETATM   24  O           1     -22.179  -4.610 -10.670  0.00  0.00    -0.648 OA
HETATM   25  O           1     -20.363  -3.528 -11.140  0.00  0.00    -0.648 OA
ENDBRANCH  22  23
ENDBRANCH  21  22
BRANCH  21  26
HETATM   26  N           1     -22.476  -3.568  -7.897  0.00  0.00    -0.066 N 
HETATM   27  H           1     -22.203  -3.042  -7.036  0.00  0.00     0.275 HD
HETATM   28  H           1     -22.324  -2.966  -8.737  0.00  0.00     0.275 HD
HETATM   29  H           1     -23.484  -3.835  -7.836  0.00  0.00     0.275 HD
ENDBRANCH  21  26
ENDBRANCH  19  21
ENDBRANCH   1  17
TORSDOF 10
ENDMDL
MODEL 9
REMARK VINA RESULT:      -5.7      4.620      7.178
REMARK  10 active torsions:
REMARK  status: ('A' for Active; 'I' for Inactive)
REMARK    1  A    between atoms: C_5  and  C_14 
REMARK    2  A    between atoms: C_7  and  C_15 
REMARK       I    between atoms: C_12  and  N_26 
REMARK    3  A    between atoms: C_12  and  C_13 
REMARK    4  A    between atoms: C_13  and  C_14 
REMARK    5  A    between atoms: C_13  and  N_27 
REMARK    6  A    between atoms: C_15  and  C_25 
REMARK    7  A    between atoms: C_15  and  N_26 
REMARK       I    between atoms: N_17  and  C_18 
REMARK       I    between atoms: C_18  and  N_19 
REMARK    8  A    between atoms: N_20  and  C_21 
REMARK    9  A    between atoms: C_21  and  C_22 
REMARK   10  A    between atoms: C_22  and  C_25 
ROOT
HETATM    1  C           1     -21.024  -8.064  -4.165  0.00  0.00     0.185 C 
ENDROOT
BRANCH   1   2
HETATM    2  C           1     -19.686  -8.434  -4.757  0.00  0.00     0.196 C 
HETATM    3  O           1     -19.450  -8.205  -5.962  0.00  0.00    -0.646 OA
HETATM    4  O           1     -18.813  -8.970  -4.040  0.00  0.00    -0.646 OA
ENDBRANCH   1   2
BRANCH   1   5
HETATM    5  C           1     -21.217  -6.554  -4.249  0.00  0.00     0.038 C 
BRANCH   5   6
HETATM    6  C           1     -22.377  -6.243  -5.186  0.00  0.00     0.023 C 
BRANCH   6   7
HETATM    7  C           1     -21.905  -5.299  -6.283  0.00  0.00     0.138 C 
BRANCH   7   8
HETATM    8  N           1     -23.064  -4.606  -6.865  0.00  0.00    -0.227 N 
HETATM    9  H           1     -23.924  -4.442  -6.284  0.00  0.00     0.177 HD
HETATM   10  C           1     -23.026  -4.208  -8.066  0.00  0.00     0.665 C 
HETATM   11  N           1     -24.050  -3.595  -8.581  0.00  0.00    -0.235 N 
HETATM   12  N           1     -21.990  -4.406  -8.766  0.00  0.00    -0.235 N 
HETATM   13  H           1     -24.019  -3.266  -9.572  0.00  0.00     0.174 HD
HETATM   14  H           1     -24.906  -3.431  -8.003  0.00  0.00     0.174 HD
HETATM   15  H           1     -21.957  -4.076  -9.762  0.00  0.00     0.174 HD
HETATM   16  H           1     -21.162  -4.901  -8.350  0.00  0.00     0.174 HD
ENDBRANCH   7   8
ENDBRANCH   6   7
ENDBRANCH   5   6
ENDBRANCH   1   5
BRANCH   1  17
HETATM   17  N           1     -21.071  -8.479  -2.777  0.00  0.00    -0.345 N 
HETATM   18  H           1     -20.596  -7.933  -2.070  0.00  0.00     0.163 HD
HETATM   19  C           1     -21.756  -9.611  -2.425  0.00  0.00     0.249 C 
HETATM   20  O           1     -22.321 -10.263  -3.270  0.00  0.00    -0.271 OA
BRANCH  19  21
HETATM   21  C           1     -21.804 -10.045  -0.980  0.00  0.00     0.284 C 
BRANCH  21  22
HETATM   22  C           1     -23.028  -9.438  -0.307  0.00  0.00     0.155 C 
BRANCH  22  23
HETATM   23  C           1     -22.691  -8.059   0.203  0.00  0.00     0.175 C 
HETATM   24  O           1     -22.304  -7.906   1.381  0.00  0.00    -0.648 OA
HETATM   25  O           1     -22.798  -7.069  -0.554  0.00  0.00    -0.648 OA
ENDBRANCH  22  23
ENDBRANCH  21  22
BRANCH  21  26
HETATM   26  N           1     -20.564  -9.575  -0.277  0.00  0.00    -0.066 N 
HETATM   27  H           1     -20.831  -9.059   0.592  0.00  0.00     0.275 HD
HETATM   28  H           1     -19.974 -10.400  -0.025  0.00  0.00     0.275 HD
HETATM   29  H           1     -20.026  -8.940  -0.908  0.00  0.00     0.275 HD
ENDBRANCH  21  26
ENDBRANCH  19  21
ENDBRANCH   1  17
TORSDOF 10
ENDMDL
