MODEL 1
REMARK VINA RESULT:      -6.6      0.000      0.000
REMARK  8 active torsions:
REMARK  status: ('A' for Active; 'I' for Inactive)
REMARK    1  A    between atoms: N_5  and  C_11 
REMARK       I    between atoms: N_5  and  C_19 
REMARK    2  A    between atoms: C_6  and  C_11 
REMARK    3  A    between atoms: O_9  and  C_10 
REMARK    4  A    between atoms: C_10  and  C_22 
REMARK    5  A    between atoms: C_11  and  C_15 
REMARK    6  A    between atoms: C_12  and  C_15 
REMARK    7  A    between atoms: C_19  and  C_22 
REMARK    8  A    between atoms: C_22  and  N_23 
ROOT
HETATM    1  N           1     -33.940  -2.489 -10.616  0.00  0.00    -0.344 N 
HETATM    2  O           1     -32.570  -3.713 -11.884  0.00  0.00    -0.271 OA
HETATM    3  C           1     -33.609  -3.643 -11.274  0.00  0.00     0.251 C 
HETATM    4  H           1     -33.660  -2.357  -9.652  0.00  0.00     0.163 HD
ENDROOT
BRANCH   1   5
HETATM    5  C           1     -34.692  -1.454 -11.300  0.00  0.00     0.191 C 
BRANCH   5   6
HETATM    6  C           1     -36.018  -1.255 -10.607  0.00  0.00     0.197 C 
HETATM    7  O           1     -36.903  -2.135 -10.687  0.00  0.00    -0.646 OA
HETATM    8  O           1     -36.231  -0.211  -9.954  0.00  0.00    -0.646 OA
ENDBRANCH   5   6
BRANCH   5   9
HETATM    9  C           1     -34.932  -1.874 -12.745  0.00  0.00     0.094 C 
BRANCH   9  10
HETATM   10  C           1     -35.341  -0.679 -13.550  0.00  0.00     0.028 A 
HETATM   11  C           1     -36.620  -0.430 -13.986  0.00  0.00     0.114 A 
HETATM   12  N           1     -36.537   0.751 -14.672  0.00  0.00    -0.360 N 
HETATM   13  H           1     -37.329   1.250 -15.147  0.00  0.00     0.166 HD
HETATM   14  C           1     -35.236   1.163 -14.622  0.00  0.00     0.180 A 
HETATM   15  N           1     -34.488   0.318 -13.950  0.00  0.00    -0.354 N 
ATOM     16  HN          1     -33.487   0.388 -13.766  1.00  0.00     0.166 HD
ENDBRANCH   9  10
ENDBRANCH   5   9
ENDBRANCH   1   5
BRANCH   3  17
HETATM   17  C           1     -34.545  -4.826 -11.236  0.00  0.00     0.302 C 
BRANCH  17  18
HETATM   18  C           1     -33.905  -5.953 -10.436  0.00  0.00     0.153 C 
HETATM   19  C           1     -34.973  -6.964 -10.041  0.00  0.00     0.042 C 
BRANCH  18  20
HETATM   20  O           1     -32.929  -6.588 -11.218  0.00  0.00    -0.393 OA
HETATM   21  H           1     -33.193  -7.488 -11.308  0.00  0.00     0.210 HD
ENDBRANCH  18  20
ENDBRANCH  17  18
BRANCH  17  22
HETATM   22  N           1     -34.813  -5.297 -12.635  0.00  0.00    -0.064 N 
HETATM   23  H           1     -34.844  -6.341 -12.651  0.00  0.00     0.275 HD
HETATM   24  H           1     -34.051  -4.961 -13.267  0.00  0.00     0.275 HD
HETATM   25  H           1     -35.730  -4.916 -12.960  0.00  0.00     0.275 HD
ENDBRANCH  17  22
ENDBRANCH   3  17
TORSDOF 8
ENDMDL
MODEL 2
REMARK VINA RESULT:      -6.5      2.335      5.851
REMARK  8 active torsions:
REMARK  status: ('A' for Active; 'I' for Inactive)
REMARK    1  A    between atoms: N_5  and  C_11 
REMARK       I    between atoms: N_5  and  C_19 
REMARK    2  A    between atoms: C_6  and  C_11 
REMARK    3  A    between atoms: O_9  and  C_10 
REMARK    4  A    between atoms: C_10  and  C_22 
REMARK    5  A    between atoms: C_11  and  C_15 
REMARK    6  A    between atoms: C_12  and  C_15 
REMARK    7  A    between atoms: C_19  and  C_22 
REMARK    8  A    between atoms: C_22  and  N_23 
ROOT
HETATM    1  N           1     -34.740  -1.442 -12.655  0.00  0.00    -0.344 N 
HETATM    2  O           1     -35.134   0.755 -12.587  0.00  0.00    -0.271 OA
HETATM    3  C           1     -35.405  -0.319 -13.068  0.00  0.00     0.251 C 
HETATM    4  H           1     -33.892  -1.730 -13.127  0.00  0.00     0.163 HD
ENDROOT
BRANCH   1   5
HETATM    5  C           1     -35.250  -2.219 -11.543  0.00  0.00     0.191 C 
BRANCH   5   6
HETATM    6  C           1     -36.207  -1.375 -10.737  0.00  0.00     0.197 C 
HETATM    7  O           1     -37.429  -1.387 -11.005  0.00  0.00    -0.646 OA
HETATM    8  O           1     -35.780  -0.665  -9.801  0.00  0.00    -0.646 OA
ENDBRANCH   5   6
BRANCH   5   9
HETATM    9  C           1     -34.091  -2.658 -10.657  0.00  0.00     0.094 C 
BRANCH   9  10
HETATM   10  C           1     -33.812  -4.112 -10.885  0.00  0.00     0.028 A 
HETATM   11  C           1     -32.786  -4.599 -11.657  0.00  0.00     0.114 A 
HETATM   12  N           1     -32.905  -5.960 -11.587  0.00  0.00    -0.360 N 
HETATM   13  H           1     -32.284  -6.663 -12.059  0.00  0.00     0.166 HD
HETATM   14  C           1     -33.978  -6.237 -10.789  0.00  0.00     0.180 A 
HETATM   15  N           1     -34.547  -5.138 -10.349  0.00  0.00    -0.354 N 
ATOM     16  HN          1     -35.362  -5.064  -9.740  1.00  0.00     0.166 HD
ENDBRANCH   9  10
ENDBRANCH   5   9
ENDBRANCH   1   5
BRANCH   3  17
HETATM   17  C           1     -36.478  -0.424 -14.124  0.00  0.00     0.302 C 
BRANCH  17  18
HETATM   18  C           1     -36.001   0.259 -15.400  0.00  0.00     0.153 C 
HETATM   19  C           1     -35.782  -0.790 -16.483  0.00  0.00     0.042 C 
BRANCH  18  20
HETATM   20  O           1     -36.970   1.177 -15.830  0.00  0.00    -0.393 OA
HETATM   21  H           1     -37.571   1.295 -15.114  0.00  0.00     0.210 HD
ENDBRANCH  18  20
ENDBRANCH  17  18
BRANCH  17  22
HETATM   22  N           1     -37.728   0.246 -13.636  0.00  0.00    -0.064 N 
HETATM   23  H           1     -38.529  -0.422 -13.699  0.00  0.00     0.275 HD
HETATM   24  H           1     -37.926   1.085 -14.227  0.00  0.00     0.275 HD
HETATM   25  H           1     -37.598   0.542 -12.642  0.00  0.00     0.275 HD
ENDBRANCH  17  22
ENDBRANCH   3  17
TORSDOF 8
ENDMDL
MODEL 3
REMARK VINA RESULT:      -6.5     11.650     13.149
REMARK  8 active torsions:
REMARK  status: ('A' for Active; 'I' for Inactive)
REMARK    1  A    between atoms: N_5  and  C_11 
REMARK       I    between atoms: N_5  and  C_19 
REMARK    2  A    between atoms: C_6  and  C_11 
REMARK    3  A    between atoms: O_9  and  C_10 
REMARK    4  A    between atoms: C_10  and  C_22 
REMARK    5  A    between atoms: C_11  and  C_15 
REMARK    6  A    between atoms: C_12  and  C_15 
REMARK    7  A    between atoms: C_19  and  C_22 
REMARK    8  A    between atoms: C_22  and  N_23 
ROOT
HETATM    1  N           1     -22.999  -4.111  -7.769  0.00  0.00    -0.344 N 
HETATM    2  O           1     -21.138  -3.371  -6.782  0.00  0.00    -0.271 OA
HETATM    3  C           1     -21.726  -4.290  -7.300  0.00  0.00     0.251 C 
HETATM    4  H           1     -23.791  -4.280  -7.162  0.00  0.00     0.163 HD
ENDROOT
BRANCH   1   5
HETATM    5  C           1     -23.214  -3.680  -9.137  0.00  0.00     0.191 C 
BRANCH   5   6
HETATM    6  C           1     -24.688  -3.735  -9.456  0.00  0.00     0.197 C 
HETATM    7  O           1     -25.240  -4.837  -9.668  0.00  0.00    -0.646 OA
HETATM    8  O           1     -25.357  -2.681  -9.508  0.00  0.00    -0.646 OA
ENDBRANCH   5   6
BRANCH   5   9
HETATM    9  C           1     -22.454  -4.600 -10.084  0.00  0.00     0.094 C 
BRANCH   9  10
HETATM   10  C           1     -22.634  -4.124 -11.492  0.00  0.00     0.028 A 
HETATM   11  C           1     -21.828  -3.202 -12.115  0.00  0.00     0.114 A 
HETATM   12  N           1     -22.349  -3.067 -13.373  0.00  0.00    -0.360 N 
HETATM   13  H           1     -21.986  -2.441 -14.132  0.00  0.00     0.166 HD
HETATM   14  C           1     -23.430  -3.898 -13.460  0.00  0.00     0.180 A 
HETATM   15  N           1     -23.627  -4.550 -12.337  0.00  0.00    -0.354 N 
ATOM     16  HN          1     -24.362  -5.229 -12.136  1.00  0.00     0.166 HD
ENDBRANCH   9  10
ENDBRANCH   5   9
ENDBRANCH   1   5
BRANCH   3  17
HETATM   17  C           1     -21.057  -5.637  -7.430  0.00  0.00     0.302 C 
BRANCH  17  18
HETATM   18  C           1     -21.474  -6.525  -6.265  0.00  0.00     0.153 C 
HETATM   19  C           1     -20.231  -7.037  -5.549  0.00  0.00     0.042 C 
BRANCH  18  20
HETATM   20  O           1     -22.257  -5.784  -5.368  0.00  0.00    -0.393 OA
HETATM   21  H           1     -23.112  -6.182  -5.358  0.00  0.00     0.210 HD
ENDBRANCH  18  20
ENDBRANCH  17  18
BRANCH  17  22
HETATM   22  N           1     -19.568  -5.459  -7.415  0.00  0.00    -0.064 N 
HETATM   23  H           1     -19.116  -6.260  -7.912  0.00  0.00     0.275 HD
HETATM   24  H           1     -19.231  -5.428  -6.426  0.00  0.00     0.275 HD
HETATM   25  H           1     -19.319  -4.565  -7.897  0.00  0.00     0.275 HD
ENDBRANCH  17  22
ENDBRANCH   3  17
TORSDOF 8
ENDMDL
MODEL 4
REMARK VINA RESULT:      -6.4     10.290     11.943
REMARK  8 active torsions:
REMARK  status: ('A' for Active; 'I' for Inactive)
REMARK    1  A    between atoms: N_5  and  C_11 
REMARK       I    between atoms: N_5  and  C_19 
REMARK    2  A    between atoms: C_6  and  C_11 
REMARK    3  A    between atoms: O_9  and  C_10 
REMARK    4  A    between atoms: C_10  and  C_22 
REMARK    5  A    between atoms: C_11  and  C_15 
REMARK    6  A    between atoms: C_12  and  C_15 
REMARK    7  A    between atoms: C_19  and  C_22 
REMARK    8  A    between atoms: C_22  and  N_23 
ROOT
HETATM    1  N           1     -26.779  -6.064 -17.700  0.00  0.00    -0.344 N 
HETATM    2  O           1     -28.300  -5.932 -16.072  0.00  0.00    -0.271 OA
HETATM    3  C           1     -27.994  -6.374 -17.153  0.00  0.00     0.251 C 
HETATM    4  H           1     -26.683  -5.247 -18.291  0.00  0.00     0.163 HD
ENDROOT
BRANCH   1   5
HETATM    5  C           1     -25.627  -6.904 -17.435  0.00  0.00     0.191 C 
BRANCH   5   6
HETATM    6  C           1     -25.102  -6.615 -16.050  0.00  0.00     0.197 C 
HETATM    7  O           1     -24.818  -7.558 -15.279  0.00  0.00    -0.646 OA
HETATM    8  O           1     -24.951  -5.433 -15.673  0.00  0.00    -0.646 OA
ENDBRANCH   5   6
BRANCH   5   9
HETATM    9  C           1     -24.540  -6.614 -18.461  0.00  0.00     0.094 C 
BRANCH   9  10
HETATM   10  C           1     -24.845  -7.347 -19.731  0.00  0.00     0.028 A 
HETATM   11  C           1     -23.900  -7.913 -20.552  0.00  0.00     0.114 A 
HETATM   12  N           1     -24.612  -8.468 -21.580  0.00  0.00    -0.360 N 
HETATM   13  H           1     -24.215  -8.990 -22.400  0.00  0.00     0.166 HD
HETATM   14  C           1     -25.934  -8.221 -21.344  0.00  0.00     0.180 A 
HETATM   15  N           1     -26.106  -7.544 -20.232  0.00  0.00    -0.354 N 
ATOM     16  HN          1     -26.989  -7.231 -19.827  1.00  0.00     0.166 HD
ENDBRANCH   9  10
ENDBRANCH   5   9
ENDBRANCH   1   5
BRANCH   3  17
HETATM   17  C           1     -28.951  -7.271 -17.901  0.00  0.00     0.302 C 
BRANCH  17  18
HETATM   18  C           1     -30.175  -6.468 -18.320  0.00  0.00     0.153 C 
HETATM   19  C           1     -31.319  -6.749 -17.356  0.00  0.00     0.042 C 
BRANCH  18  20
HETATM   20  O           1     -29.869  -5.100 -18.296  0.00  0.00    -0.393 OA
HETATM   21  H           1     -30.078  -4.757 -19.149  0.00  0.00     0.210 HD
ENDBRANCH  18  20
ENDBRANCH  17  18
BRANCH  17  22
HETATM   22  N           1     -29.376  -8.401 -17.011  0.00  0.00    -0.064 N 
HETATM   23  H           1     -28.640  -8.572 -16.288  0.00  0.00     0.275 HD
HETATM   24  H           1     -29.508  -9.265 -17.584  0.00  0.00     0.275 HD
HETATM   25  H           1     -30.275  -8.153 -16.540  0.00  0.00     0.275 HD
ENDBRANCH  17  22
ENDBRANCH   3  17
TORSDOF 8
ENDMDL
MODEL 5
REMARK VINA RESULT:      -6.3     11.332     13.636
REMARK  8 active torsions:
REMARK  status: ('A' for Active; 'I' for Inactive)
REMARK    1  A    between atoms: N_5  and  C_11 
REMARK       I    between atoms: N_5  and  C_19 
REMARK    2  A    between atoms: C_6  and  C_11 
REMARK    3  A    between atoms: O_9  and  C_10 
REMARK    4  A    between atoms: C_10  and  C_22 
REMARK    5  A    between atoms: C_11  and  C_15 
REMARK    6  A    between atoms: C_12  and  C_15 
REMARK    7  A    between atoms: C_19  and  C_22 
REMARK    8  A    between atoms: C_22  and  N_23 
ROOT
HETATM    1  N           1     -23.253  -2.734 -10.707  0.00  0.00    -0.344 N 
HETATM    2  O           1     -24.766  -2.878 -12.343  0.00  0.00    -0.271 OA
HETATM    3  C           1     -23.606  -2.765 -12.029  0.00  0.00     0.251 C 
HETATM    4  H           1     -23.207  -1.850 -10.216  0.00  0.00     0.163 HD
ENDROOT
BRANCH   1   5
HETATM    5  C           1     -22.945  -3.968 -10.010  0.00  0.00     0.191 C 
BRANCH   5   6
HETATM    6  C           1     -24.099  -4.930 -10.156  0.00  0.00     0.197 C 
HETATM    7  O           1     -23.967  -5.963 -10.847  0.00  0.00    -0.646 OA
HETATM    8  O           1     -25.186  -4.694  -9.586  0.00  0.00    -0.646 OA
ENDBRANCH   5   6
BRANCH   5   9
HETATM    9  C           1     -22.715  -3.671  -8.533  0.00  0.00     0.094 C 
BRANCH   9  10
HETATM   10  C           1     -21.716  -4.641  -7.980  0.00  0.00     0.028 A 
HETATM   11  C           1     -20.508  -4.936  -8.564  0.00  0.00     0.114 A 
HETATM   12  N           1     -19.929  -5.856  -7.733  0.00  0.00    -0.360 N 
HETATM   13  H           1     -18.992  -6.309  -7.864  0.00  0.00     0.166 HD
HETATM   14  C           1     -20.793  -6.075  -6.698  0.00  0.00     0.180 A 
HETATM   15  N           1     -21.884  -5.353  -6.821  0.00  0.00    -0.354 N 
ATOM     16  HN          1     -22.684  -5.329  -6.189  1.00  0.00     0.166 HD
ENDBRANCH   9  10
ENDBRANCH   5   9
ENDBRANCH   1   5
BRANCH   3  17
HETATM   17  C           1     -22.542  -2.659 -13.095  0.00  0.00     0.302 C 
BRANCH  17  18
HETATM   18  C           1     -23.197  -2.704 -14.470  0.00  0.00     0.153 C 
HETATM   19  C           1     -23.572  -1.292 -14.899  0.00  0.00     0.042 C 
BRANCH  18  20
HETATM   20  O           1     -22.299  -3.251 -15.398  0.00  0.00    -0.393 OA
HETATM   21  H           1     -21.971  -4.051 -15.023  0.00  0.00     0.210 HD
ENDBRANCH  18  20
ENDBRANCH  17  18
BRANCH  17  22
HETATM   22  N           1     -21.584  -3.805 -12.961  0.00  0.00    -0.064 N 
HETATM   23  H           1     -20.628  -3.496 -13.251  0.00  0.00     0.275 HD
HETATM   24  H           1     -21.896  -4.594 -13.570  0.00  0.00     0.275 HD
HETATM   25  H           1     -21.559  -4.122 -11.965  0.00  0.00     0.275 HD
ENDBRANCH  17  22
ENDBRANCH   3  17
TORSDOF 8
ENDMDL
MODEL 6
REMARK VINA RESULT:      -6.0     12.953     14.597
REMARK  8 active torsions:
REMARK  status: ('A' for Active; 'I' for Inactive)
REMARK    1  A    between atoms: N_5  and  C_11 
REMARK       I    between atoms: N_5  and  C_19 
REMARK    2  A    between atoms: C_6  and  C_11 
REMARK    3  A    between atoms: O_9  and  C_10 
REMARK    4  A    between atoms: C_10  and  C_22 
REMARK    5  A    between atoms: C_11  and  C_15 
REMARK    6  A    between atoms: C_12  and  C_15 
REMARK    7  A    between atoms: C_19  and  C_22 
REMARK    8  A    between atoms: C_22  and  N_23 
ROOT
HETATM    1  N           1     -22.173  -5.019  -6.667  0.00  0.00    -0.344 N 
HETATM    2  O           1     -20.475  -4.937  -5.219  0.00  0.00    -0.271 OA
HETATM    3  C           1     -21.309  -5.605  -5.781  0.00  0.00     0.251 C 
HETATM    4  H           1     -23.057  -4.648  -6.341  0.00  0.00     0.163 HD
ENDROOT
BRANCH   1   5
HETATM    5  C           1     -21.822  -4.930  -8.071  0.00  0.00     0.191 C 
BRANCH   5   6
HETATM    6  C           1     -20.321  -4.854  -8.211  0.00  0.00     0.197 C 
HETATM    7  O           1     -19.652  -5.904  -8.332  0.00  0.00    -0.646 OA
HETATM    8  O           1     -19.748  -3.744  -8.205  0.00  0.00    -0.646 OA
ENDBRANCH   5   6
BRANCH   5   9
HETATM    9  C           1     -22.451  -3.679  -8.672  0.00  0.00     0.094 C 
BRANCH   9  10
HETATM   10  C           1     -22.606  -3.860 -10.150  0.00  0.00     0.028 A 
HETATM   11  C           1     -23.418  -4.797 -10.742  0.00  0.00     0.114 A 
HETATM   12  N           1     -23.253  -4.610 -12.088  0.00  0.00    -0.360 N 
HETATM   13  H           1     -23.723  -5.153 -12.853  0.00  0.00     0.166 HD
HETATM   14  C           1     -22.365  -3.585 -12.253  0.00  0.00     0.180 A 
HETATM   15  N           1     -21.956  -3.112 -11.098  0.00  0.00    -0.354 N 
ATOM     16  HN          1     -21.295  -2.350 -10.940  1.00  0.00     0.166 HD
ENDBRANCH   9  10
ENDBRANCH   5   9
ENDBRANCH   1   5
BRANCH   3  17
HETATM   17  C           1     -21.399  -7.087  -5.509  0.00  0.00     0.302 C 
BRANCH  17  18
HETATM   18  C           1     -21.855  -7.312  -4.073  0.00  0.00     0.153 C 
HETATM   19  C           1     -20.696  -7.868  -3.256  0.00  0.00     0.042 C 
BRANCH  18  20
HETATM   20  O           1     -22.275  -6.094  -3.519  0.00  0.00    -0.393 OA
HETATM   21  H           1     -22.462  -6.257  -2.609  0.00  0.00     0.210 HD
ENDBRANCH  18  20
ENDBRANCH  17  18
BRANCH  17  22
HETATM   22  N           1     -20.052  -7.715  -5.710  0.00  0.00    -0.064 N 
HETATM   23  H           1     -20.169  -8.664  -6.131  0.00  0.00     0.275 HD
HETATM   24  H           1     -19.566  -7.799  -4.788  0.00  0.00     0.275 HD
HETATM   25  H           1     -19.482  -7.118  -6.351  0.00  0.00     0.275 HD
ENDBRANCH  17  22
ENDBRANCH   3  17
TORSDOF 8
ENDMDL
MODEL 7
REMARK VINA RESULT:      -5.6     13.981     15.997
REMARK  8 active torsions:
REMARK  status: ('A' for Active; 'I' for Inactive)
REMARK    1  A    between atoms: N_5  and  C_11 
REMARK       I    between atoms: N_5  and  C_19 
REMARK    2  A    between atoms: C_6  and  C_11 
REMARK    3  A    between atoms: O_9  and  C_10 
REMARK    4  A    between atoms: C_10  and  C_22 
REMARK    5  A    between atoms: C_11  and  C_15 
REMARK    6  A    between atoms: C_12  and  C_15 
REMARK    7  A    between atoms: C_19  and  C_22 
REMARK    8  A    between atoms: C_22  and  N_23 
ROOT
HETATM    1  N           1     -22.403  -6.346  -4.234  0.00  0.00    -0.344 N 
HETATM    2  O           1     -20.980  -5.609  -2.680  0.00  0.00    -0.271 OA
HETATM    3  C           1     -21.582  -6.540  -3.156  0.00  0.00     0.251 C 
HETATM    4  H           1     -23.379  -6.116  -4.093  0.00  0.00     0.163 HD
ENDROOT
BRANCH   1   5
HETATM    5  C           1     -21.876  -6.469  -5.579  0.00  0.00     0.191 C 
BRANCH   5   6
HETATM    6  C           1     -20.985  -7.686  -5.660  0.00  0.00     0.197 C 
HETATM    7  O           1     -21.491  -8.822  -5.786  0.00  0.00    -0.646 OA
HETATM    8  O           1     -19.744  -7.557  -5.602  0.00  0.00    -0.646 OA
ENDBRANCH   5   6
BRANCH   5   9
HETATM    9  C           1     -21.067  -5.225  -5.923  0.00  0.00     0.094 C 
BRANCH   9  10
HETATM   10  C           1     -21.506  -4.698  -7.255  0.00  0.00     0.028 A 
HETATM   11  C           1     -20.758  -4.764  -8.406  0.00  0.00     0.114 A 
HETATM   12  N           1     -21.532  -4.172  -9.366  0.00  0.00    -0.360 N 
HETATM   13  H           1     -21.279  -4.044 -10.377  0.00  0.00     0.166 HD
HETATM   14  C           1     -22.697  -3.781  -8.769  0.00  0.00     0.180 A 
HETATM   15  N           1     -22.709  -4.085  -7.492  0.00  0.00    -0.354 N 
ATOM     16  HN          1     -23.455  -3.905  -6.819  1.00  0.00     0.166 HD
ENDBRANCH   9  10
ENDBRANCH   5   9
ENDBRANCH   1   5
BRANCH   3  17
HETATM   17  C           1     -21.431  -7.920  -2.564  0.00  0.00     0.302 C 
BRANCH  17  18
HETATM   18  C           1     -22.146  -7.976  -1.220  0.00  0.00     0.153 C 
HETATM   19  C           1     -21.140  -8.309  -0.125  0.00  0.00     0.042 C 
BRANCH  18  20
HETATM   20  O           1     -22.734  -6.732  -0.950  0.00  0.00    -0.393 OA
HETATM   21  H           1     -22.484  -6.153  -1.651  0.00  0.00     0.210 HD
ENDBRANCH  18  20
ENDBRANCH  17  18
BRANCH  17  22
HETATM   22  N           1     -19.975  -8.223  -2.368  0.00  0.00    -0.064 N 
HETATM   23  H           1     -19.698  -7.986  -1.388  0.00  0.00     0.275 HD
HETATM   24  H           1     -19.408  -7.655  -3.037  0.00  0.00     0.275 HD
HETATM   25  H           1     -19.805  -9.240  -2.542  0.00  0.00     0.275 HD
ENDBRANCH  17  22
ENDBRANCH   3  17
TORSDOF 8
ENDMDL
MODEL 8
REMARK VINA RESULT:      -5.6     14.062     16.796
REMARK  8 active torsions:
REMARK  status: ('A' for Active; 'I' for Inactive)
REMARK    1  A    between atoms: N_5  and  C_11 
REMARK       I    between atoms: N_5  and  C_19 
REMARK    2  A    between atoms: C_6  and  C_11 
REMARK    3  A    between atoms: O_9  and  C_10 
REMARK    4  A    between atoms: C_10  and  C_22 
REMARK    5  A    between atoms: C_11  and  C_15 
REMARK    6  A    between atoms: C_12  and  C_15 
REMARK    7  A    between atoms: C_19  and  C_22 
REMARK    8  A    between atoms: C_22  and  N_23 
ROOT
HETATM    1  N           1     -20.128  -6.765  -6.746  0.00  0.00    -0.344 N 
HETATM    2  O           1     -19.190  -4.757  -7.021  0.00  0.00    -0.271 OA
HETATM    3  C           1     -20.197  -5.424  -7.013  0.00  0.00     0.251 C 
HETATM    4  H           1     -20.000  -7.426  -7.502  0.00  0.00     0.163 HD
ENDROOT
BRANCH   1   5
HETATM    5  C           1     -20.238  -7.239  -5.380  0.00  0.00     0.191 C 
BRANCH   5   6
HETATM    6  C           1     -19.671  -8.634  -5.285  0.00  0.00     0.197 C 
HETATM    7  O           1     -18.590  -8.830  -4.688  0.00  0.00    -0.646 OA
HETATM    8  O           1     -20.283  -9.594  -5.801  0.00  0.00    -0.646 OA
ENDBRANCH   5   6
BRANCH   5   9
HETATM    9  C           1     -21.703  -7.256  -4.966  0.00  0.00     0.094 C 
BRANCH   9  10
HETATM   10  C           1     -21.803  -7.115  -3.479  0.00  0.00     0.028 A 
HETATM   11  C           1     -21.406  -8.071  -2.575  0.00  0.00     0.114 A 
HETATM   12  N           1     -21.675  -7.530  -1.347  0.00  0.00    -0.360 N 
HETATM   13  H           1     -21.499  -7.983  -0.416  0.00  0.00     0.166 HD
HETATM   14  C           1     -22.212  -6.292  -1.553  0.00  0.00     0.180 A 
HETATM   15  N           1     -22.303  -6.013  -2.833  0.00  0.00    -0.354 N 
ATOM     16  HN          1     -22.667  -5.160  -3.257  1.00  0.00     0.166 HD
ENDBRANCH   9  10
ENDBRANCH   5   9
ENDBRANCH   1   5
BRANCH   3  17
HETATM   17  C           1     -21.532  -4.780  -7.298  0.00  0.00     0.302 C 
BRANCH  17  18
HETATM   18  C           1     -21.842  -4.893  -8.785  0.00  0.00     0.153 C 
HETATM   19  C           1     -22.941  -3.903  -9.148  0.00  0.00     0.042 C 
BRANCH  18  20
HETATM   20  O           1     -20.689  -4.603  -9.527  0.00  0.00    -0.393 OA
HETATM   21  H           1     -20.693  -3.674  -9.689  0.00  0.00     0.210 HD
ENDBRANCH  18  20
ENDBRANCH  17  18
BRANCH  17  22
HETATM   22  N           1     -21.483  -3.333  -6.906  0.00  0.00    -0.064 N 
HETATM   23  H           1     -21.152  -2.763  -7.717  0.00  0.00     0.275 HD
HETATM   24  H           1     -20.825  -3.212  -6.103  0.00  0.00     0.275 HD
HETATM   25  H           1     -22.439  -3.017  -6.625  0.00  0.00     0.275 HD
ENDBRANCH  17  22
ENDBRANCH   3  17
TORSDOF 8
ENDMDL
MODEL 9
REMARK VINA RESULT:      -5.5      2.736      5.425
REMARK  8 active torsions:
REMARK  status: ('A' for Active; 'I' for Inactive)
REMARK    1  A    between atoms: N_5  and  C_11 
REMARK       I    between atoms: N_5  and  C_19 
REMARK    2  A    between atoms: C_6  and  C_11 
REMARK    3  A    between atoms: O_9  and  C_10 
REMARK    4  A    between atoms: C_10  and  C_22 
REMARK    5  A    between atoms: C_11  and  C_15 
REMARK    6  A    between atoms: C_12  and  C_15 
REMARK    7  A    between atoms: C_19  and  C_22 
REMARK    8  A    between atoms: C_22  and  N_23 
ROOT
HETATM    1  N           1     -34.763  -1.344 -12.235  0.00  0.00    -0.344 N 
HETATM    2  O           1     -34.935   0.803 -12.822  0.00  0.00    -0.271 OA
HETATM    3  C           1     -35.353  -0.325 -12.931  0.00  0.00     0.251 C 
HETATM    4  H           1     -33.995  -1.860 -12.646  0.00  0.00     0.163 HD
ENDROOT
BRANCH   1   5
HETATM    5  C           1     -35.237  -1.685 -10.907  0.00  0.00     0.191 C 
BRANCH   5   6
HETATM    6  C           1     -35.025  -3.160 -10.662  0.00  0.00     0.197 C 
HETATM    7  O           1     -35.974  -3.960 -10.811  0.00  0.00    -0.646 OA
HETATM    8  O           1     -33.903  -3.580 -10.309  0.00  0.00    -0.646 OA
ENDBRANCH   5   6
BRANCH   5   9
HETATM    9  C           1     -36.721  -1.361 -10.801  0.00  0.00     0.094 C 
BRANCH   9  10
HETATM   10  C           1     -36.933  -0.348  -9.718  0.00  0.00     0.028 A 
HETATM   11  C           1     -36.816   1.011  -9.886  0.00  0.00     0.114 A 
HETATM   12  N           1     -37.091   1.544  -8.656  0.00  0.00    -0.360 N 
HETATM   13  H           1     -37.096   2.564  -8.408  0.00  0.00     0.166 HD
HETATM   14  C           1     -37.361   0.507  -7.810  0.00  0.00     0.180 A 
HETATM   15  N           1     -37.273  -0.651  -8.425  0.00  0.00    -0.354 N 
ATOM     16  HN          1     -37.424  -1.577  -8.025  1.00  0.00     0.166 HD
ENDBRANCH   9  10
ENDBRANCH   5   9
ENDBRANCH   1   5
BRANCH   3  17
HETATM   17  C           1     -36.526  -0.611 -13.836  0.00  0.00     0.302 C 
BRANCH  17  18
HETATM   18  C           1     -36.103  -0.429 -15.288  0.00  0.00     0.153 C 
HETATM   19  C           1     -36.647   0.893 -15.812  0.00  0.00     0.042 C 
BRANCH  18  20
HETATM   20  O           1     -34.703  -0.425 -15.371  0.00  0.00    -0.393 OA
HETATM   21  H           1     -34.473   0.147 -16.084  0.00  0.00     0.210 HD
ENDBRANCH  18  20
ENDBRANCH  17  18
BRANCH  17  22
HETATM   22  N           1     -37.645   0.338 -13.520  0.00  0.00    -0.064 N 
HETATM   23  H           1     -37.729   1.044 -14.285  0.00  0.00     0.275 HD
HETATM   24  H           1     -37.444   0.824 -12.617  0.00  0.00     0.275 HD
HETATM   25  H           1     -38.540  -0.196 -13.438  0.00  0.00     0.275 HD
ENDBRANCH  17  22
ENDBRANCH   3  17
TORSDOF 8
ENDMDL
