MODEL 1
REMARK VINA RESULT:      -6.5      0.000      0.000
REMARK  10 active torsions:
REMARK  status: ('A' for Active; 'I' for Inactive)
REMARK    1  A    between atoms: C_1  and  C_21 
REMARK    2  A    between atoms: C_1  and  C_2 
REMARK    3  A    between atoms: C_1  and  N_6 
REMARK    4  A    between atoms: C_2  and  C_3 
REMARK    5  A    between atoms: C_3  and  Se_4 
REMARK       I    between atoms: C_10  and  N_11 
REMARK    6  A    between atoms: C_10  and  C_12 
REMARK    7  A    between atoms: C_12  and  C_13 
REMARK    8  A    between atoms: C_13  and  C_14 
REMARK    9  A    between atoms: C_14  and  C_15 
REMARK   10  A    between atoms: C_14  and  N_20 
REMARK       I    between atoms: N_20  and  C_21 
ROOT
HETATM    1  O           1     -21.831  -3.421  -7.260  0.00  0.00    -0.271 OA
HETATM    2  N           1     -22.083  -4.776  -9.017  0.00  0.00    -0.345 N 
HETATM    3  C           1     -21.678  -4.522  -7.734  0.00  0.00     0.249 C 
HETATM    4  H           1     -21.955  -5.697  -9.415  0.00  0.00     0.163 HD
ENDROOT
BRANCH   2   5
HETATM    5  C           1     -22.695  -3.724  -9.806  0.00  0.00     0.186 C 
BRANCH   5   6
HETATM    6  C           1     -22.231  -3.840 -11.253  0.00  0.00     0.045 C 
BRANCH   6   7
HETATM    7  C           1     -22.551  -2.549 -11.994  0.00  0.00     0.105 C 
BRANCH   7   8
HETATM    8  C           1     -23.289  -2.872 -13.271  0.00  0.00     0.215 C 
HETATM    9  O           1     -24.493  -2.965 -13.266  0.00  0.00    -0.274 OA
HETATM   10  N           1     -22.592  -3.059 -14.434  0.00  0.00    -0.370 N 
HETATM   11  H           1     -21.583  -2.981 -14.438  0.00  0.00     0.159 HD
HETATM   12  H           1     -23.087  -3.275 -15.291  0.00  0.00     0.159 HD
ENDBRANCH   7   8
ENDBRANCH   6   7
ENDBRANCH   5   6
BRANCH   5  13
HETATM   13  C           1     -24.197  -3.861  -9.746  0.00  0.00     0.196 C 
HETATM   14  O           1     -24.905  -2.864  -9.488  0.00  0.00    -0.646 OA
HETATM   15  O           1     -24.731  -4.971  -9.954  0.00  0.00    -0.646 OA
ENDBRANCH   5  13
ENDBRANCH   2   5
BRANCH   3  16
HETATM   16  C           1     -21.040  -5.615  -6.913  0.00  0.00     0.274 C 
BRANCH  16  17
HETATM   17  C           1     -20.583  -5.047  -5.577  0.00  0.00     0.042 C 
BRANCH  17  18
HETATM   18  C           1     -21.203  -5.854  -4.443  0.00  0.00     0.003 C 
BRANCH  18  19
HETATM   19 Se           1     -21.617  -7.651  -5.075  0.00  0.00     0.000 Se
HETATM   20  C           1     -19.833  -8.357  -4.736  0.00  0.00     0.000 C 
ENDBRANCH  18  19
ENDBRANCH  17  18
ENDBRANCH  16  17
BRANCH  16  21
HETATM   21  N           1     -19.858  -6.170  -7.651  0.00  0.00    -0.067 N 
HETATM   22  H           1     -19.916  -7.214  -7.668  0.00  0.00     0.275 HD
HETATM   23  H           1     -19.858  -5.806  -8.630  0.00  0.00     0.275 HD
HETATM   24  H           1     -18.979  -5.877  -7.169  0.00  0.00     0.275 HD
ENDBRANCH  16  21
ENDBRANCH   3  16
TORSDOF 10
ENDMDL
MODEL 2
REMARK VINA RESULT:      -5.7      2.347      3.166
REMARK  10 active torsions:
REMARK  status: ('A' for Active; 'I' for Inactive)
REMARK    1  A    between atoms: C_1  and  C_21 
REMARK    2  A    between atoms: C_1  and  C_2 
REMARK    3  A    between atoms: C_1  and  N_6 
REMARK    4  A    between atoms: C_2  and  C_3 
REMARK    5  A    between atoms: C_3  and  Se_4 
REMARK       I    between atoms: C_10  and  N_11 
REMARK    6  A    between atoms: C_10  and  C_12 
REMARK    7  A    between atoms: C_12  and  C_13 
REMARK    8  A    between atoms: C_13  and  C_14 
REMARK    9  A    between atoms: C_14  and  C_15 
REMARK   10  A    between atoms: C_14  and  N_20 
REMARK       I    between atoms: N_20  and  C_21 
ROOT
HETATM    1  O           1     -20.939  -6.847  -7.126  0.00  0.00    -0.271 OA
HETATM    2  N           1     -21.886  -4.825  -7.121  0.00  0.00    -0.345 N 
HETATM    3  C           1     -21.388  -5.928  -6.482  0.00  0.00     0.249 C 
HETATM    4  H           1     -22.262  -4.055  -6.583  0.00  0.00     0.163 HD
ENDROOT
BRANCH   2   5
HETATM    5  C           1     -21.875  -4.759  -8.570  0.00  0.00     0.186 C 
BRANCH   5   6
HETATM    6  C           1     -23.083  -3.964  -9.051  0.00  0.00     0.045 C 
BRANCH   6   7
HETATM    7  C           1     -23.813  -4.752 -10.130  0.00  0.00     0.105 C 
BRANCH   7   8
HETATM    8  C           1     -23.891  -3.926 -11.391  0.00  0.00     0.215 C 
HETATM    9  O           1     -24.820  -3.172 -11.562  0.00  0.00    -0.274 OA
HETATM   10  N           1     -22.910  -4.031 -12.339  0.00  0.00    -0.370 N 
HETATM   11  H           1     -22.132  -4.662 -12.196  0.00  0.00     0.159 HD
HETATM   12  H           1     -22.962  -3.476 -13.185  0.00  0.00     0.159 HD
ENDBRANCH   7   8
ENDBRANCH   6   7
ENDBRANCH   5   6
BRANCH   5  13
HETATM   13  C           1     -20.608  -4.081  -9.032  0.00  0.00     0.196 C 
HETATM   14  O           1     -19.739  -3.748  -8.199  0.00  0.00    -0.646 OA
HETATM   15  O           1     -20.430  -3.854 -10.248  0.00  0.00    -0.646 OA
ENDBRANCH   5  13
ENDBRANCH   2   5
BRANCH   3  16
HETATM   16  C           1     -21.400  -5.997  -4.975  0.00  0.00     0.274 C 
BRANCH  16  17
HETATM   17  C           1     -20.551  -7.173  -4.513  0.00  0.00     0.042 C 
BRANCH  17  18
HETATM   18  C           1     -21.399  -8.108  -3.660  0.00  0.00     0.003 C 
BRANCH  18  19
HETATM   19 Se           1     -20.742  -8.086  -1.824  0.00  0.00     0.000 Se
HETATM   20  C           1     -22.181  -6.957  -1.151  0.00  0.00     0.000 C 
ENDBRANCH  18  19
ENDBRANCH  17  18
ENDBRANCH  16  17
BRANCH  16  21
HETATM   21  N           1     -22.809  -6.179  -4.494  0.00  0.00    -0.067 N 
HETATM   22  H           1     -23.297  -6.877  -5.099  0.00  0.00     0.275 HD
HETATM   23  H           1     -22.798  -6.520  -3.507  0.00  0.00     0.275 HD
HETATM   24  H           1     -23.313  -5.264  -4.541  0.00  0.00     0.275 HD
ENDBRANCH  16  21
ENDBRANCH   3  16
TORSDOF 10
ENDMDL
MODEL 3
REMARK VINA RESULT:      -5.6      3.928      7.962
REMARK  10 active torsions:
REMARK  status: ('A' for Active; 'I' for Inactive)
REMARK    1  A    between atoms: C_1  and  C_21 
REMARK    2  A    between atoms: C_1  and  C_2 
REMARK    3  A    between atoms: C_1  and  N_6 
REMARK    4  A    between atoms: C_2  and  C_3 
REMARK    5  A    between atoms: C_3  and  Se_4 
REMARK       I    between atoms: C_10  and  N_11 
REMARK    6  A    between atoms: C_10  and  C_12 
REMARK    7  A    between atoms: C_12  and  C_13 
REMARK    8  A    between atoms: C_13  and  C_14 
REMARK    9  A    between atoms: C_14  and  C_15 
REMARK   10  A    between atoms: C_14  and  N_20 
REMARK       I    between atoms: N_20  and  C_21 
ROOT
HETATM    1  O           1     -20.461  -4.316  -5.899  0.00  0.00    -0.271 OA
HETATM    2  N           1     -21.182  -6.399  -6.249  0.00  0.00    -0.345 N 
HETATM    3  C           1     -20.997  -5.102  -6.644  0.00  0.00     0.249 C 
HETATM    4  H           1     -21.631  -7.059  -6.872  0.00  0.00     0.163 HD
ENDROOT
BRANCH   2   5
HETATM    5  C           1     -20.736  -6.830  -4.937  0.00  0.00     0.186 C 
BRANCH   5   6
HETATM    6  C           1     -21.939  -6.973  -4.014  0.00  0.00     0.045 C 
BRANCH   6   7
HETATM    7  C           1     -21.700  -6.175  -2.740  0.00  0.00     0.105 C 
BRANCH   7   8
HETATM    8  C           1     -21.881  -7.074  -1.541  0.00  0.00     0.215 C 
HETATM    9  O           1     -22.714  -6.809  -0.707  0.00  0.00    -0.274 OA
HETATM   10  N           1     -21.100  -8.189  -1.400  0.00  0.00    -0.370 N 
HETATM   11  H           1     -20.403  -8.411  -2.098  0.00  0.00     0.159 HD
HETATM   12  H           1     -21.221  -8.793  -0.596  0.00  0.00     0.159 HD
ENDBRANCH   7   8
ENDBRANCH   6   7
ENDBRANCH   5   6
BRANCH   5  13
HETATM   13  C           1     -20.031  -8.158  -5.058  0.00  0.00     0.196 C 
HETATM   14  O           1     -20.270  -9.069  -4.237  0.00  0.00    -0.646 OA
HETATM   15  O           1     -19.208  -8.347  -5.980  0.00  0.00    -0.646 OA
ENDBRANCH   5  13
ENDBRANCH   2   5
BRANCH   3  16
HETATM   16  C           1     -21.461  -4.654  -8.008  0.00  0.00     0.274 C 
BRANCH  16  17
HETATM   17  C           1     -20.286  -4.069  -8.778  0.00  0.00     0.042 C 
BRANCH  17  18
HETATM   18  C           1     -20.307  -4.590 -10.210  0.00  0.00     0.003 C 
BRANCH  18  19
HETATM   19 Se           1     -21.319  -3.359 -11.333  0.00  0.00     0.000 Se
HETATM   20  C           1     -22.890  -4.506 -11.457  0.00  0.00     0.000 C 
ENDBRANCH  18  19
ENDBRANCH  17  18
ENDBRANCH  16  17
BRANCH  16  21
HETATM   21  N           1     -22.528  -3.611  -7.855  0.00  0.00    -0.067 N 
HETATM   22  H           1     -22.338  -2.819  -8.509  0.00  0.00     0.275 HD
HETATM   23  H           1     -23.459  -4.031  -8.077  0.00  0.00     0.275 HD
HETATM   24  H           1     -22.531  -3.258  -6.871  0.00  0.00     0.275 HD
ENDBRANCH  16  21
ENDBRANCH   3  16
TORSDOF 10
ENDMDL
MODEL 4
REMARK VINA RESULT:      -5.4      3.668      7.853
REMARK  10 active torsions:
REMARK  status: ('A' for Active; 'I' for Inactive)
REMARK    1  A    between atoms: C_1  and  C_21 
REMARK    2  A    between atoms: C_1  and  C_2 
REMARK    3  A    between atoms: C_1  and  N_6 
REMARK    4  A    between atoms: C_2  and  C_3 
REMARK    5  A    between atoms: C_3  and  Se_4 
REMARK       I    between atoms: C_10  and  N_11 
REMARK    6  A    between atoms: C_10  and  C_12 
REMARK    7  A    between atoms: C_12  and  C_13 
REMARK    8  A    between atoms: C_13  and  C_14 
REMARK    9  A    between atoms: C_14  and  C_15 
REMARK   10  A    between atoms: C_14  and  N_20 
REMARK       I    between atoms: N_20  and  C_21 
ROOT
HETATM    1  O           1     -21.240  -3.738  -7.426  0.00  0.00    -0.271 OA
HETATM    2  N           1     -22.159  -5.712  -6.931  0.00  0.00    -0.345 N 
HETATM    3  C           1     -22.056  -4.585  -7.702  0.00  0.00     0.249 C 
HETATM    4  H           1     -22.842  -6.422  -7.162  0.00  0.00     0.163 HD
ENDROOT
BRANCH   2   5
HETATM    5  C           1     -21.289  -5.888  -5.784  0.00  0.00     0.186 C 
BRANCH   5   6
HETATM    6  C           1     -22.102  -6.411  -4.607  0.00  0.00     0.045 C 
BRANCH   6   7
HETATM    7  C           1     -21.417  -6.022  -3.304  0.00  0.00     0.105 C 
BRANCH   7   8
HETATM    8  C           1     -21.708  -7.063  -2.251  0.00  0.00     0.215 C 
HETATM    9  O           1     -21.375  -8.211  -2.428  0.00  0.00    -0.274 OA
HETATM   10  N           1     -22.351  -6.707  -1.096  0.00  0.00    -0.370 N 
HETATM   11  H           1     -22.631  -5.746  -0.948  0.00  0.00     0.159 HD
HETATM   12  H           1     -22.546  -7.406  -0.389  0.00  0.00     0.159 HD
ENDBRANCH   7   8
ENDBRANCH   6   7
ENDBRANCH   5   6
BRANCH   5  13
HETATM   13  C           1     -20.202  -6.877  -6.126  0.00  0.00     0.196 C 
HETATM   14  O           1     -20.216  -8.020  -5.623  0.00  0.00    -0.646 OA
HETATM   15  O           1     -19.286  -6.551  -6.914  0.00  0.00    -0.646 OA
ENDBRANCH   5  13
ENDBRANCH   2   5
BRANCH   3  16
HETATM   16  C           1     -22.962  -4.401  -8.895  0.00  0.00     0.274 C 
BRANCH  16  17
HETATM   17  C           1     -22.226  -3.621  -9.976  0.00  0.00     0.042 C 
BRANCH  17  18
HETATM   18  C           1     -22.590  -4.182 -11.344  0.00  0.00     0.003 C 
BRANCH  18  19
HETATM   19 Se           1     -24.016  -3.110 -12.129  0.00  0.00     0.000 Se
HETATM   20  C           1     -23.106  -2.850 -13.833  0.00  0.00     0.000 C 
ENDBRANCH  18  19
ENDBRANCH  17  18
ENDBRANCH  16  17
BRANCH  16  21
HETATM   21  N           1     -24.189  -3.646  -8.480  0.00  0.00    -0.067 N 
HETATM   22  H           1     -24.335  -2.837  -9.124  0.00  0.00     0.275 HD
HETATM   23  H           1     -25.018  -4.280  -8.523  0.00  0.00     0.275 HD
HETATM   24  H           1     -24.068  -3.296  -7.502  0.00  0.00     0.275 HD
ENDBRANCH  16  21
ENDBRANCH   3  16
TORSDOF 10
ENDMDL
MODEL 5
REMARK VINA RESULT:      -5.1      5.047      8.296
REMARK  10 active torsions:
REMARK  status: ('A' for Active; 'I' for Inactive)
REMARK    1  A    between atoms: C_1  and  C_21 
REMARK    2  A    between atoms: C_1  and  C_2 
REMARK    3  A    between atoms: C_1  and  N_6 
REMARK    4  A    between atoms: C_2  and  C_3 
REMARK    5  A    between atoms: C_3  and  Se_4 
REMARK       I    between atoms: C_10  and  N_11 
REMARK    6  A    between atoms: C_10  and  C_12 
REMARK    7  A    between atoms: C_12  and  C_13 
REMARK    8  A    between atoms: C_13  and  C_14 
REMARK    9  A    between atoms: C_14  and  C_15 
REMARK   10  A    between atoms: C_14  and  N_20 
REMARK       I    between atoms: N_20  and  C_21 
ROOT
HETATM    1  O           1     -19.697  -7.908  -5.707  0.00  0.00    -0.271 OA
HETATM    2  N           1     -21.548  -8.127  -4.479  0.00  0.00    -0.345 N 
HETATM    3  C           1     -20.796  -7.491  -5.430  0.00  0.00     0.249 C 
HETATM    4  H           1     -22.469  -7.779  -4.247  0.00  0.00     0.163 HD
ENDROOT
BRANCH   2   5
HETATM    5  C           1     -21.025  -9.300  -3.806  0.00  0.00     0.186 C 
BRANCH   5   6
HETATM    6  C           1     -21.154  -9.118  -2.298  0.00  0.00     0.045 C 
BRANCH   6   7
HETATM    7  C           1     -20.762  -7.695  -1.924  0.00  0.00     0.105 C 
BRANCH   7   8
HETATM    8  C           1     -21.999  -6.911  -1.559  0.00  0.00     0.215 C 
HETATM    9  O           1     -22.415  -6.057  -2.305  0.00  0.00    -0.274 OA
HETATM   10  N           1     -22.650  -7.170  -0.383  0.00  0.00    -0.370 N 
HETATM   11  H           1     -22.302  -7.886   0.242  0.00  0.00     0.159 HD
HETATM   12  H           1     -23.480  -6.645  -0.138  0.00  0.00     0.159 HD
ENDBRANCH   7   8
ENDBRANCH   6   7
ENDBRANCH   5   6
BRANCH   5  13
HETATM   13  C           1     -21.808 -10.516  -4.235  0.00  0.00     0.196 C 
HETATM   14  O           1     -22.863 -10.822  -3.641  0.00  0.00    -0.646 OA
HETATM   15  O           1     -21.400 -11.217  -5.187  0.00  0.00    -0.646 OA
ENDBRANCH   5  13
ENDBRANCH   2   5
BRANCH   3  16
HETATM   16  C           1     -21.340  -6.270  -6.131  0.00  0.00     0.274 C 
BRANCH  16  17
HETATM   17  C           1     -20.309  -5.150  -6.074  0.00  0.00     0.042 C 
BRANCH  17  18
HETATM   18  C           1     -19.804  -4.853  -7.480  0.00  0.00     0.003 C 
BRANCH  18  19
HETATM   19 Se           1     -21.287  -4.238  -8.586  0.00  0.00     0.000 Se
HETATM   20  C           1     -20.350  -4.502 -10.275  0.00  0.00     0.000 C 
ENDBRANCH  18  19
ENDBRANCH  17  18
ENDBRANCH  16  17
BRANCH  16  21
HETATM   21  N           1     -22.601  -5.824  -5.452  0.00  0.00    -0.067 N 
HETATM   22  H           1     -22.502  -5.946  -4.419  0.00  0.00     0.275 HD
HETATM   23  H           1     -22.775  -4.817  -5.670  0.00  0.00     0.275 HD
HETATM   24  H           1     -23.403  -6.399  -5.797  0.00  0.00     0.275 HD
ENDBRANCH  16  21
ENDBRANCH   3  16
TORSDOF 10
ENDMDL
MODEL 6
REMARK VINA RESULT:      -4.9      5.949      8.188
REMARK  10 active torsions:
REMARK  status: ('A' for Active; 'I' for Inactive)
REMARK    1  A    between atoms: C_1  and  C_21 
REMARK    2  A    between atoms: C_1  and  C_2 
REMARK    3  A    between atoms: C_1  and  N_6 
REMARK    4  A    between atoms: C_2  and  C_3 
REMARK    5  A    between atoms: C_3  and  Se_4 
REMARK       I    between atoms: C_10  and  N_11 
REMARK    6  A    between atoms: C_10  and  C_12 
REMARK    7  A    between atoms: C_12  and  C_13 
REMARK    8  A    between atoms: C_13  and  C_14 
REMARK    9  A    between atoms: C_14  and  C_15 
REMARK   10  A    between atoms: C_14  and  N_20 
REMARK       I    between atoms: N_20  and  C_21 
ROOT
HETATM    1  O           1     -21.482 -10.848  -4.447  0.00  0.00    -0.271 OA
HETATM    2  N           1     -20.403  -9.044  -5.198  0.00  0.00    -0.345 N 
HETATM    3  C           1     -20.560 -10.399  -5.085  0.00  0.00     0.249 C 
HETATM    4  H           1     -19.631  -8.666  -5.732  0.00  0.00     0.163 HD
ENDROOT
BRANCH   2   5
HETATM    5  C           1     -21.344  -8.148  -4.552  0.00  0.00     0.186 C 
BRANCH   5   6
HETATM    6  C           1     -20.733  -7.617  -3.261  0.00  0.00     0.045 C 
BRANCH   6   7
HETATM    7  C           1     -21.552  -8.104  -2.073  0.00  0.00     0.105 C 
BRANCH   7   8
HETATM    8  C           1     -22.269  -6.936  -1.443  0.00  0.00     0.215 C 
HETATM    9  O           1     -22.869  -7.083  -0.404  0.00  0.00    -0.274 OA
HETATM   10  N           1     -22.241  -5.708  -2.048  0.00  0.00    -0.370 N 
HETATM   11  H           1     -21.739  -5.585  -2.918  0.00  0.00     0.159 HD
HETATM   12  H           1     -22.722  -4.924  -1.626  0.00  0.00     0.159 HD
ENDBRANCH   7   8
ENDBRANCH   6   7
ENDBRANCH   5   6
BRANCH   5  13
HETATM   13  C           1     -21.655  -6.996  -5.475  0.00  0.00     0.196 C 
HETATM   14  O           1     -21.140  -6.951  -6.612  0.00  0.00    -0.646 OA
HETATM   15  O           1     -22.428  -6.087  -5.101  0.00  0.00    -0.646 OA
ENDBRANCH   5  13
ENDBRANCH   2   5
BRANCH   3  16
HETATM   16  C           1     -19.581 -11.330  -5.756  0.00  0.00     0.274 C 
BRANCH  16  17
HETATM   17  C           1     -18.245 -10.623  -5.932  0.00  0.00     0.042 C 
BRANCH  17  18
HETATM   18  C           1     -17.137 -11.469  -5.317  0.00  0.00     0.003 C 
BRANCH  18  19
HETATM   19 Se           1     -17.338 -11.491  -3.378  0.00  0.00     0.000 Se
HETATM   20  C           1     -17.405  -9.551  -3.200  0.00  0.00     0.000 C 
ENDBRANCH  18  19
ENDBRANCH  17  18
ENDBRANCH  16  17
BRANCH  16  21
HETATM   21  N           1     -20.114 -11.733  -7.100  0.00  0.00    -0.067 N 
HETATM   22  H           1     -20.276 -10.879  -7.680  0.00  0.00     0.275 HD
HETATM   23  H           1     -19.422 -12.353  -7.576  0.00  0.00     0.275 HD
HETATM   24  H           1     -21.016 -12.246  -6.976  0.00  0.00     0.275 HD
ENDBRANCH  16  21
ENDBRANCH   3  16
TORSDOF 10
ENDMDL
MODEL 7
REMARK VINA RESULT:      -4.9      4.272      8.440
REMARK  10 active torsions:
REMARK  status: ('A' for Active; 'I' for Inactive)
REMARK    1  A    between atoms: C_1  and  C_21 
REMARK    2  A    between atoms: C_1  and  C_2 
REMARK    3  A    between atoms: C_1  and  N_6 
REMARK    4  A    between atoms: C_2  and  C_3 
REMARK    5  A    between atoms: C_3  and  Se_4 
REMARK       I    between atoms: C_10  and  N_11 
REMARK    6  A    between atoms: C_10  and  C_12 
REMARK    7  A    between atoms: C_12  and  C_13 
REMARK    8  A    between atoms: C_13  and  C_14 
REMARK    9  A    between atoms: C_14  and  C_15 
REMARK   10  A    between atoms: C_14  and  N_20 
REMARK       I    between atoms: N_20  and  C_21 
ROOT
HETATM    1  O           1     -20.542  -4.845  -5.362  0.00  0.00    -0.271 OA
HETATM    2  N           1     -21.436  -6.879  -5.574  0.00  0.00    -0.345 N 
HETATM    3  C           1     -21.338  -5.559  -5.923  0.00  0.00     0.249 C 
HETATM    4  H           1     -22.103  -7.478  -6.043  0.00  0.00     0.163 HD
ENDROOT
BRANCH   2   5
HETATM    5  C           1     -20.584  -7.419  -4.532  0.00  0.00     0.186 C 
BRANCH   5   6
HETATM    6  C           1     -21.421  -7.705  -3.291  0.00  0.00     0.045 C 
BRANCH   6   7
HETATM    7  C           1     -20.514  -7.760  -2.068  0.00  0.00     0.105 C 
BRANCH   7   8
HETATM    8  C           1     -21.320  -8.179  -0.863  0.00  0.00     0.215 C 
HETATM    9  O           1     -21.125  -9.255  -0.350  0.00  0.00    -0.274 OA
HETATM   10  N           1     -22.271  -7.338  -0.350  0.00  0.00    -0.370 N 
HETATM   11  H           1     -22.434  -6.437  -0.779  0.00  0.00     0.159 HD
HETATM   12  H           1     -22.811  -7.619   0.459  0.00  0.00     0.159 HD
ENDBRANCH   7   8
ENDBRANCH   6   7
ENDBRANCH   5   6
BRANCH   5  13
HETATM   13  C           1     -19.948  -8.698  -5.016  0.00  0.00     0.196 C 
HETATM   14  O           1     -18.728  -8.897  -4.833  0.00  0.00    -0.646 OA
HETATM   15  O           1     -20.641  -9.559  -5.601  0.00  0.00    -0.646 OA
ENDBRANCH   5  13
ENDBRANCH   2   5
BRANCH   3  16
HETATM   16  C           1     -22.224  -4.997  -7.007  0.00  0.00     0.274 C 
BRANCH  16  17
HETATM   17  C           1     -21.585  -3.743  -7.587  0.00  0.00     0.042 C 
BRANCH  17  18
HETATM   18  C           1     -21.089  -4.031  -8.998  0.00  0.00     0.003 C 
BRANCH  18  19
HETATM   19 Se           1     -22.613  -4.355 -10.169  0.00  0.00     0.000 Se
HETATM   20  C           1     -21.675  -3.846 -11.800  0.00  0.00     0.000 C 
ENDBRANCH  18  19
ENDBRANCH  17  18
ENDBRANCH  16  17
BRANCH  16  21
HETATM   21  N           1     -23.565  -4.654  -6.429  0.00  0.00    -0.067 N 
HETATM   22  H           1     -23.467  -3.839  -5.782  0.00  0.00     0.275 HD
HETATM   23  H           1     -24.224  -4.408  -7.202  0.00  0.00     0.275 HD
HETATM   24  H           1     -23.937  -5.476  -5.901  0.00  0.00     0.275 HD
ENDBRANCH  16  21
ENDBRANCH   3  16
TORSDOF 10
ENDMDL
MODEL 8
REMARK VINA RESULT:      -4.8      6.284      8.318
REMARK  10 active torsions:
REMARK  status: ('A' for Active; 'I' for Inactive)
REMARK    1  A    between atoms: C_1  and  C_21 
REMARK    2  A    between atoms: C_1  and  C_2 
REMARK    3  A    between atoms: C_1  and  N_6 
REMARK    4  A    between atoms: C_2  and  C_3 
REMARK    5  A    between atoms: C_3  and  Se_4 
REMARK       I    between atoms: C_10  and  N_11 
REMARK    6  A    between atoms: C_10  and  C_12 
REMARK    7  A    between atoms: C_12  and  C_13 
REMARK    8  A    between atoms: C_13  and  C_14 
REMARK    9  A    between atoms: C_14  and  C_15 
REMARK   10  A    between atoms: C_14  and  N_20 
REMARK       I    between atoms: N_20  and  C_21 
ROOT
HETATM    1  O           1     -19.102 -10.187  -6.073  0.00  0.00    -0.271 OA
HETATM    2  N           1     -19.332  -8.629  -4.491  0.00  0.00    -0.345 N 
HETATM    3  C           1     -18.660  -9.668  -5.075  0.00  0.00     0.249 C 
HETATM    4  H           1     -18.962  -8.193  -3.656  0.00  0.00     0.163 HD
ENDROOT
BRANCH   2   5
HETATM    5  C           1     -20.575  -8.152  -5.068  0.00  0.00     0.186 C 
BRANCH   5   6
HETATM    6  C           1     -21.643  -8.081  -3.984  0.00  0.00     0.045 C 
BRANCH   6   7
HETATM    7  C           1     -20.975  -7.965  -2.620  0.00  0.00     0.105 C 
BRANCH   7   8
HETATM    8  C           1     -21.783  -7.042  -1.741  0.00  0.00     0.215 C 
HETATM    9  O           1     -21.930  -7.298  -0.570  0.00  0.00    -0.274 OA
HETATM   10  N           1     -22.348  -5.914  -2.272  0.00  0.00    -0.370 N 
HETATM   11  H           1     -22.225  -5.699  -3.253  0.00  0.00     0.159 HD
HETATM   12  H           1     -22.890  -5.294  -1.683  0.00  0.00     0.159 HD
ENDBRANCH   7   8
ENDBRANCH   6   7
ENDBRANCH   5   6
BRANCH   5  13
HETATM   13  C           1     -20.361  -6.779  -5.655  0.00  0.00     0.196 C 
HETATM   14  O           1     -20.776  -5.768  -5.050  0.00  0.00    -0.646 OA
HETATM   15  O           1     -19.767  -6.653  -6.749  0.00  0.00    -0.646 OA
ENDBRANCH   5  13
ENDBRANCH   2   5
BRANCH   3  16
HETATM   16  C           1     -17.367 -10.164  -4.475  0.00  0.00     0.274 C 
BRANCH  16  17
HETATM   17  C           1     -17.117  -9.455  -3.151  0.00  0.00     0.042 C 
BRANCH  17  18
HETATM   18  C           1     -15.891 -10.057  -2.476  0.00  0.00     0.003 C 
BRANCH  18  19
HETATM   19 Se           1     -16.114 -11.989  -2.329  0.00  0.00     0.000 Se
HETATM   20  C           1     -17.343 -11.896  -0.820  0.00  0.00     0.000 C 
ENDBRANCH  18  19
ENDBRANCH  17  18
ENDBRANCH  16  17
BRANCH  16  21
HETATM   21  N           1     -16.236  -9.878  -5.417  0.00  0.00    -0.067 N 
HETATM   22  H           1     -15.595 -10.702  -5.453  0.00  0.00     0.275 HD
HETATM   23  H           1     -16.618  -9.691  -6.371  0.00  0.00     0.275 HD
HETATM   24  H           1     -15.708  -9.040  -5.082  0.00  0.00     0.275 HD
ENDBRANCH  16  21
ENDBRANCH   3  16
TORSDOF 10
ENDMDL
MODEL 9
REMARK VINA RESULT:      -4.7      7.221      9.413
REMARK  10 active torsions:
REMARK  status: ('A' for Active; 'I' for Inactive)
REMARK    1  A    between atoms: C_1  and  C_21 
REMARK    2  A    between atoms: C_1  and  C_2 
REMARK    3  A    between atoms: C_1  and  N_6 
REMARK    4  A    between atoms: C_2  and  C_3 
REMARK    5  A    between atoms: C_3  and  Se_4 
REMARK       I    between atoms: C_10  and  N_11 
REMARK    6  A    between atoms: C_10  and  C_12 
REMARK    7  A    between atoms: C_12  and  C_13 
REMARK    8  A    between atoms: C_13  and  C_14 
REMARK    9  A    between atoms: C_14  and  C_15 
REMARK   10  A    between atoms: C_14  and  N_20 
REMARK       I    between atoms: N_20  and  C_21 
ROOT
HETATM    1  O           1     -21.596  -9.730  -4.163  0.00  0.00    -0.271 OA
HETATM    2  N           1     -20.391  -8.245  -3.011  0.00  0.00    -0.345 N 
HETATM    3  C           1     -20.544  -9.154  -4.024  0.00  0.00     0.249 C 
HETATM    4  H           1     -19.510  -7.761  -2.894  0.00  0.00     0.163 HD
ENDROOT
BRANCH   2   5
HETATM    5  C           1     -21.492  -7.976  -2.106  0.00  0.00     0.186 C 
BRANCH   5   6
HETATM    6  C           1     -21.015  -8.134  -0.667  0.00  0.00     0.045 C 
BRANCH   6   7
HETATM    7  C           1     -21.596  -9.412  -0.078  0.00  0.00     0.105 C 
BRANCH   7   8
HETATM    8  C           1     -23.078  -9.234   0.149  0.00  0.00     0.215 C 
HETATM    9  O           1     -23.841 -10.133  -0.110  0.00  0.00    -0.274 OA
HETATM   10  N           1     -23.555  -8.052   0.649  0.00  0.00    -0.370 N 
HETATM   11  H           1     -22.916  -7.299   0.866  0.00  0.00     0.159 HD
HETATM   12  H           1     -24.549  -7.932   0.801  0.00  0.00     0.159 HD
ENDBRANCH   7   8
ENDBRANCH   6   7
ENDBRANCH   5   6
BRANCH   5  13
HETATM   13  C           1     -21.985  -6.566  -2.322  0.00  0.00     0.196 C 
HETATM   14  O           1     -21.950  -6.060  -3.463  0.00  0.00    -0.646 OA
HETATM   15  O           1     -22.429  -5.905  -1.357  0.00  0.00    -0.646 OA
ENDBRANCH   5  13
ENDBRANCH   2   5
BRANCH   3  16
HETATM   16  C           1     -19.399  -9.434  -4.965  0.00  0.00     0.274 C 
BRANCH  16  17
HETATM   17  C           1     -18.105  -9.554  -4.171  0.00  0.00     0.042 C 
BRANCH  17  18
HETATM   18  C           1     -17.236 -10.648  -4.778  0.00  0.00     0.003 C 
BRANCH  18  19
HETATM   19 Se           1     -18.368 -11.946  -5.690  0.00  0.00     0.000 Se
HETATM   20  C           1     -17.000 -12.484  -6.970  0.00  0.00     0.000 C 
ENDBRANCH  18  19
ENDBRANCH  17  18
ENDBRANCH  16  17
BRANCH  16  21
HETATM   21  N           1     -19.277  -8.312  -5.953  0.00  0.00    -0.067 N 
HETATM   22  H           1     -19.559  -7.415  -5.498  0.00  0.00     0.275 HD
HETATM   23  H           1     -18.286  -8.242  -6.277  0.00  0.00     0.275 HD
HETATM   24  H           1     -19.900  -8.500  -6.771  0.00  0.00     0.275 HD
ENDBRANCH  16  21
ENDBRANCH   3  16
TORSDOF 10
ENDMDL
