MODEL 1
REMARK VINA RESULT:      -6.9      0.000      0.000
REMARK  9 active torsions:
REMARK  status: ('A' for Active; 'I' for Inactive)
REMARK    1  A    between atoms: C_3  and  C_21 
REMARK    2  A    between atoms: C_3  and  C_4 
REMARK    3  A    between atoms: C_3  and  N_19 
REMARK    4  A    between atoms: C_5  and  C_22 
REMARK    5  A    between atoms: C_5  and  C_24 
REMARK    6  A    between atoms: C_7  and  C_8 
REMARK    7  A    between atoms: C_7  and  C_21 
REMARK       I    between atoms: C_8  and  N_9 
REMARK       I    between atoms: C_10  and  N_19 
REMARK    8  A    between atoms: C_10  and  C_22 
REMARK    9  A    between atoms: N_13  and  C_22 
ROOT
HETATM    1  H           1     -22.325  -5.835  -9.237  0.00  0.00     0.163 HD
HETATM    2  C           1     -21.690  -4.609  -7.695  0.00  0.00     0.249 C 
HETATM    3  O           1     -21.607  -3.468  -7.307  0.00  0.00    -0.271 OA
HETATM    4  N           1     -22.255  -4.879  -8.912  0.00  0.00    -0.345 N 
ENDROOT
BRANCH   4   5
HETATM    5  C           1     -22.752  -3.795  -9.737  0.00  0.00     0.186 C 
BRANCH   5   6
HETATM    6  C           1     -22.253  -3.975 -11.165  0.00  0.00     0.045 C 
BRANCH   6   7
HETATM    7  C           1     -22.399  -2.662 -11.924  0.00  0.00     0.105 C 
BRANCH   7   8
HETATM    8  C           1     -23.203  -2.894 -13.180  0.00  0.00     0.215 C 
HETATM    9  O           1     -24.409  -2.948 -13.125  0.00  0.00    -0.274 OA
HETATM   10  N           1     -22.565  -3.043 -14.382  0.00  0.00    -0.370 N 
HETATM   11  H           1     -21.555  -2.998 -14.428  0.00  0.00     0.159 HD
HETATM   12  H           1     -23.103  -3.199 -15.225  0.00  0.00     0.159 HD
ENDBRANCH   7   8
ENDBRANCH   6   7
ENDBRANCH   5   6
BRANCH   5  13
HETATM   13  C           1     -24.261  -3.807  -9.726  0.00  0.00     0.196 C 
HETATM   14  O           1     -24.878  -4.874  -9.932  0.00  0.00    -0.646 OA
HETATM   15  O           1     -24.894  -2.750  -9.510  0.00  0.00    -0.646 OA
ENDBRANCH   5  13
ENDBRANCH   4   5
BRANCH   2  16
HETATM   16  C           1     -21.172  -5.737  -6.837  0.00  0.00     0.284 C 
BRANCH  16  17
HETATM   17  C           1     -20.951  -5.235  -5.416  0.00  0.00     0.155 C 
BRANCH  17  18
HETATM   18  C           1     -21.399  -6.290  -4.434  0.00  0.00     0.175 C 
HETATM   19  O           1     -21.344  -7.500  -4.748  0.00  0.00    -0.648 OA
HETATM   20  O           1     -21.824  -5.956  -3.308  0.00  0.00    -0.648 OA
ENDBRANCH  17  18
ENDBRANCH  16  17
BRANCH  16  21
HETATM   21  N           1     -19.873  -6.236  -7.398  0.00  0.00    -0.066 N 
HETATM   22  H           1     -19.340  -6.735  -6.651  0.00  0.00     0.275 HD
HETATM   23  H           1     -20.066  -6.893  -8.187  0.00  0.00     0.275 HD
HETATM   24  H           1     -19.312  -5.427  -7.748  0.00  0.00     0.275 HD
ENDBRANCH  16  21
ENDBRANCH   2  16
TORSDOF 9
ENDMDL
MODEL 2
REMARK VINA RESULT:      -6.8     11.883     13.879
REMARK  9 active torsions:
REMARK  status: ('A' for Active; 'I' for Inactive)
REMARK    1  A    between atoms: C_3  and  C_21 
REMARK    2  A    between atoms: C_3  and  C_4 
REMARK    3  A    between atoms: C_3  and  N_19 
REMARK    4  A    between atoms: C_5  and  C_22 
REMARK    5  A    between atoms: C_5  and  C_24 
REMARK    6  A    between atoms: C_7  and  C_8 
REMARK    7  A    between atoms: C_7  and  C_21 
REMARK       I    between atoms: C_8  and  N_9 
REMARK       I    between atoms: C_10  and  N_19 
REMARK    8  A    between atoms: C_10  and  C_22 
REMARK    9  A    between atoms: N_13  and  C_22 
ROOT
HETATM    1  H           1     -35.414  -2.007 -14.013  0.00  0.00     0.163 HD
HETATM    2  C           1     -34.302  -2.494 -12.336  0.00  0.00     0.249 C 
HETATM    3  O           1     -33.806  -2.069 -11.320  0.00  0.00    -0.271 OA
HETATM    4  N           1     -34.998  -1.651 -13.161  0.00  0.00    -0.345 N 
ENDROOT
BRANCH   4   5
HETATM    5  C           1     -35.139  -0.250 -12.815  0.00  0.00     0.186 C 
BRANCH   5   6
HETATM    6  C           1     -35.280   0.574 -14.089  0.00  0.00     0.045 C 
BRANCH   6   7
HETATM    7  C           1     -35.480  -0.358 -15.278  0.00  0.00     0.105 C 
BRANCH   7   8
HETATM    8  C           1     -36.845  -0.123 -15.877  0.00  0.00     0.215 C 
HETATM    9  O           1     -37.159  -0.679 -16.902  0.00  0.00    -0.274 OA
HETATM   10  N           1     -37.727   0.721 -15.257  0.00  0.00    -0.370 N 
HETATM   11  H           1     -37.464   1.187 -14.398  0.00  0.00     0.159 HD
HETATM   12  H           1     -38.643   0.879 -15.659  0.00  0.00     0.159 HD
ENDBRANCH   7   8
ENDBRANCH   6   7
ENDBRANCH   5   6
BRANCH   5  13
HETATM   13  C           1     -36.367  -0.066 -11.959  0.00  0.00     0.196 C 
HETATM   14  O           1     -37.487  -0.422 -12.387  0.00  0.00    -0.646 OA
HETATM   15  O           1     -36.266   0.442 -10.820  0.00  0.00    -0.646 OA
ENDBRANCH   5  13
ENDBRANCH   4   5
BRANCH   2  16
HETATM   16  C           1     -34.154  -3.951 -12.696  0.00  0.00     0.284 C 
BRANCH  16  17
HETATM   17  C           1     -33.147  -4.606 -11.761  0.00  0.00     0.155 C 
BRANCH  17  18
HETATM   18  C           1     -33.842  -5.655 -10.927  0.00  0.00     0.175 C 
HETATM   19  O           1     -34.950  -5.404 -10.403  0.00  0.00    -0.648 OA
HETATM   20  O           1     -33.313  -6.775 -10.762  0.00  0.00    -0.648 OA
ENDBRANCH  17  18
ENDBRANCH  16  17
BRANCH  16  21
HETATM   21  N           1     -33.673  -4.070 -14.112  0.00  0.00    -0.066 N 
HETATM   22  H           1     -33.113  -3.224 -14.362  0.00  0.00     0.275 HD
HETATM   23  H           1     -33.076  -4.923 -14.205  0.00  0.00     0.275 HD
HETATM   24  H           1     -34.494  -4.148 -14.753  0.00  0.00     0.275 HD
ENDBRANCH  16  21
ENDBRANCH   2  16
TORSDOF 9
ENDMDL
MODEL 3
REMARK VINA RESULT:      -6.6     12.335     14.110
REMARK  9 active torsions:
REMARK  status: ('A' for Active; 'I' for Inactive)
REMARK    1  A    between atoms: C_3  and  C_21 
REMARK    2  A    between atoms: C_3  and  C_4 
REMARK    3  A    between atoms: C_3  and  N_19 
REMARK    4  A    between atoms: C_5  and  C_22 
REMARK    5  A    between atoms: C_5  and  C_24 
REMARK    6  A    between atoms: C_7  and  C_8 
REMARK    7  A    between atoms: C_7  and  C_21 
REMARK       I    between atoms: C_8  and  N_9 
REMARK       I    between atoms: C_10  and  N_19 
REMARK    8  A    between atoms: C_10  and  C_22 
REMARK    9  A    between atoms: N_13  and  C_22 
ROOT
HETATM    1  H           1     -36.258  -2.554 -11.852  0.00  0.00     0.163 HD
HETATM    2  C           1     -34.378  -2.233 -11.048  0.00  0.00     0.249 C 
HETATM    3  O           1     -33.575  -1.396 -10.711  0.00  0.00    -0.271 OA
HETATM    4  N           1     -35.585  -1.853 -11.569  0.00  0.00    -0.345 N 
ENDROOT
BRANCH   4   5
HETATM    5  C           1     -35.899  -0.445 -11.718  0.00  0.00     0.186 C 
BRANCH   5   6
HETATM    6  C           1     -36.483  -0.200 -13.104  0.00  0.00     0.045 C 
BRANCH   6   7
HETATM    7  C           1     -35.458   0.527 -13.965  0.00  0.00     0.105 C 
BRANCH   7   8
HETATM    8  C           1     -35.657   0.146 -15.412  0.00  0.00     0.215 C 
HETATM    9  O           1     -36.262   0.884 -16.154  0.00  0.00    -0.274 OA
HETATM   10  N           1     -35.152  -1.035 -15.884  0.00  0.00    -0.370 N 
HETATM   11  H           1     -34.645  -1.653 -15.263  0.00  0.00     0.159 HD
HETATM   12  H           1     -35.285  -1.291 -16.854  0.00  0.00     0.159 HD
ENDBRANCH   7   8
ENDBRANCH   6   7
ENDBRANCH   5   6
BRANCH   5  13
HETATM   13  C           1     -36.907  -0.043 -10.669  0.00  0.00     0.196 C 
HETATM   14  O           1     -36.590   0.779  -9.782  0.00  0.00    -0.646 OA
HETATM   15  O           1     -38.058  -0.529 -10.688  0.00  0.00    -0.646 OA
ENDBRANCH   5  13
ENDBRANCH   4   5
BRANCH   2  16
HETATM   16  C           1     -34.050  -3.698 -10.894  0.00  0.00     0.284 C 
BRANCH  16  17
HETATM   17  C           1     -33.314  -4.187 -12.134  0.00  0.00     0.155 C 
BRANCH  17  18
HETATM   18  C           1     -34.281  -4.279 -13.289  0.00  0.00     0.175 C 
HETATM   19  O           1     -34.334  -3.358 -14.134  0.00  0.00    -0.648 OA
HETATM   20  O           1     -35.027  -5.275 -13.404  0.00  0.00    -0.648 OA
ENDBRANCH  17  18
ENDBRANCH  16  17
BRANCH  16  21
HETATM   21  N           1     -35.319  -4.479 -10.724  0.00  0.00    -0.066 N 
HETATM   22  H           1     -36.114  -3.822 -10.560  0.00  0.00     0.275 HD
HETATM   23  H           1     -35.500  -5.038 -11.588  0.00  0.00     0.275 HD
HETATM   24  H           1     -35.224  -5.123  -9.906  0.00  0.00     0.275 HD
ENDBRANCH  16  21
ENDBRANCH   2  16
TORSDOF 9
ENDMDL
MODEL 4
REMARK VINA RESULT:      -6.3      2.207      7.087
REMARK  9 active torsions:
REMARK  status: ('A' for Active; 'I' for Inactive)
REMARK    1  A    between atoms: C_3  and  C_21 
REMARK    2  A    between atoms: C_3  and  C_4 
REMARK    3  A    between atoms: C_3  and  N_19 
REMARK    4  A    between atoms: C_5  and  C_22 
REMARK    5  A    between atoms: C_5  and  C_24 
REMARK    6  A    between atoms: C_7  and  C_8 
REMARK    7  A    between atoms: C_7  and  C_21 
REMARK       I    between atoms: C_8  and  N_9 
REMARK       I    between atoms: C_10  and  N_19 
REMARK    8  A    between atoms: C_10  and  C_22 
REMARK    9  A    between atoms: N_13  and  C_22 
ROOT
HETATM    1  H           1     -22.341  -2.855 -10.795  0.00  0.00     0.163 HD
HETATM    2  C           1     -23.401  -4.486 -11.503  0.00  0.00     0.249 C 
HETATM    3  O           1     -23.741  -5.622 -11.271  0.00  0.00    -0.271 OA
HETATM    4  N           1     -22.626  -3.807 -10.601  0.00  0.00    -0.345 N 
ENDROOT
BRANCH   4   5
HETATM    5  C           1     -22.213  -4.451  -9.370  0.00  0.00     0.186 C 
BRANCH   5   6
HETATM    6  C           1     -20.852  -3.912  -8.948  0.00  0.00     0.045 C 
BRANCH   6   7
HETATM    7  C           1     -19.898  -5.075  -8.707  0.00  0.00     0.105 C 
BRANCH   7   8
HETATM    8  C           1     -19.919  -5.448  -7.244  0.00  0.00     0.215 C 
HETATM    9  O           1     -19.392  -4.728  -6.429  0.00  0.00    -0.274 OA
HETATM   10  N           1     -20.535  -6.601  -6.841  0.00  0.00    -0.370 N 
HETATM   11  H           1     -20.977  -7.204  -7.524  0.00  0.00     0.159 HD
HETATM   12  H           1     -20.550  -6.852  -5.860  0.00  0.00     0.159 HD
ENDBRANCH   7   8
ENDBRANCH   6   7
ENDBRANCH   5   6
BRANCH   5  13
HETATM   13  C           1     -23.225  -4.163  -8.289  0.00  0.00     0.196 C 
HETATM   14  O           1     -24.288  -3.569  -8.571  0.00  0.00    -0.646 OA
HETATM   15  O           1     -23.002  -4.518  -7.111  0.00  0.00    -0.646 OA
ENDBRANCH   5  13
ENDBRANCH   4   5
BRANCH   2  16
HETATM   16  C           1     -23.830  -3.816 -12.785  0.00  0.00     0.284 C 
BRANCH  16  17
HETATM   17  C           1     -22.733  -2.871 -13.256  0.00  0.00     0.155 C 
BRANCH  17  18
HETATM   18  C           1     -23.052  -2.384 -14.649  0.00  0.00     0.175 C 
HETATM   19  O           1     -24.000  -1.589 -14.831  0.00  0.00    -0.648 OA
HETATM   20  O           1     -22.369  -2.774 -15.620  0.00  0.00    -0.648 OA
ENDBRANCH  17  18
ENDBRANCH  16  17
BRANCH  16  21
HETATM   21  N           1     -25.091  -3.039 -12.546  0.00  0.00    -0.066 N 
HETATM   22  H           1     -24.922  -2.029 -12.753  0.00  0.00     0.275 HD
HETATM   23  H           1     -25.846  -3.402 -13.169  0.00  0.00     0.275 HD
HETATM   24  H           1     -25.381  -3.146 -11.547  0.00  0.00     0.275 HD
ENDBRANCH  16  21
ENDBRANCH   2  16
TORSDOF 9
ENDMDL
MODEL 5
REMARK VINA RESULT:      -6.2      1.955      6.714
REMARK  9 active torsions:
REMARK  status: ('A' for Active; 'I' for Inactive)
REMARK    1  A    between atoms: C_3  and  C_21 
REMARK    2  A    between atoms: C_3  and  C_4 
REMARK    3  A    between atoms: C_3  and  N_19 
REMARK    4  A    between atoms: C_5  and  C_22 
REMARK    5  A    between atoms: C_5  and  C_24 
REMARK    6  A    between atoms: C_7  and  C_8 
REMARK    7  A    between atoms: C_7  and  C_21 
REMARK       I    between atoms: C_8  and  N_9 
REMARK       I    between atoms: C_10  and  N_19 
REMARK    8  A    between atoms: C_10  and  C_22 
REMARK    9  A    between atoms: N_13  and  C_22 
ROOT
HETATM    1  H           1     -22.823  -2.704  -9.410  0.00  0.00     0.163 HD
HETATM    2  C           1     -21.679  -3.814 -10.730  0.00  0.00     0.249 C 
HETATM    3  O           1     -20.952  -4.772 -10.847  0.00  0.00    -0.271 OA
HETATM    4  N           1     -22.214  -3.507  -9.508  0.00  0.00    -0.345 N 
ENDROOT
BRANCH   4   5
HETATM    5  C           1     -21.909  -4.330  -8.355  0.00  0.00     0.186 C 
BRANCH   5   6
HETATM    6  C           1     -20.816  -3.662  -7.530  0.00  0.00     0.045 C 
BRANCH   6   7
HETATM    7  C           1     -19.581  -4.554  -7.505  0.00  0.00     0.105 C 
BRANCH   7   8
HETATM    8  C           1     -19.819  -5.716  -6.572  0.00  0.00     0.215 C 
HETATM    9  O           1     -19.558  -6.841  -6.927  0.00  0.00    -0.274 OA
HETATM   10  N           1     -20.331  -5.495  -5.322  0.00  0.00    -0.370 N 
HETATM   11  H           1     -20.550  -4.553  -5.024  0.00  0.00     0.159 HD
HETATM   12  H           1     -20.491  -6.274  -4.695  0.00  0.00     0.159 HD
ENDBRANCH   7   8
ENDBRANCH   6   7
ENDBRANCH   5   6
BRANCH   5  13
HETATM   13  C           1     -23.149  -4.491  -7.510  0.00  0.00     0.196 C 
HETATM   14  O           1     -23.055  -4.906  -6.335  0.00  0.00    -0.646 OA
HETATM   15  O           1     -24.271  -4.209  -7.985  0.00  0.00    -0.646 OA
ENDBRANCH   5  13
ENDBRANCH   4   5
BRANCH   2  16
HETATM   16  C           1     -21.995  -2.957 -11.930  0.00  0.00     0.284 C 
BRANCH  16  17
HETATM   17  C           1     -23.468  -2.572 -11.906  0.00  0.00     0.155 C 
BRANCH  17  18
HETATM   18  C           1     -24.068  -2.789 -13.273  0.00  0.00     0.175 C 
HETATM   19  O           1     -24.049  -1.867 -14.118  0.00  0.00    -0.648 OA
HETATM   20  O           1     -24.584  -3.891 -13.563  0.00  0.00    -0.648 OA
ENDBRANCH  17  18
ENDBRANCH  16  17
BRANCH  16  21
HETATM   21  N           1     -21.700  -3.724 -13.185  0.00  0.00    -0.066 N 
HETATM   22  H           1     -20.710  -3.553 -13.473  0.00  0.00     0.275 HD
HETATM   23  H           1     -21.840  -4.744 -13.009  0.00  0.00     0.275 HD
HETATM   24  H           1     -22.344  -3.409 -13.945  0.00  0.00     0.275 HD
ENDBRANCH  16  21
ENDBRANCH   2  16
TORSDOF 9
ENDMDL
MODEL 6
REMARK VINA RESULT:      -6.1      1.995      7.001
REMARK  9 active torsions:
REMARK  status: ('A' for Active; 'I' for Inactive)
REMARK    1  A    between atoms: C_3  and  C_21 
REMARK    2  A    between atoms: C_3  and  C_4 
REMARK    3  A    between atoms: C_3  and  N_19 
REMARK    4  A    between atoms: C_5  and  C_22 
REMARK    5  A    between atoms: C_5  and  C_24 
REMARK    6  A    between atoms: C_7  and  C_8 
REMARK    7  A    between atoms: C_7  and  C_21 
REMARK       I    between atoms: C_8  and  N_9 
REMARK       I    between atoms: C_10  and  N_19 
REMARK    8  A    between atoms: C_10  and  C_22 
REMARK    9  A    between atoms: N_13  and  C_22 
ROOT
HETATM    1  H           1     -22.459  -6.230  -8.752  0.00  0.00     0.163 HD
HETATM    2  C           1     -23.056  -4.273  -9.064  0.00  0.00     0.249 C 
HETATM    3  O           1     -22.840  -3.117  -8.789  0.00  0.00    -0.271 OA
HETATM    4  N           1     -22.279  -5.261  -8.522  0.00  0.00    -0.345 N 
ENDROOT
BRANCH   4   5
HETATM    5  C           1     -21.198  -4.920  -7.618  0.00  0.00     0.186 C 
BRANCH   5   6
HETATM    6  C           1     -20.946  -6.084  -6.668  0.00  0.00     0.045 C 
BRANCH   6   7
HETATM    7  C           1     -20.920  -5.573  -5.233  0.00  0.00     0.105 C 
BRANCH   7   8
HETATM    8  C           1     -21.656  -6.542  -4.340  0.00  0.00     0.215 C 
HETATM    9  O           1     -21.810  -7.688  -4.690  0.00  0.00    -0.274 OA
HETATM   10  N           1     -22.150  -6.122  -3.135  0.00  0.00    -0.370 N 
HETATM   11  H           1     -22.021  -5.162  -2.842  0.00  0.00     0.159 HD
HETATM   12  H           1     -22.644  -6.772  -2.536  0.00  0.00     0.159 HD
ENDBRANCH   7   8
ENDBRANCH   6   7
ENDBRANCH   5   6
BRANCH   5  13
HETATM   13  C           1     -19.947  -4.640  -8.413  0.00  0.00     0.196 C 
HETATM   14  O           1     -19.934  -4.841  -9.647  0.00  0.00    -0.646 OA
HETATM   15  O           1     -18.924  -4.207  -7.840  0.00  0.00    -0.646 OA
ENDBRANCH   5  13
ENDBRANCH   4   5
BRANCH   2  16
HETATM   16  C           1     -24.181  -4.628 -10.004  0.00  0.00     0.284 C 
BRANCH  16  17
HETATM   17  C           1     -23.660  -4.651 -11.435  0.00  0.00     0.155 C 
BRANCH  17  18
HETATM   18  C           1     -23.986  -3.342 -12.111  0.00  0.00     0.175 C 
HETATM   19  O           1     -25.074  -3.204 -12.713  0.00  0.00    -0.648 OA
HETATM   20  O           1     -23.171  -2.396 -12.070  0.00  0.00    -0.648 OA
ENDBRANCH  17  18
ENDBRANCH  16  17
BRANCH  16  21
HETATM   21  N           1     -25.272  -3.605  -9.886  0.00  0.00    -0.066 N 
HETATM   22  H           1     -24.861  -2.688  -9.603  0.00  0.00     0.275 HD
HETATM   23  H           1     -25.752  -3.503 -10.808  0.00  0.00     0.275 HD
HETATM   24  H           1     -25.963  -3.916  -9.166  0.00  0.00     0.275 HD
ENDBRANCH  16  21
ENDBRANCH   2  16
TORSDOF 9
ENDMDL
MODEL 7
REMARK VINA RESULT:      -5.9      2.293      3.518
REMARK  9 active torsions:
REMARK  status: ('A' for Active; 'I' for Inactive)
REMARK    1  A    between atoms: C_3  and  C_21 
REMARK    2  A    between atoms: C_3  and  C_4 
REMARK    3  A    between atoms: C_3  and  N_19 
REMARK    4  A    between atoms: C_5  and  C_22 
REMARK    5  A    between atoms: C_5  and  C_24 
REMARK    6  A    between atoms: C_7  and  C_8 
REMARK    7  A    between atoms: C_7  and  C_21 
REMARK       I    between atoms: C_8  and  N_9 
REMARK       I    between atoms: C_10  and  N_19 
REMARK    8  A    between atoms: C_10  and  C_22 
REMARK    9  A    between atoms: N_13  and  C_22 
ROOT
HETATM    1  H           1     -21.943  -4.244  -6.187  0.00  0.00     0.163 HD
HETATM    2  C           1     -21.159  -6.158  -6.122  0.00  0.00     0.249 C 
HETATM    3  O           1     -20.779  -7.095  -6.783  0.00  0.00    -0.271 OA
HETATM    4  N           1     -21.624  -5.029  -6.741  0.00  0.00    -0.345 N 
ENDROOT
BRANCH   4   5
HETATM    5  C           1     -21.660  -4.958  -8.188  0.00  0.00     0.186 C 
BRANCH   5   6
HETATM    6  C           1     -22.777  -4.015  -8.621  0.00  0.00     0.045 C 
BRANCH   6   7
HETATM    7  C           1     -23.379  -4.509  -9.931  0.00  0.00     0.105 C 
BRANCH   7   8
HETATM    8  C           1     -24.498  -3.586 -10.349  0.00  0.00     0.215 C 
HETATM    9  O           1     -24.377  -2.898 -11.334  0.00  0.00    -0.274 OA
HETATM   10  N           1     -25.649  -3.528  -9.610  0.00  0.00    -0.370 N 
HETATM   11  H           1     -25.750  -4.105  -8.785  0.00  0.00     0.159 HD
HETATM   12  H           1     -26.400  -2.909  -9.890  0.00  0.00     0.159 HD
ENDBRANCH   7   8
ENDBRANCH   6   7
ENDBRANCH   5   6
BRANCH   5  13
HETATM   13  C           1     -20.339  -4.440  -8.699  0.00  0.00     0.196 C 
HETATM   14  O           1     -19.669  -3.645  -8.003  0.00  0.00    -0.646 OA
HETATM   15  O           1     -19.912  -4.805  -9.816  0.00  0.00    -0.646 OA
ENDBRANCH   5  13
ENDBRANCH   4   5
BRANCH   2  16
HETATM   16  C           1     -21.123  -6.233  -4.616  0.00  0.00     0.284 C 
BRANCH  16  17
HETATM   17  C           1     -20.446  -7.529  -4.188  0.00  0.00     0.155 C 
BRANCH  17  18
HETATM   18  C           1     -21.069  -8.022  -2.905  0.00  0.00     0.175 C 
HETATM   19  O           1     -20.868  -7.406  -1.835  0.00  0.00    -0.648 OA
HETATM   20  O           1     -21.787  -9.045  -2.911  0.00  0.00    -0.648 OA
ENDBRANCH  17  18
ENDBRANCH  16  17
BRANCH  16  21
HETATM   21  N           1     -22.523  -6.200  -4.079  0.00  0.00    -0.066 N 
HETATM   22  H           1     -22.850  -5.209  -4.021  0.00  0.00     0.275 HD
HETATM   23  H           1     -23.152  -6.738  -4.716  0.00  0.00     0.275 HD
HETATM   24  H           1     -22.540  -6.630  -3.127  0.00  0.00     0.275 HD
ENDBRANCH  16  21
ENDBRANCH   2  16
TORSDOF 9
ENDMDL
MODEL 8
REMARK VINA RESULT:      -5.8      2.717      7.903
REMARK  9 active torsions:
REMARK  status: ('A' for Active; 'I' for Inactive)
REMARK    1  A    between atoms: C_3  and  C_21 
REMARK    2  A    between atoms: C_3  and  C_4 
REMARK    3  A    between atoms: C_3  and  N_19 
REMARK    4  A    between atoms: C_5  and  C_22 
REMARK    5  A    between atoms: C_5  and  C_24 
REMARK    6  A    between atoms: C_7  and  C_8 
REMARK    7  A    between atoms: C_7  and  C_21 
REMARK       I    between atoms: C_8  and  N_9 
REMARK       I    between atoms: C_10  and  N_19 
REMARK    8  A    between atoms: C_10  and  C_22 
REMARK    9  A    between atoms: N_13  and  C_22 
ROOT
HETATM    1  H           1     -21.848  -7.045  -6.835  0.00  0.00     0.163 HD
HETATM    2  C           1     -21.088  -5.120  -6.864  0.00  0.00     0.249 C 
HETATM    3  O           1     -20.451  -4.298  -6.249  0.00  0.00    -0.271 OA
HETATM    4  N           1     -21.314  -6.356  -6.320  0.00  0.00    -0.345 N 
ENDROOT
BRANCH   4   5
HETATM    5  C           1     -20.789  -6.678  -5.008  0.00  0.00     0.186 C 
BRANCH   5   6
HETATM    6  C           1     -21.941  -6.798  -4.017  0.00  0.00     0.045 C 
BRANCH   6   7
HETATM    7  C           1     -21.566  -6.103  -2.715  0.00  0.00     0.105 C 
BRANCH   7   8
HETATM    8  C           1     -21.837  -7.029  -1.554  0.00  0.00     0.215 C 
HETATM    9  O           1     -22.776  -6.822  -0.823  0.00  0.00    -0.274 OA
HETATM   10  N           1     -21.018  -8.103  -1.331  0.00  0.00    -0.370 N 
HETATM   11  H           1     -20.232  -8.276  -1.944  0.00  0.00     0.159 HD
HETATM   12  H           1     -21.200  -8.724  -0.553  0.00  0.00     0.159 HD
ENDBRANCH   7   8
ENDBRANCH   6   7
ENDBRANCH   5   6
BRANCH   5  13
HETATM   13  C           1     -20.043  -7.988  -5.073  0.00  0.00     0.196 C 
HETATM   14  O           1     -20.148  -8.813  -4.140  0.00  0.00    -0.646 OA
HETATM   15  O           1     -19.320  -8.248  -6.059  0.00  0.00    -0.646 OA
ENDBRANCH   5  13
ENDBRANCH   4   5
BRANCH   2  16
HETATM   16  C           1     -21.635  -4.784  -8.229  0.00  0.00     0.284 C 
BRANCH  16  17
HETATM   17  C           1     -20.484  -4.461  -9.172  0.00  0.00     0.155 C 
BRANCH  17  18
HETATM   18  C           1     -21.033  -4.073 -10.523  0.00  0.00     0.175 C 
HETATM   19  O           1     -20.435  -3.224 -11.220  0.00  0.00    -0.648 OA
HETATM   20  O           1     -22.085  -4.600 -10.946  0.00  0.00    -0.648 OA
ENDBRANCH  17  18
ENDBRANCH  16  17
BRANCH  16  21
HETATM   21  N           1     -22.545  -3.596  -8.125  0.00  0.00    -0.066 N 
HETATM   22  H           1     -22.072  -2.842  -7.579  0.00  0.00     0.275 HD
HETATM   23  H           1     -22.768  -3.245  -9.083  0.00  0.00     0.275 HD
HETATM   24  H           1     -23.428  -3.876  -7.641  0.00  0.00     0.275 HD
ENDBRANCH  16  21
ENDBRANCH   2  16
TORSDOF 9
ENDMDL
MODEL 9
REMARK VINA RESULT:      -5.7      2.183      7.410
REMARK  9 active torsions:
REMARK  status: ('A' for Active; 'I' for Inactive)
REMARK    1  A    between atoms: C_3  and  C_21 
REMARK    2  A    between atoms: C_3  and  C_4 
REMARK    3  A    between atoms: C_3  and  N_19 
REMARK    4  A    between atoms: C_5  and  C_22 
REMARK    5  A    between atoms: C_5  and  C_24 
REMARK    6  A    between atoms: C_7  and  C_8 
REMARK    7  A    between atoms: C_7  and  C_21 
REMARK       I    between atoms: C_8  and  N_9 
REMARK       I    between atoms: C_10  and  N_19 
REMARK    8  A    between atoms: C_10  and  C_22 
REMARK    9  A    between atoms: N_13  and  C_22 
ROOT
HETATM    1  H           1     -22.647  -5.253 -10.983  0.00  0.00     0.163 HD
HETATM    2  C           1     -22.436  -3.311 -11.665  0.00  0.00     0.249 C 
HETATM    3  O           1     -22.008  -2.211 -11.406  0.00  0.00    -0.271 OA
HETATM    4  N           1     -22.288  -4.332 -10.766  0.00  0.00    -0.345 N 
ENDROOT
BRANCH   4   5
HETATM    5  C           1     -21.618  -4.094  -9.502  0.00  0.00     0.186 C 
BRANCH   5   6
HETATM    6  C           1     -22.287  -4.921  -8.411  0.00  0.00     0.045 C 
BRANCH   6   7
HETATM    7  C           1     -22.119  -4.221  -7.068  0.00  0.00     0.105 C 
BRANCH   7   8
HETATM    8  C           1     -21.401  -5.138  -6.109  0.00  0.00     0.215 C 
HETATM    9  O           1     -21.967  -6.107  -5.661  0.00  0.00    -0.274 OA
HETATM   10  N           1     -20.108  -4.872  -5.747  0.00  0.00    -0.370 N 
HETATM   11  H           1     -19.634  -4.061  -6.123  0.00  0.00     0.159 HD
HETATM   12  H           1     -19.626  -5.487  -5.104  0.00  0.00     0.159 HD
ENDBRANCH   7   8
ENDBRANCH   6   7
ENDBRANCH   5   6
BRANCH   5  13
HETATM   13  C           1     -20.168  -4.495  -9.620  0.00  0.00     0.196 C 
HETATM   14  O           1     -19.372  -4.236  -8.692  0.00  0.00    -0.646 OA
HETATM   15  O           1     -19.763  -5.086 -10.644  0.00  0.00    -0.646 OA
ENDBRANCH   5  13
ENDBRANCH   4   5
BRANCH   2  16
HETATM   16  C           1     -23.134  -3.558 -12.980  0.00  0.00     0.284 C 
BRANCH  16  17
HETATM   17  C           1     -24.089  -2.408 -13.272  0.00  0.00     0.155 C 
BRANCH  17  18
HETATM   18  C           1     -23.765  -1.815 -14.622  0.00  0.00     0.175 C 
HETATM   19  O           1     -22.796  -2.253 -15.280  0.00  0.00    -0.648 OA
HETATM   20  O           1     -24.466  -0.888 -15.082  0.00  0.00    -0.648 OA
ENDBRANCH  17  18
ENDBRANCH  16  17
BRANCH  16  21
HETATM   21  N           1     -23.906  -4.842 -12.903  0.00  0.00    -0.066 N 
HETATM   22  H           1     -24.581  -4.891 -13.699  0.00  0.00     0.275 HD
HETATM   23  H           1     -23.245  -5.648 -12.955  0.00  0.00     0.275 HD
HETATM   24  H           1     -24.430  -4.878 -11.999  0.00  0.00     0.275 HD
ENDBRANCH  16  21
ENDBRANCH   2  16
TORSDOF 9
ENDMDL
