MODEL 1
REMARK VINA RESULT:      -6.1      0.000      0.000
REMARK  9 active torsions:
REMARK  status: ('A' for Active; 'I' for Inactive)
REMARK    1  A    between atoms: C_4  and  C_25 
REMARK    2  A    between atoms: C_4  and  C_5 
REMARK    3  A    between atoms: C_5  and  Se_6 
REMARK    4  A    between atoms: N_8  and  C_25 
REMARK    5  A    between atoms: C_12  and  C_13 
REMARK    6  A    between atoms: C_12  and  C_17 
REMARK    7  A    between atoms: C_13  and  C_15 
REMARK    8  A    between atoms: C_13  and  N_23 
REMARK       I    between atoms: N_23  and  C_24 
REMARK    9  A    between atoms: C_24  and  C_25 
ROOT
HETATM    1  O           1     -33.154  -1.706 -10.458  0.00  0.00    -0.271 OA
HETATM    2  H           1     -35.860  -1.737  -9.632  0.00  0.00     0.163 HD
HETATM    3  N           1     -35.374  -1.468 -10.478  0.00  0.00    -0.344 N 
HETATM    4  C           1     -34.224  -2.115 -10.842  0.00  0.00     0.249 C 
ENDROOT
BRANCH   3   5
HETATM    5  C           1     -35.897  -0.398 -11.305  0.00  0.00     0.191 C 
BRANCH   5   6
HETATM    6  C           1     -36.607  -0.993 -12.514  0.00  0.00     0.094 C 
BRANCH   6   7
HETATM    7  C           1     -36.366  -0.129 -13.712  0.00  0.00     0.028 A 
HETATM    8  C           1     -37.275   0.076 -14.722  0.00  0.00     0.114 A 
HETATM    9  N           1     -36.647   0.920 -15.598  0.00  0.00    -0.360 N 
HETATM   10  H           1     -37.046   1.293 -16.495  0.00  0.00     0.166 HD
HETATM   11  C           1     -35.407   1.187 -15.091  0.00  0.00     0.180 A 
HETATM   12  N           1     -35.210   0.566 -13.951  0.00  0.00    -0.354 N 
ATOM     13  HN          1     -34.373   0.595 -13.367  1.00  0.00     0.166 HD
ENDBRANCH   6   7
ENDBRANCH   5   6
BRANCH   5  14
HETATM   14  C           1     -36.873   0.426 -10.502  0.00  0.00     0.197 C 
HETATM   15  O           1     -38.075   0.481 -10.844  0.00  0.00    -0.646 OA
HETATM   16  O           1     -36.480   1.055  -9.497  0.00  0.00    -0.646 OA
ENDBRANCH   5  14
ENDBRANCH   3   5
BRANCH   4  17
HETATM   17  C           1     -34.293  -3.340 -11.720  0.00  0.00     0.274 C 
BRANCH  17  18
HETATM   18  C           1     -35.050  -4.445 -10.994  0.00  0.00     0.042 C 
BRANCH  18  19
HETATM   19  C           1     -34.161  -5.676 -10.872  0.00  0.00     0.003 C 
BRANCH  19  20
HETATM   20 Se           1     -35.031  -6.996  -9.731  0.00  0.00     0.000 Se
HETATM   21  C           1     -33.806  -8.440 -10.191  0.00  0.00     0.000 C 
ENDBRANCH  19  20
ENDBRANCH  18  19
ENDBRANCH  17  18
BRANCH  17  22
HETATM   22  N           1     -32.902  -3.810 -12.030  0.00  0.00    -0.067 N 
HETATM   23  H           1     -32.254  -3.508 -11.268  0.00  0.00     0.275 HD
HETATM   24  H           1     -32.590  -3.397 -12.937  0.00  0.00     0.275 HD
HETATM   25  H           1     -32.894  -4.853 -12.101  0.00  0.00     0.275 HD
ENDBRANCH  17  22
ENDBRANCH   4  17
TORSDOF 9
ENDMDL
MODEL 2
REMARK VINA RESULT:      -6.0     11.939     13.777
REMARK  9 active torsions:
REMARK  status: ('A' for Active; 'I' for Inactive)
REMARK    1  A    between atoms: C_4  and  C_25 
REMARK    2  A    between atoms: C_4  and  C_5 
REMARK    3  A    between atoms: C_5  and  Se_6 
REMARK    4  A    between atoms: N_8  and  C_25 
REMARK    5  A    between atoms: C_12  and  C_13 
REMARK    6  A    between atoms: C_12  and  C_17 
REMARK    7  A    between atoms: C_13  and  C_15 
REMARK    8  A    between atoms: C_13  and  N_23 
REMARK       I    between atoms: N_23  and  C_24 
REMARK    9  A    between atoms: C_24  and  C_25 
ROOT
HETATM    1  O           1     -21.384  -3.106  -6.806  0.00  0.00    -0.271 OA
HETATM    2  H           1     -23.649  -4.660  -7.486  0.00  0.00     0.163 HD
HETATM    3  N           1     -22.939  -4.164  -8.009  0.00  0.00    -0.344 N 
HETATM    4  C           1     -21.672  -4.048  -7.505  0.00  0.00     0.249 C 
ENDROOT
BRANCH   3   5
HETATM    5  C           1     -23.264  -3.577  -9.295  0.00  0.00     0.191 C 
BRANCH   5   6
HETATM    6  C           1     -22.367  -4.180 -10.369  0.00  0.00     0.094 C 
BRANCH   6   7
HETATM    7  C           1     -22.831  -3.729 -11.719  0.00  0.00     0.028 A 
HETATM    8  C           1     -22.576  -2.492 -12.259  0.00  0.00     0.114 A 
HETATM    9  N           1     -23.178  -2.510 -13.487  0.00  0.00    -0.360 N 
HETATM   10  H           1     -23.189  -1.726 -14.186  0.00  0.00     0.166 HD
HETATM   11  C           1     -23.763  -3.735 -13.638  0.00  0.00     0.180 A 
HETATM   12  N           1     -23.570  -4.493 -12.583  0.00  0.00    -0.354 N 
ATOM     13  HN          1     -23.899  -5.448 -12.439  1.00  0.00     0.166 HD
ENDBRANCH   6   7
ENDBRANCH   5   6
BRANCH   5  14
HETATM   14  C           1     -24.708  -3.863  -9.626  0.00  0.00     0.197 C 
HETATM   15  O           1     -25.094  -5.043  -9.778  0.00  0.00    -0.646 OA
HETATM   16  O           1     -25.519  -2.920  -9.751  0.00  0.00    -0.646 OA
ENDBRANCH   5  14
ENDBRANCH   3   5
BRANCH   4  17
HETATM   17  C           1     -20.635  -5.098  -7.820  0.00  0.00     0.274 C 
BRANCH  17  18
HETATM   18  C           1     -20.220  -5.805  -6.536  0.00  0.00     0.042 C 
BRANCH  18  19
HETATM   19  C           1     -21.315  -6.777  -6.115  0.00  0.00     0.003 C 
BRANCH  19  20
HETATM   20 Se           1     -20.794  -7.667  -4.461  0.00  0.00     0.000 Se
HETATM   21  C           1     -21.442  -6.243  -3.299  0.00  0.00     0.000 C 
ENDBRANCH  19  20
ENDBRANCH  18  19
ENDBRANCH  17  18
BRANCH  17  22
HETATM   22  N           1     -19.435  -4.443  -8.438  0.00  0.00    -0.067 N 
HETATM   23  H           1     -18.569  -4.777  -7.958  0.00  0.00     0.275 HD
HETATM   24  H           1     -19.512  -3.407  -8.335  0.00  0.00     0.275 HD
HETATM   25  H           1     -19.387  -4.690  -9.453  0.00  0.00     0.275 HD
ENDBRANCH  17  22
ENDBRANCH   4  17
TORSDOF 9
ENDMDL
MODEL 3
REMARK VINA RESULT:      -5.9      2.265      3.621
REMARK  9 active torsions:
REMARK  status: ('A' for Active; 'I' for Inactive)
REMARK    1  A    between atoms: C_4  and  C_25 
REMARK    2  A    between atoms: C_4  and  C_5 
REMARK    3  A    between atoms: C_5  and  Se_6 
REMARK    4  A    between atoms: N_8  and  C_25 
REMARK    5  A    between atoms: C_12  and  C_13 
REMARK    6  A    between atoms: C_12  and  C_17 
REMARK    7  A    between atoms: C_13  and  C_15 
REMARK    8  A    between atoms: C_13  and  N_23 
REMARK       I    between atoms: N_23  and  C_24 
REMARK    9  A    between atoms: C_24  and  C_25 
ROOT
HETATM    1  O           1     -34.698  -3.449 -13.545  0.00  0.00    -0.271 OA
HETATM    2  H           1     -34.172  -0.676 -13.748  0.00  0.00     0.163 HD
HETATM    3  N           1     -34.765  -1.250 -13.162  0.00  0.00    -0.344 N 
HETATM    4  C           1     -34.380  -2.523 -12.838  0.00  0.00     0.249 C 
ENDROOT
BRANCH   3   5
HETATM    5  C           1     -36.021  -0.723 -12.665  0.00  0.00     0.191 C 
BRANCH   5   6
HETATM    6  C           1     -35.749   0.483 -11.776  0.00  0.00     0.094 C 
BRANCH   6   7
HETATM    7  C           1     -36.590   0.394 -10.541  0.00  0.00     0.028 A 
HETATM    8  C           1     -37.570  -0.545 -10.330  0.00  0.00     0.114 A 
HETATM    9  N           1     -38.075  -0.258  -9.091  0.00  0.00    -0.360 N 
HETATM   10  H           1     -38.846  -0.775  -8.600  0.00  0.00     0.166 HD
HETATM   11  C           1     -37.392   0.823  -8.611  0.00  0.00     0.180 A 
HETATM   12  N           1     -36.488   1.239  -9.467  0.00  0.00    -0.354 N 
ATOM     13  HN          1     -35.845   2.024  -9.355  1.00  0.00     0.166 HD
ENDBRANCH   6   7
ENDBRANCH   5   6
BRANCH   5  14
HETATM   14  C           1     -36.886  -0.307 -13.829  0.00  0.00     0.197 C 
HETATM   15  O           1     -36.414   0.420 -14.730  0.00  0.00    -0.646 OA
HETATM   16  O           1     -38.075  -0.687 -13.890  0.00  0.00    -0.646 OA
ENDBRANCH   5  14
ENDBRANCH   3   5
BRANCH   4  17
HETATM   17  C           1     -33.556  -2.769 -11.597  0.00  0.00     0.274 C 
BRANCH  17  18
HETATM   18  C           1     -33.017  -4.194 -11.619  0.00  0.00     0.042 C 
BRANCH  18  19
HETATM   19  C           1     -33.697  -5.011 -10.528  0.00  0.00     0.003 C 
BRANCH  19  20
HETATM   20 Se           1     -34.759  -6.428 -11.343  0.00  0.00     0.000 Se
HETATM   21  C           1     -34.967  -7.444  -9.692  0.00  0.00     0.000 C 
ENDBRANCH  19  20
ENDBRANCH  18  19
ENDBRANCH  17  18
BRANCH  17  22
HETATM   22  N           1     -34.415  -2.579 -10.382  0.00  0.00    -0.067 N 
HETATM   23  H           1     -35.421  -2.572 -10.664  0.00  0.00     0.275 HD
HETATM   24  H           1     -34.174  -1.672  -9.925  0.00  0.00     0.275 HD
HETATM   25  H           1     -34.247  -3.363  -9.711  0.00  0.00     0.275 HD
ENDBRANCH  17  22
ENDBRANCH   4  17
TORSDOF 9
ENDMDL
MODEL 4
REMARK VINA RESULT:      -5.8     13.121     15.416
REMARK  9 active torsions:
REMARK  status: ('A' for Active; 'I' for Inactive)
REMARK    1  A    between atoms: C_4  and  C_25 
REMARK    2  A    between atoms: C_4  and  C_5 
REMARK    3  A    between atoms: C_5  and  Se_6 
REMARK    4  A    between atoms: N_8  and  C_25 
REMARK    5  A    between atoms: C_12  and  C_13 
REMARK    6  A    between atoms: C_12  and  C_17 
REMARK    7  A    between atoms: C_13  and  C_15 
REMARK    8  A    between atoms: C_13  and  N_23 
REMARK       I    between atoms: N_23  and  C_24 
REMARK    9  A    between atoms: C_24  and  C_25 
ROOT
HETATM    1  O           1     -19.340  -7.024  -6.421  0.00  0.00    -0.271 OA
HETATM    2  H           1     -20.677  -4.584  -5.904  0.00  0.00     0.163 HD
HETATM    3  N           1     -20.783  -5.327  -6.582  0.00  0.00    -0.344 N 
HETATM    4  C           1     -20.463  -6.614  -6.244  0.00  0.00     0.249 C 
ENDROOT
BRANCH   3   5
HETATM    5  C           1     -21.276  -5.029  -7.913  0.00  0.00     0.191 C 
BRANCH   5   6
HETATM    6  C           1     -22.414  -4.021  -7.819  0.00  0.00     0.094 C 
BRANCH   6   7
HETATM    7  C           1     -23.243  -4.085  -9.063  0.00  0.00     0.028 A 
HETATM    8  C           1     -24.350  -3.307  -9.304  0.00  0.00     0.114 A 
HETATM    9  N           1     -24.791  -3.692 -10.541  0.00  0.00    -0.360 N 
HETATM   10  H           1     -25.624  -3.306 -11.051  0.00  0.00     0.166 HD
HETATM   11  C           1     -23.949  -4.669 -10.990  0.00  0.00     0.180 A 
HETATM   12  N           1     -23.004  -4.928 -10.116  0.00  0.00    -0.354 N 
ATOM     13  HN          1     -22.250  -5.611 -10.204  1.00  0.00     0.166 HD
ENDBRANCH   6   7
ENDBRANCH   5   6
BRANCH   5  14
HETATM   14  C           1     -20.157  -4.449  -8.744  0.00  0.00     0.197 C 
HETATM   15  O           1     -20.006  -4.813  -9.930  0.00  0.00    -0.646 OA
HETATM   16  O           1     -19.382  -3.606  -8.245  0.00  0.00    -0.646 OA
ENDBRANCH   5  14
ENDBRANCH   3   5
BRANCH   4  17
HETATM   17  C           1     -21.511  -7.521  -5.647  0.00  0.00     0.274 C 
BRANCH  17  18
HETATM   18  C           1     -21.675  -7.205  -4.166  0.00  0.00     0.042 C 
BRANCH  18  19
HETATM   19  C           1     -20.789  -8.134  -3.346  0.00  0.00     0.003 C 
BRANCH  19  20
HETATM   20 Se           1     -21.179  -7.900  -1.451  0.00  0.00     0.000 Se
HETATM   21  C           1     -22.252  -6.293  -1.703  0.00  0.00     0.000 C 
ENDBRANCH  19  20
ENDBRANCH  18  19
ENDBRANCH  17  18
BRANCH  17  22
HETATM   22  N           1     -21.084  -8.950  -5.807  0.00  0.00    -0.067 N 
HETATM   23  H           1     -20.279  -9.001  -6.472  0.00  0.00     0.275 HD
HETATM   24  H           1     -21.881  -9.512  -6.182  0.00  0.00     0.275 HD
HETATM   25  H           1     -20.793  -9.333  -4.879  0.00  0.00     0.275 HD
ENDBRANCH  17  22
ENDBRANCH   4  17
TORSDOF 9
ENDMDL
MODEL 5
REMARK VINA RESULT:      -5.8     12.993     16.115
REMARK  9 active torsions:
REMARK  status: ('A' for Active; 'I' for Inactive)
REMARK    1  A    between atoms: C_4  and  C_25 
REMARK    2  A    between atoms: C_4  and  C_5 
REMARK    3  A    between atoms: C_5  and  Se_6 
REMARK    4  A    between atoms: N_8  and  C_25 
REMARK    5  A    between atoms: C_12  and  C_13 
REMARK    6  A    between atoms: C_12  and  C_17 
REMARK    7  A    between atoms: C_13  and  C_15 
REMARK    8  A    between atoms: C_13  and  N_23 
REMARK       I    between atoms: N_23  and  C_24 
REMARK    9  A    between atoms: C_24  and  C_25 
ROOT
HETATM    1  O           1     -21.366  -3.663  -9.090  0.00  0.00    -0.271 OA
HETATM    2  H           1     -20.876  -6.398  -8.555  0.00  0.00     0.163 HD
HETATM    3  N           1     -21.310  -5.638  -8.047  0.00  0.00    -0.344 N 
HETATM    4  C           1     -21.966  -4.647  -8.727  0.00  0.00     0.249 C 
ENDROOT
BRANCH   3   5
HETATM    5  C           1     -21.235  -5.596  -6.600  0.00  0.00     0.191 C 
BRANCH   5   6
HETATM    6  C           1     -21.207  -7.018  -6.053  0.00  0.00     0.094 C 
BRANCH   6   7
HETATM    7  C           1     -21.361  -6.984  -4.564  0.00  0.00     0.028 A 
HETATM    8  C           1     -20.716  -7.829  -3.694  0.00  0.00     0.114 A 
HETATM    9  N           1     -21.144  -7.451  -2.451  0.00  0.00    -0.360 N 
HETATM   10  H           1     -20.856  -7.882  -1.537  0.00  0.00     0.166 HD
HETATM   11  C           1     -22.013  -6.411  -2.615  0.00  0.00     0.180 A 
HETATM   12  N           1     -22.164  -6.107  -3.884  0.00  0.00    -0.354 N 
ATOM     13  HN          1     -22.754  -5.374  -4.279  1.00  0.00     0.166 HD
ENDBRANCH   6   7
ENDBRANCH   5   6
BRANCH   5  14
HETATM   14  C           1     -19.980  -4.871  -6.182  0.00  0.00     0.197 C 
HETATM   15  O           1     -19.007  -4.802  -6.965  0.00  0.00    -0.646 OA
HETATM   16  O           1     -19.912  -4.341  -5.052  0.00  0.00    -0.646 OA
ENDBRANCH   5  14
ENDBRANCH   3   5
BRANCH   4  17
HETATM   17  C           1     -23.439  -4.786  -9.027  0.00  0.00     0.274 C 
BRANCH  17  18
HETATM   18  C           1     -23.659  -4.729 -10.533  0.00  0.00     0.042 C 
BRANCH  18  19
HETATM   19  C           1     -24.465  -3.484 -10.882  0.00  0.00     0.003 C 
BRANCH  19  20
HETATM   20 Se           1     -24.050  -2.932 -12.705  0.00  0.00     0.000 Se
HETATM   21  C           1     -22.140  -3.289 -12.553  0.00  0.00     0.000 C 
ENDBRANCH  19  20
ENDBRANCH  18  19
ENDBRANCH  17  18
BRANCH  17  22
HETATM   22  N           1     -24.189  -3.665  -8.370  0.00  0.00    -0.067 N 
HETATM   23  H           1     -25.064  -3.469  -8.907  0.00  0.00     0.275 HD
HETATM   24  H           1     -23.591  -2.809  -8.355  0.00  0.00     0.275 HD
HETATM   25  H           1     -24.434  -3.936  -7.391  0.00  0.00     0.275 HD
ENDBRANCH  17  22
ENDBRANCH   4  17
TORSDOF 9
ENDMDL
MODEL 6
REMARK VINA RESULT:      -5.7     13.133     15.001
REMARK  9 active torsions:
REMARK  status: ('A' for Active; 'I' for Inactive)
REMARK    1  A    between atoms: C_4  and  C_25 
REMARK    2  A    between atoms: C_4  and  C_5 
REMARK    3  A    between atoms: C_5  and  Se_6 
REMARK    4  A    between atoms: N_8  and  C_25 
REMARK    5  A    between atoms: C_12  and  C_13 
REMARK    6  A    between atoms: C_12  and  C_17 
REMARK    7  A    between atoms: C_13  and  C_15 
REMARK    8  A    between atoms: C_13  and  N_23 
REMARK       I    between atoms: N_23  and  C_24 
REMARK    9  A    between atoms: C_24  and  C_25 
ROOT
HETATM    1  O           1     -19.041  -4.821  -7.399  0.00  0.00    -0.271 OA
HETATM    2  H           1     -21.397  -3.255  -7.417  0.00  0.00     0.163 HD
HETATM    3  N           1     -21.100  -4.104  -7.880  0.00  0.00    -0.344 N 
HETATM    4  C           1     -20.232  -4.958  -7.255  0.00  0.00     0.249 C 
ENDROOT
BRANCH   3   5
HETATM    5  C           1     -21.594  -4.416  -9.208  0.00  0.00     0.191 C 
BRANCH   5   6
HETATM    6  C           1     -22.818  -3.561  -9.507  0.00  0.00     0.094 C 
BRANCH   6   7
HETATM    7  C           1     -23.193  -3.712 -10.949  0.00  0.00     0.028 A 
HETATM    8  C           1     -23.584  -4.892 -11.534  0.00  0.00     0.114 A 
HETATM    9  N           1     -23.827  -4.575 -12.843  0.00  0.00    -0.360 N 
HETATM   10  H           1     -24.145  -5.237 -13.593  0.00  0.00     0.166 HD
HETATM   11  C           1     -23.578  -3.240 -12.994  0.00  0.00     0.180 A 
HETATM   12  N           1     -23.193  -2.692 -11.865  0.00  0.00    -0.354 N 
ATOM     13  HN          1     -22.947  -1.715 -11.703  1.00  0.00     0.166 HD
ENDBRANCH   6   7
ENDBRANCH   5   6
BRANCH   5  14
HETATM   14  C           1     -20.517  -4.127 -10.224  0.00  0.00     0.197 C 
HETATM   15  O           1     -19.810  -5.059 -10.668  0.00  0.00    -0.646 OA
HETATM   16  O           1     -20.330  -2.957 -10.621  0.00  0.00    -0.646 OA
ENDBRANCH   5  14
ENDBRANCH   3   5
BRANCH   4  17
HETATM   17  C           1     -20.764  -6.069  -6.383  0.00  0.00     0.274 C 
BRANCH  17  18
HETATM   18  C           1     -20.911  -5.567  -4.952  0.00  0.00     0.042 C 
BRANCH  18  19
HETATM   19  C           1     -21.963  -6.396  -4.227  0.00  0.00     0.003 C 
BRANCH  19  20
HETATM   20 Se           1     -21.119  -7.405  -2.789  0.00  0.00     0.000 Se
HETATM   21  C           1     -22.286  -6.706  -1.393  0.00  0.00     0.000 C 
ENDBRANCH  19  20
ENDBRANCH  18  19
ENDBRANCH  17  18
BRANCH  17  22
HETATM   22  N           1     -19.808  -7.225  -6.410  0.00  0.00    -0.067 N 
HETATM   23  H           1     -19.122  -7.092  -7.187  0.00  0.00     0.275 HD
HETATM   24  H           1     -20.339  -8.111  -6.562  0.00  0.00     0.275 HD
HETATM   25  H           1     -19.298  -7.276  -5.499  0.00  0.00     0.275 HD
ENDBRANCH  17  22
ENDBRANCH   4  17
TORSDOF 9
ENDMDL
MODEL 7
REMARK VINA RESULT:      -5.5     10.417     12.548
REMARK  9 active torsions:
REMARK  status: ('A' for Active; 'I' for Inactive)
REMARK    1  A    between atoms: C_4  and  C_25 
REMARK    2  A    between atoms: C_4  and  C_5 
REMARK    3  A    between atoms: C_5  and  Se_6 
REMARK    4  A    between atoms: N_8  and  C_25 
REMARK    5  A    between atoms: C_12  and  C_13 
REMARK    6  A    between atoms: C_12  and  C_17 
REMARK    7  A    between atoms: C_13  and  C_15 
REMARK    8  A    between atoms: C_13  and  N_23 
REMARK       I    between atoms: N_23  and  C_24 
REMARK    9  A    between atoms: C_24  and  C_25 
ROOT
HETATM    1  O           1     -28.261  -5.916 -15.979  0.00  0.00    -0.271 OA
HETATM    2  H           1     -26.609  -5.092 -18.123  0.00  0.00     0.163 HD
HETATM    3  N           1     -26.763  -5.964 -17.634  0.00  0.00    -0.344 N 
HETATM    4  C           1     -27.995  -6.247 -17.110  0.00  0.00     0.249 C 
ENDROOT
BRANCH   3   5
HETATM    5  C           1     -25.678  -6.915 -17.489  0.00  0.00     0.191 C 
BRANCH   5   6
HETATM    6  C           1     -24.613  -6.633 -18.541  0.00  0.00     0.094 C 
BRANCH   6   7
HETATM    7  C           1     -24.947  -7.368 -19.802  0.00  0.00     0.028 A 
HETATM    8  C           1     -24.020  -7.897 -20.667  0.00  0.00     0.114 A 
HETATM    9  N           1     -24.755  -8.470 -21.668  0.00  0.00    -0.360 N 
HETATM   10  H           1     -24.375  -8.971 -22.508  0.00  0.00     0.166 HD
HETATM   11  C           1     -26.074  -8.269 -21.374  0.00  0.00     0.180 A 
HETATM   12  N           1     -26.220  -7.605 -20.251  0.00  0.00    -0.354 N 
ATOM     13  HN          1     -27.095  -7.326 -19.806  1.00  0.00     0.166 HD
ENDBRANCH   6   7
ENDBRANCH   5   6
BRANCH   5  14
HETATM   14  C           1     -25.074  -6.782 -16.113  0.00  0.00     0.197 C 
HETATM   15  O           1     -25.019  -5.661 -15.560  0.00  0.00    -0.646 OA
HETATM   16  O           1     -24.627  -7.791 -15.527  0.00  0.00    -0.646 OA
ENDBRANCH   5  14
ENDBRANCH   3   5
BRANCH   4  17
HETATM   17  C           1     -29.023  -6.971 -17.945  0.00  0.00     0.274 C 
BRANCH  17  18
HETATM   18  C           1     -30.225  -6.063 -18.170  0.00  0.00     0.042 C 
BRANCH  18  19
HETATM   19  C           1     -31.370  -6.502 -17.267  0.00  0.00     0.003 C 
BRANCH  19  20
HETATM   20 Se           1     -32.295  -4.930 -16.578  0.00  0.00     0.000 Se
HETATM   21  C           1     -31.362  -3.672 -17.738  0.00  0.00     0.000 C 
ENDBRANCH  19  20
ENDBRANCH  18  19
ENDBRANCH  17  18
BRANCH  17  22
HETATM   22  N           1     -29.463  -8.213 -17.228  0.00  0.00    -0.067 N 
HETATM   23  H           1     -28.628  -8.709 -16.845  0.00  0.00     0.275 HD
HETATM   24  H           1     -29.964  -8.840 -17.896  0.00  0.00     0.275 HD
HETATM   25  H           1     -30.105  -7.954 -16.445  0.00  0.00     0.275 HD
ENDBRANCH  17  22
ENDBRANCH   4  17
TORSDOF 9
ENDMDL
MODEL 8
REMARK VINA RESULT:      -5.5     14.554     17.363
REMARK  9 active torsions:
REMARK  status: ('A' for Active; 'I' for Inactive)
REMARK    1  A    between atoms: C_4  and  C_25 
REMARK    2  A    between atoms: C_4  and  C_5 
REMARK    3  A    between atoms: C_5  and  Se_6 
REMARK    4  A    between atoms: N_8  and  C_25 
REMARK    5  A    between atoms: C_12  and  C_13 
REMARK    6  A    between atoms: C_12  and  C_17 
REMARK    7  A    between atoms: C_13  and  C_15 
REMARK    8  A    between atoms: C_13  and  N_23 
REMARK       I    between atoms: N_23  and  C_24 
REMARK    9  A    between atoms: C_24  and  C_25 
ROOT
HETATM    1  O           1     -19.295  -4.675  -6.988  0.00  0.00    -0.271 OA
HETATM    2  H           1     -20.113  -7.341  -7.471  0.00  0.00     0.163 HD
HETATM    3  N           1     -20.225  -6.686  -6.708  0.00  0.00    -0.344 N 
HETATM    4  C           1     -20.301  -5.343  -6.963  0.00  0.00     0.249 C 
ENDROOT
BRANCH   3   5
HETATM    5  C           1     -20.306  -7.171  -5.344  0.00  0.00     0.191 C 
BRANCH   5   6
HETATM    6  C           1     -21.763  -7.194  -4.899  0.00  0.00     0.094 C 
BRANCH   6   7
HETATM    7  C           1     -21.833  -7.098  -3.407  0.00  0.00     0.028 A 
HETATM    8  C           1     -21.424  -8.084  -2.542  0.00  0.00     0.114 A 
HETATM    9  N           1     -21.666  -7.581  -1.292  0.00  0.00    -0.360 N 
HETATM   10  H           1     -21.475  -8.065  -0.381  0.00  0.00     0.166 HD
HETATM   11  C           1     -22.201  -6.334  -1.449  0.00  0.00     0.180 A 
HETATM   12  N           1     -22.314  -6.016  -2.718  0.00  0.00    -0.354 N 
ATOM     13  HN          1     -22.681  -5.147  -3.108  1.00  0.00     0.166 HD
ENDBRANCH   6   7
ENDBRANCH   5   6
BRANCH   5  14
HETATM   14  C           1     -19.735  -8.565  -5.272  0.00  0.00     0.197 C 
HETATM   15  O           1     -20.366  -9.526  -5.767  0.00  0.00    -0.646 OA
HETATM   16  O           1     -18.634  -8.761  -4.715  0.00  0.00    -0.646 OA
ENDBRANCH   5  14
ENDBRANCH   3   5
BRANCH   4  17
HETATM   17  C           1     -21.642  -4.698  -7.215  0.00  0.00     0.274 C 
BRANCH  17  18
HETATM   18  C           1     -22.125  -5.058  -8.614  0.00  0.00     0.042 C 
BRANCH  18  19
HETATM   19  C           1     -22.439  -3.784  -9.388  0.00  0.00     0.003 C 
BRANCH  19  20
HETATM   20 Se           1     -21.265  -3.660 -10.939  0.00  0.00     0.000 Se
HETATM   21  C           1     -22.560  -2.713 -12.047  0.00  0.00     0.000 C 
ENDBRANCH  19  20
ENDBRANCH  18  19
ENDBRANCH  17  18
BRANCH  17  22
HETATM   22  N           1     -21.507  -3.208  -7.103  0.00  0.00    -0.067 N 
HETATM   23  H           1     -21.634  -2.774  -8.045  0.00  0.00     0.275 HD
HETATM   24  H           1     -20.558  -2.972  -6.735  0.00  0.00     0.275 HD
HETATM   25  H           1     -22.235  -2.840  -6.449  0.00  0.00     0.275 HD
ENDBRANCH  17  22
ENDBRANCH   4  17
TORSDOF 9
ENDMDL
MODEL 9
REMARK VINA RESULT:      -5.4     15.372     18.364
REMARK  9 active torsions:
REMARK  status: ('A' for Active; 'I' for Inactive)
REMARK    1  A    between atoms: C_4  and  C_25 
REMARK    2  A    between atoms: C_4  and  C_5 
REMARK    3  A    between atoms: C_5  and  Se_6 
REMARK    4  A    between atoms: N_8  and  C_25 
REMARK    5  A    between atoms: C_12  and  C_13 
REMARK    6  A    between atoms: C_12  and  C_17 
REMARK    7  A    between atoms: C_13  and  C_15 
REMARK    8  A    between atoms: C_13  and  N_23 
REMARK       I    between atoms: N_23  and  C_24 
REMARK    9  A    between atoms: C_24  and  C_25 
ROOT
HETATM    1  O           1     -22.771  -6.109  -4.701  0.00  0.00    -0.271 OA
HETATM    2  H           1     -21.241  -5.684  -2.359  0.00  0.00     0.163 HD
HETATM    3  N           1     -21.413  -6.475  -2.966  0.00  0.00    -0.344 N 
HETATM    4  C           1     -21.643  -6.276  -4.301  0.00  0.00     0.249 C 
ENDROOT
BRANCH   3   5
HETATM    5  C           1     -21.415  -7.819  -2.423  0.00  0.00     0.191 C 
BRANCH   5   6
HETATM    6  C           1     -19.981  -8.265  -2.168  0.00  0.00     0.094 C 
BRANCH   6   7
HETATM    7  C           1     -19.532  -9.165  -3.278  0.00  0.00     0.028 A 
HETATM    8  C           1     -20.356 -10.016  -3.973  0.00  0.00     0.114 A 
HETATM    9  N           1     -19.540 -10.636  -4.880  0.00  0.00    -0.360 N 
HETATM   10  H           1     -19.831 -11.358  -5.585  0.00  0.00     0.166 HD
HETATM   11  C           1     -18.279 -10.143  -4.700  0.00  0.00     0.180 A 
HETATM   12  N           1     -18.244  -9.251  -3.737  0.00  0.00    -0.354 N 
ATOM     13  HN          1     -17.431  -8.733  -3.403  1.00  0.00     0.166 HD
ENDBRANCH   6   7
ENDBRANCH   5   6
BRANCH   5  14
HETATM   14  C           1     -22.185  -7.834  -1.125  0.00  0.00     0.197 C 
HETATM   15  O           1     -22.730  -6.789  -0.709  0.00  0.00    -0.646 OA
HETATM   16  O           1     -22.276  -8.892  -0.466  0.00  0.00    -0.646 OA
ENDBRANCH   5  14
ENDBRANCH   3   5
BRANCH   4  17
HETATM   17  C           1     -20.488  -6.263  -5.273  0.00  0.00     0.274 C 
BRANCH  17  18
HETATM   18  C           1     -20.351  -4.873  -5.881  0.00  0.00     0.042 C 
BRANCH  18  19
HETATM   19  C           1     -19.438  -4.938  -7.098  0.00  0.00     0.003 C 
BRANCH  19  20
HETATM   20 Se           1     -20.423  -4.371  -8.682  0.00  0.00     0.000 Se
HETATM   21  C           1     -22.096  -4.062  -7.731  0.00  0.00     0.000 C 
ENDBRANCH  19  20
ENDBRANCH  18  19
ENDBRANCH  17  18
BRANCH  17  22
HETATM   22  N           1     -20.743  -7.262  -6.363  0.00  0.00    -0.067 N 
HETATM   23  H           1     -21.705  -7.124  -6.744  0.00  0.00     0.275 HD
HETATM   24  H           1     -20.656  -8.228  -5.976  0.00  0.00     0.275 HD
HETATM   25  H           1     -20.043  -7.129  -7.128  0.00  0.00     0.275 HD
ENDBRANCH  17  22
ENDBRANCH   4  17
TORSDOF 9
ENDMDL
