MODEL 1
REMARK VINA RESULT:      -7.7      0.000      0.000
REMARK  8 active torsions:
REMARK  status: ('A' for Active; 'I' for Inactive)
REMARK    1  A    between atoms: C_1  and  C_19 
REMARK    2  A    between atoms: N_2  and  C_19 
REMARK       I    between atoms: N_2  and  C_13 
REMARK    3  A    between atoms: N_3  and  C_24 
REMARK    4  A    between atoms: C_9  and  C_20 
REMARK    5  A    between atoms: C_12  and  C_24 
REMARK    6  A    between atoms: C_12  and  C_28 
REMARK    7  A    between atoms: C_13  and  C_24 
REMARK    8  A    between atoms: C_19  and  C_20 
ROOT
HETATM    1  N           1     -34.892  -0.765 -13.812  0.00  0.00    -0.344 N 
HETATM    2  O           1     -36.229   0.762 -14.743  0.00  0.00    -0.271 OA
HETATM    3  C           1     -35.782  -0.359 -14.771  0.00  0.00     0.249 C 
HETATM    4  H           1     -33.899  -0.637 -13.957  0.00  0.00     0.163 HD
ENDROOT
BRANCH   3   5
HETATM    5  C           1     -36.201  -1.313 -15.862  0.00  0.00     0.280 C 
BRANCH   5   6
HETATM    6  N           1     -37.454  -0.807 -16.514  0.00  0.00    -0.066 N 
HETATM    7  H           1     -37.257  -0.569 -17.512  0.00  0.00     0.275 HD
HETATM    8  H           1     -38.190  -1.546 -16.471  0.00  0.00     0.275 HD
HETATM    9  H           1     -37.786   0.047 -16.012  0.00  0.00     0.275 HD
ENDBRANCH   5   6
BRANCH   5  10
HETATM   10  C           1     -35.094  -1.413 -16.903  0.00  0.00     0.101 C 
BRANCH  10  11
HETATM   11  C           1     -34.315  -2.673 -16.685  0.00  0.00     0.028 A 
HETATM   12  N           1     -33.185  -3.021 -17.379  0.00  0.00    -0.355 N 
HETATM   13  C           1     -32.819  -4.182 -16.886  0.00  0.00     0.180 A 
ATOM     14  HN          1     -32.728  -2.491 -18.121  1.00  0.00     0.166 HD
HETATM   15  N           1     -33.668  -4.596 -15.899  0.00  0.00    -0.360 N 
HETATM   16  H           1     -33.592  -5.488 -15.349  0.00  0.00     0.166 HD
HETATM   17  C           1     -34.633  -3.638 -15.758  0.00  0.00     0.114 A 
ENDBRANCH  10  11
ENDBRANCH   5  10
ENDBRANCH   3   5
BRANCH   1  18
HETATM   18  C           1     -35.374  -1.378 -12.589  0.00  0.00     0.189 C 
BRANCH  18  19
HETATM   19  C           1     -36.372  -0.460 -11.926  0.00  0.00     0.197 C 
HETATM   20  O           1     -35.973   0.517 -11.257  0.00  0.00    -0.646 OA
HETATM   21  O           1     -37.597  -0.678 -12.047  0.00  0.00    -0.646 OA
ENDBRANCH  18  19
BRANCH  18  22
HETATM   22  C           1     -34.202  -1.620 -11.648  0.00  0.00     0.074 C 
BRANCH  22  23
HETATM   23  C           1     -34.028  -3.091 -11.435  0.00  0.00    -0.056 A 
HETATM   24  C           1     -35.054  -3.837 -10.854  0.00  0.00     0.007 A 
HETATM   25  C           1     -34.894  -5.208 -10.655  0.00  0.00     0.001 A 
HETATM   26  C           1     -33.707  -5.834 -11.037  0.00  0.00     0.000 A 
HETATM   27  C           1     -32.681  -5.088 -11.617  0.00  0.00     0.001 A 
HETATM   28  C           1     -32.842  -3.717 -11.816  0.00  0.00     0.007 A 
ENDBRANCH  22  23
ENDBRANCH  18  22
ENDBRANCH   1  18
TORSDOF 8
ENDMDL
MODEL 2
REMARK VINA RESULT:      -7.3     15.021     17.195
REMARK  8 active torsions:
REMARK  status: ('A' for Active; 'I' for Inactive)
REMARK    1  A    between atoms: C_1  and  C_19 
REMARK    2  A    between atoms: N_2  and  C_19 
REMARK       I    between atoms: N_2  and  C_13 
REMARK    3  A    between atoms: N_3  and  C_24 
REMARK    4  A    between atoms: C_9  and  C_20 
REMARK    5  A    between atoms: C_12  and  C_24 
REMARK    6  A    between atoms: C_12  and  C_28 
REMARK    7  A    between atoms: C_13  and  C_24 
REMARK    8  A    between atoms: C_19  and  C_20 
ROOT
HETATM    1  N           1     -20.814  -7.599  -6.034  0.00  0.00    -0.344 N 
HETATM    2  O           1     -19.336  -6.504  -7.299  0.00  0.00    -0.271 OA
HETATM    3  C           1     -20.280  -6.448  -6.549  0.00  0.00     0.249 C 
HETATM    4  H           1     -21.556  -8.078  -6.527  0.00  0.00     0.163 HD
ENDROOT
BRANCH   3   5
HETATM    5  C           1     -20.874  -5.111  -6.180  0.00  0.00     0.280 C 
BRANCH   5   6
HETATM    6  N           1     -20.218  -4.601  -4.931  0.00  0.00    -0.066 N 
HETATM    7  H           1     -20.491  -5.203  -4.122  0.00  0.00     0.275 HD
HETATM    8  H           1     -19.181  -4.625  -5.048  0.00  0.00     0.275 HD
HETATM    9  H           1     -20.527  -3.619  -4.752  0.00  0.00     0.275 HD
ENDBRANCH   5   6
BRANCH   5  10
HETATM   10  C           1     -20.641  -4.121  -7.314  0.00  0.00     0.101 C 
BRANCH  10  11
HETATM   11  C           1     -21.812  -4.147  -8.248  0.00  0.00     0.028 A 
HETATM   12  N           1     -23.116  -3.970  -7.867  0.00  0.00    -0.355 N 
HETATM   13  C           1     -23.816  -4.064  -8.973  0.00  0.00     0.180 A 
ATOM     14  HN          1     -23.468  -3.803  -6.924  1.00  0.00     0.166 HD
HETATM   15  N           1     -23.014  -4.292 -10.055  0.00  0.00    -0.360 N 
HETATM   16  H           1     -23.330  -4.405 -11.050  0.00  0.00     0.166 HD
HETATM   17  C           1     -21.724  -4.348  -9.605  0.00  0.00     0.114 A 
ENDBRANCH  10  11
ENDBRANCH   5  10
ENDBRANCH   3   5
BRANCH   1  18
HETATM   18  C           1     -20.314  -8.132  -4.782  0.00  0.00     0.189 C 
BRANCH  18  19
HETATM   19  C           1     -19.126  -9.023  -5.052  0.00  0.00     0.197 C 
HETATM   20  O           1     -19.055  -9.661  -6.124  0.00  0.00    -0.646 OA
HETATM   21  O           1     -18.214  -9.122  -4.204  0.00  0.00    -0.646 OA
ENDBRANCH  18  19
BRANCH  18  22
HETATM   22  C           1     -21.411  -8.941  -4.102  0.00  0.00     0.074 C 
BRANCH  22  23
HETATM   23  C           1     -21.732  -8.329  -2.773  0.00  0.00    -0.056 A 
HETATM   24  C           1     -21.899  -9.144  -1.654  0.00  0.00     0.007 A 
HETATM   25  C           1     -22.198  -8.576  -0.415  0.00  0.00     0.001 A 
HETATM   26  C           1     -22.328  -7.192  -0.297  0.00  0.00     0.000 A 
HETATM   27  C           1     -22.160  -6.377  -1.417  0.00  0.00     0.001 A 
HETATM   28  C           1     -21.862  -6.947  -2.655  0.00  0.00     0.007 A 
ENDBRANCH  22  23
ENDBRANCH  18  22
ENDBRANCH   1  18
TORSDOF 8
ENDMDL
MODEL 3
REMARK VINA RESULT:      -7.0     14.486     17.142
REMARK  8 active torsions:
REMARK  status: ('A' for Active; 'I' for Inactive)
REMARK    1  A    between atoms: C_1  and  C_19 
REMARK    2  A    between atoms: N_2  and  C_19 
REMARK       I    between atoms: N_2  and  C_13 
REMARK    3  A    between atoms: N_3  and  C_24 
REMARK    4  A    between atoms: C_9  and  C_20 
REMARK    5  A    between atoms: C_12  and  C_24 
REMARK    6  A    between atoms: C_12  and  C_28 
REMARK    7  A    between atoms: C_13  and  C_24 
REMARK    8  A    between atoms: C_19  and  C_20 
ROOT
HETATM    1  N           1     -22.203  -5.570  -5.646  0.00  0.00    -0.344 N 
HETATM    2  O           1     -20.798  -5.612  -3.912  0.00  0.00    -0.271 OA
HETATM    3  C           1     -21.526  -6.226  -4.653  0.00  0.00     0.249 C 
HETATM    4  H           1     -23.124  -5.191  -5.466  0.00  0.00     0.163 HD
ENDROOT
BRANCH   3   5
HETATM    5  C           1     -21.693  -7.716  -4.485  0.00  0.00     0.280 C 
BRANCH   5   6
HETATM    6  N           1     -21.306  -8.409  -5.758  0.00  0.00    -0.066 N 
HETATM    7  H           1     -22.166  -8.748  -6.246  0.00  0.00     0.275 HD
HETATM    8  H           1     -20.796  -7.740  -6.376  0.00  0.00     0.275 HD
HETATM    9  H           1     -20.688  -9.222  -5.537  0.00  0.00     0.275 HD
ENDBRANCH   5   6
BRANCH   5  10
HETATM   10  C           1     -20.799  -8.203  -3.351  0.00  0.00     0.101 C 
BRANCH  10  11
HETATM   11  C           1     -21.572  -8.204  -2.069  0.00  0.00     0.028 A 
HETATM   12  N           1     -21.959  -7.077  -1.392  0.00  0.00    -0.355 N 
HETATM   13  C           1     -22.606  -7.512  -0.336  0.00  0.00     0.180 A 
ATOM     14  HN          1     -21.782  -6.107  -1.654  1.00  0.00     0.166 HD
HETATM   15  N           1     -22.653  -8.877  -0.305  0.00  0.00    -0.360 N 
HETATM   16  H           1     -23.111  -9.466   0.434  0.00  0.00     0.166 HD
HETATM   17  C           1     -21.994  -9.336  -1.412  0.00  0.00     0.114 A 
ENDBRANCH  10  11
ENDBRANCH   5  10
ENDBRANCH   3   5
BRANCH   1  18
HETATM   18  C           1     -21.600  -5.418  -6.956  0.00  0.00     0.189 C 
BRANCH  18  19
HETATM   19  C           1     -20.099  -5.523  -6.834  0.00  0.00     0.197 C 
HETATM   20  O           1     -19.528  -6.610  -7.063  0.00  0.00    -0.646 OA
HETATM   21  O           1     -19.428  -4.521  -6.504  0.00  0.00    -0.646 OA
ENDBRANCH  18  19
BRANCH  18  22
HETATM   22  C           1     -21.970  -4.057  -7.529  0.00  0.00     0.074 C 
BRANCH  22  23
HETATM   23  C           1     -22.170  -4.175  -9.008  0.00  0.00    -0.056 A 
HETATM   24  C           1     -23.446  -4.406  -9.522  0.00  0.00     0.007 A 
HETATM   25  C           1     -23.634  -4.517 -10.900  0.00  0.00     0.001 A 
HETATM   26  C           1     -22.545  -4.396 -11.764  0.00  0.00     0.000 A 
HETATM   27  C           1     -21.269  -4.166 -11.249  0.00  0.00     0.001 A 
HETATM   28  C           1     -21.082  -4.055  -9.872  0.00  0.00     0.007 A 
ENDBRANCH  22  23
ENDBRANCH  18  22
ENDBRANCH   1  18
TORSDOF 8
ENDMDL
MODEL 4
REMARK VINA RESULT:      -6.9      2.266      3.942
REMARK  8 active torsions:
REMARK  status: ('A' for Active; 'I' for Inactive)
REMARK    1  A    between atoms: C_1  and  C_19 
REMARK    2  A    between atoms: N_2  and  C_19 
REMARK       I    between atoms: N_2  and  C_13 
REMARK    3  A    between atoms: N_3  and  C_24 
REMARK    4  A    between atoms: C_9  and  C_20 
REMARK    5  A    between atoms: C_12  and  C_24 
REMARK    6  A    between atoms: C_12  and  C_28 
REMARK    7  A    between atoms: C_13  and  C_24 
REMARK    8  A    between atoms: C_19  and  C_20 
ROOT
HETATM    1  N           1     -33.715  -2.405 -11.957  0.00  0.00    -0.344 N 
HETATM    2  O           1     -34.713  -1.438 -10.210  0.00  0.00    -0.271 OA
HETATM    3  C           1     -34.710  -1.648 -11.398  0.00  0.00     0.249 C 
HETATM    4  H           1     -32.867  -1.963 -12.288  0.00  0.00     0.163 HD
ENDROOT
BRANCH   3   5
HETATM    5  C           1     -35.800  -1.075 -12.270  0.00  0.00     0.280 C 
BRANCH   5   6
HETATM    6  N           1     -36.809  -0.372 -11.411  0.00  0.00    -0.066 N 
HETATM    7  H           1     -37.241  -1.056 -10.749  0.00  0.00     0.275 HD
HETATM    8  H           1     -36.336   0.385 -10.869  0.00  0.00     0.275 HD
HETATM    9  H           1     -37.552   0.043 -12.016  0.00  0.00     0.275 HD
ENDBRANCH   5   6
BRANCH   5  10
HETATM   10  C           1     -35.195  -0.083 -13.255  0.00  0.00     0.101 C 
BRANCH  10  11
HETATM   11  C           1     -35.741  -0.342 -14.624  0.00  0.00     0.028 A 
HETATM   12  N           1     -35.073  -1.010 -15.617  0.00  0.00    -0.355 N 
HETATM   13  C           1     -35.893  -1.019 -16.642  0.00  0.00     0.180 A 
ATOM     14  HN          1     -34.137  -1.414 -15.569  1.00  0.00     0.166 HD
HETATM   15  N           1     -37.066  -0.384 -16.350  0.00  0.00    -0.360 N 
HETATM   16  H           1     -37.882  -0.256 -16.999  0.00  0.00     0.166 HD
HETATM   17  C           1     -36.984   0.057 -15.058  0.00  0.00     0.114 A 
ENDBRANCH  10  11
ENDBRANCH   5  10
ENDBRANCH   3   5
BRANCH   1  18
HETATM   18  C           1     -33.875  -3.842 -12.072  0.00  0.00     0.189 C 
BRANCH  18  19
HETATM   19  C           1     -34.432  -4.178 -13.434  0.00  0.00     0.197 C 
HETATM   20  O           1     -35.139  -5.197 -13.585  0.00  0.00    -0.646 OA
HETATM   21  O           1     -34.185  -3.437 -14.410  0.00  0.00    -0.646 OA
ENDBRANCH  18  19
BRANCH  18  22
HETATM   22  C           1     -34.833  -4.333 -10.995  0.00  0.00     0.074 C 
BRANCH  22  23
HETATM   23  C           1     -34.468  -5.730 -10.601  0.00  0.00    -0.056 A 
HETATM   24  C           1     -35.373  -6.509  -9.880  0.00  0.00     0.007 A 
HETATM   25  C           1     -35.034  -7.812  -9.513  0.00  0.00     0.001 A 
HETATM   26  C           1     -33.790  -8.335  -9.868  0.00  0.00     0.000 A 
HETATM   27  C           1     -32.886  -7.555 -10.590  0.00  0.00     0.001 A 
HETATM   28  C           1     -33.226  -6.253 -10.956  0.00  0.00     0.007 A 
ENDBRANCH  22  23
ENDBRANCH  18  22
ENDBRANCH   1  18
TORSDOF 8
ENDMDL
MODEL 5
REMARK VINA RESULT:      -6.8     16.389     18.655
REMARK  8 active torsions:
REMARK  status: ('A' for Active; 'I' for Inactive)
REMARK    1  A    between atoms: C_1  and  C_19 
REMARK    2  A    between atoms: N_2  and  C_19 
REMARK       I    between atoms: N_2  and  C_13 
REMARK    3  A    between atoms: N_3  and  C_24 
REMARK    4  A    between atoms: C_9  and  C_20 
REMARK    5  A    between atoms: C_12  and  C_24 
REMARK    6  A    between atoms: C_12  and  C_28 
REMARK    7  A    between atoms: C_13  and  C_24 
REMARK    8  A    between atoms: C_19  and  C_20 
ROOT
HETATM    1  N           1     -21.017  -7.547  -1.578  0.00  0.00    -0.344 N 
HETATM    2  O           1     -22.170  -5.868  -2.494  0.00  0.00    -0.271 OA
HETATM    3  C           1     -21.540  -6.885  -2.657  0.00  0.00     0.249 C 
HETATM    4  H           1     -20.087  -7.323  -1.250  0.00  0.00     0.163 HD
ENDROOT
BRANCH   3   5
HETATM    5  C           1     -21.329  -7.427  -4.049  0.00  0.00     0.280 C 
BRANCH   5   6
HETATM    6  N           1     -21.833  -8.838  -4.118  0.00  0.00    -0.066 N 
HETATM    7  H           1     -21.175  -9.469  -3.607  0.00  0.00     0.275 HD
HETATM    8  H           1     -22.778  -8.890  -3.678  0.00  0.00     0.275 HD
HETATM    9  H           1     -21.896  -9.136  -5.117  0.00  0.00     0.275 HD
ENDBRANCH   5   6
BRANCH   5  10
HETATM   10  C           1     -22.090  -6.568  -5.050  0.00  0.00     0.101 C 
BRANCH  10  11
HETATM   11  C           1     -21.120  -5.906  -5.980  0.00  0.00     0.028 A 
HETATM   12  N           1     -20.904  -6.284  -7.279  0.00  0.00    -0.355 N 
HETATM   13  C           1     -19.992  -5.457  -7.734  0.00  0.00     0.180 A 
ATOM     14  HN          1     -21.356  -7.046  -7.785  1.00  0.00     0.166 HD
HETATM   15  N           1     -19.611  -4.558  -6.779  0.00  0.00    -0.360 N 
HETATM   16  H           1     -18.898  -3.795  -6.893  0.00  0.00     0.166 HD
HETATM   17  C           1     -20.327  -4.833  -5.647  0.00  0.00     0.114 A 
ENDBRANCH  10  11
ENDBRANCH   5  10
ENDBRANCH   3   5
BRANCH   1  18
HETATM   18  C           1     -21.797  -8.568  -0.907  0.00  0.00     0.189 C 
BRANCH  18  19
HETATM   19  C           1     -22.342  -8.014   0.387  0.00  0.00     0.197 C 
HETATM   20  O           1     -21.627  -8.003   1.412  0.00  0.00    -0.646 OA
HETATM   21  O           1     -23.509  -7.567   0.434  0.00  0.00    -0.646 OA
ENDBRANCH  18  19
BRANCH  18  22
HETATM   22  C           1     -20.911  -9.771  -0.612  0.00  0.00     0.074 C 
BRANCH  22  23
HETATM   23  C           1     -21.763 -10.929  -0.195  0.00  0.00    -0.056 A 
HETATM   24  C           1     -23.025 -11.104  -0.762  0.00  0.00     0.007 A 
HETATM   25  C           1     -23.820 -12.183  -0.374  0.00  0.00     0.001 A 
HETATM   26  C           1     -23.352 -13.087   0.579  0.00  0.00     0.000 A 
HETATM   27  C           1     -22.089 -12.911   1.146  0.00  0.00     0.001 A 
HETATM   28  C           1     -21.295 -11.832   0.758  0.00  0.00     0.007 A 
ENDBRANCH  22  23
ENDBRANCH  18  22
ENDBRANCH   1  18
TORSDOF 8
ENDMDL
MODEL 6
REMARK VINA RESULT:      -6.7     15.522     18.247
REMARK  8 active torsions:
REMARK  status: ('A' for Active; 'I' for Inactive)
REMARK    1  A    between atoms: C_1  and  C_19 
REMARK    2  A    between atoms: N_2  and  C_19 
REMARK       I    between atoms: N_2  and  C_13 
REMARK    3  A    between atoms: N_3  and  C_24 
REMARK    4  A    between atoms: C_9  and  C_20 
REMARK    5  A    between atoms: C_12  and  C_24 
REMARK    6  A    between atoms: C_12  and  C_28 
REMARK    7  A    between atoms: C_13  and  C_24 
REMARK    8  A    between atoms: C_19  and  C_20 
ROOT
HETATM    1  N           1     -22.413  -6.344  -4.343  0.00  0.00    -0.344 N 
HETATM    2  O           1     -21.112  -5.574  -2.700  0.00  0.00    -0.271 OA
HETATM    3  C           1     -21.659  -6.520  -3.214  0.00  0.00     0.249 C 
HETATM    4  H           1     -23.401  -6.137  -4.266  0.00  0.00     0.163 HD
ENDROOT
BRANCH   3   5
HETATM    5  C           1     -21.514  -7.895  -2.612  0.00  0.00     0.280 C 
BRANCH   5   6
HETATM    6  N           1     -20.091  -8.351  -2.745  0.00  0.00    -0.066 N 
HETATM    7  H           1     -20.013  -9.026  -3.539  0.00  0.00     0.275 HD
HETATM    8  H           1     -19.477  -7.526  -2.928  0.00  0.00     0.275 HD
HETATM    9  H           1     -19.791  -8.819  -1.860  0.00  0.00     0.275 HD
ENDBRANCH   5   6
BRANCH   5  10
HETATM   10  C           1     -21.894  -7.848  -1.138  0.00  0.00     0.101 C 
BRANCH  10  11
HETATM   11  C           1     -21.959  -9.241  -0.593  0.00  0.00     0.028 A 
HETATM   12  N           1     -22.816 -10.213  -1.041  0.00  0.00    -0.355 N 
HETATM   13  C           1     -22.552 -11.270  -0.309  0.00  0.00     0.180 A 
ATOM     14  HN          1     -23.510 -10.131  -1.784  1.00  0.00     0.166 HD
HETATM   15  N           1     -21.558 -11.020   0.593  0.00  0.00    -0.360 N 
HETATM   16  H           1     -21.165 -11.700   1.290  0.00  0.00     0.166 HD
HETATM   17  C           1     -21.167  -9.721   0.423  0.00  0.00     0.114 A 
ENDBRANCH  10  11
ENDBRANCH   5  10
ENDBRANCH   3   5
BRANCH   1  18
HETATM   18  C           1     -21.796  -6.453  -5.651  0.00  0.00     0.189 C 
BRANCH  18  19
HETATM   19  C           1     -20.931  -7.688  -5.698  0.00  0.00     0.197 C 
HETATM   20  O           1     -19.686  -7.579  -5.708  0.00  0.00    -0.646 OA
HETATM   21  O           1     -21.460  -8.821  -5.726  0.00  0.00    -0.646 OA
ENDBRANCH  18  19
BRANCH  18  22
HETATM   22  C           1     -20.939  -5.221  -5.911  0.00  0.00     0.074 C 
BRANCH  22  23
HETATM   23  C           1     -21.124  -4.775  -7.328  0.00  0.00    -0.056 A 
HETATM   24  C           1     -20.069  -4.879  -8.235  0.00  0.00     0.007 A 
HETATM   25  C           1     -20.240  -4.463  -9.555  0.00  0.00     0.001 A 
HETATM   26  C           1     -21.467  -3.944  -9.969  0.00  0.00     0.000 A 
HETATM   27  C           1     -22.521  -3.839  -9.062  0.00  0.00     0.001 A 
HETATM   28  C           1     -22.349  -4.255  -7.742  0.00  0.00     0.007 A 
ENDBRANCH  22  23
ENDBRANCH  18  22
ENDBRANCH   1  18
TORSDOF 8
ENDMDL
MODEL 7
REMARK VINA RESULT:      -6.6     17.522     19.605
REMARK  8 active torsions:
REMARK  status: ('A' for Active; 'I' for Inactive)
REMARK    1  A    between atoms: C_1  and  C_19 
REMARK    2  A    between atoms: N_2  and  C_19 
REMARK       I    between atoms: N_2  and  C_13 
REMARK    3  A    between atoms: N_3  and  C_24 
REMARK    4  A    between atoms: C_9  and  C_20 
REMARK    5  A    between atoms: C_12  and  C_24 
REMARK    6  A    between atoms: C_12  and  C_28 
REMARK    7  A    between atoms: C_13  and  C_24 
REMARK    8  A    between atoms: C_19  and  C_20 
ROOT
HETATM    1  N           1     -20.002  -7.810  -3.734  0.00  0.00    -0.344 N 
HETATM    2  O           1     -19.928  -7.756  -5.965  0.00  0.00    -0.271 OA
HETATM    3  C           1     -19.756  -8.388  -4.951  0.00  0.00     0.249 C 
HETATM    4  H           1     -19.264  -7.314  -3.251  0.00  0.00     0.163 HD
ENDROOT
BRANCH   3   5
HETATM    5  C           1     -19.268  -9.814  -5.023  0.00  0.00     0.280 C 
BRANCH   5   6
HETATM    6  N           1     -20.147 -10.596  -5.954  0.00  0.00    -0.066 N 
HETATM    7  H           1     -19.571 -11.302  -6.466  0.00  0.00     0.275 HD
HETATM    8  H           1     -20.888 -11.084  -5.404  0.00  0.00     0.275 HD
HETATM    9  H           1     -20.592  -9.946  -6.640  0.00  0.00     0.275 HD
ENDBRANCH   5   6
BRANCH   5  10
HETATM   10  C           1     -17.836  -9.836  -5.540  0.00  0.00     0.101 C 
BRANCH  10  11
HETATM   11  C           1     -16.907 -10.201  -4.424  0.00  0.00     0.028 A 
HETATM   12  N           1     -16.816  -9.527  -3.234  0.00  0.00    -0.355 N 
HETATM   13  C           1     -15.896 -10.163  -2.545  0.00  0.00     0.180 A 
ATOM     14  HN          1     -17.349  -8.707  -2.945  1.00  0.00     0.166 HD
HETATM   15  N           1     -15.391 -11.222  -3.244  0.00  0.00    -0.360 N 
HETATM   16  H           1     -14.647 -11.887  -2.914  0.00  0.00     0.166 HD
HETATM   17  C           1     -16.030 -11.260  -4.453  0.00  0.00     0.114 A 
ENDBRANCH  10  11
ENDBRANCH   5  10
ENDBRANCH   3   5
BRANCH   1  18
HETATM   18  C           1     -21.321  -7.907  -3.139  0.00  0.00     0.189 C 
BRANCH  18  19
HETATM   19  C           1     -22.003  -6.563  -3.207  0.00  0.00     0.197 C 
HETATM   20  O           1     -22.295  -6.065  -4.316  0.00  0.00    -0.646 OA
HETATM   21  O           1     -22.277  -5.948  -2.154  0.00  0.00    -0.646 OA
ENDBRANCH  18  19
BRANCH  18  22
HETATM   22  C           1     -21.190  -8.338  -1.684  0.00  0.00     0.074 C 
BRANCH  22  23
HETATM   23  C           1     -22.167  -9.436  -1.399  0.00  0.00    -0.056 A 
HETATM   24  C           1     -22.313 -10.490  -2.300  0.00  0.00     0.007 A 
HETATM   25  C           1     -23.224 -11.513  -2.035  0.00  0.00     0.001 A 
HETATM   26  C           1     -23.987 -11.482  -0.868  0.00  0.00     0.000 A 
HETATM   27  C           1     -23.840 -10.427   0.033  0.00  0.00     0.001 A 
HETATM   28  C           1     -22.930  -9.405  -0.232  0.00  0.00     0.007 A 
ENDBRANCH  22  23
ENDBRANCH  18  22
ENDBRANCH   1  18
TORSDOF 8
ENDMDL
MODEL 8
REMARK VINA RESULT:      -6.6      7.652     10.550
REMARK  8 active torsions:
REMARK  status: ('A' for Active; 'I' for Inactive)
REMARK    1  A    between atoms: C_1  and  C_19 
REMARK    2  A    between atoms: N_2  and  C_19 
REMARK       I    between atoms: N_2  and  C_13 
REMARK    3  A    between atoms: N_3  and  C_24 
REMARK    4  A    between atoms: C_9  and  C_20 
REMARK    5  A    between atoms: C_12  and  C_24 
REMARK    6  A    between atoms: C_12  and  C_28 
REMARK    7  A    between atoms: C_13  and  C_24 
REMARK    8  A    between atoms: C_19  and  C_20 
ROOT
HETATM    1  N           1     -27.980  -6.721 -16.452  0.00  0.00    -0.344 N 
HETATM    2  O           1     -29.189  -8.567 -16.116  0.00  0.00    -0.271 OA
HETATM    3  C           1     -28.985  -7.587 -16.790  0.00  0.00     0.249 C 
HETATM    4  H           1     -28.169  -5.943 -15.832  0.00  0.00     0.163 HD
ENDROOT
BRANCH   3   5
HETATM    5  C           1     -29.838  -7.315 -18.005  0.00  0.00     0.280 C 
BRANCH   5   6
HETATM    6  N           1     -29.583  -8.370 -19.040  0.00  0.00    -0.066 N 
HETATM    7  H           1     -30.415  -8.453 -19.667  0.00  0.00     0.275 HD
HETATM    8  H           1     -28.746  -8.107 -19.606  0.00  0.00     0.275 HD
HETATM    9  H           1     -29.411  -9.286 -18.568  0.00  0.00     0.275 HD
ENDBRANCH   5   6
BRANCH   5  10
HETATM   10  C           1     -31.309  -7.338 -17.609  0.00  0.00     0.101 C 
BRANCH  10  11
HETATM   11  C           1     -31.759  -5.949 -17.278  0.00  0.00     0.028 A 
HETATM   12  N           1     -33.005  -5.626 -16.807  0.00  0.00    -0.355 N 
HETATM   13  C           1     -32.987  -4.323 -16.647  0.00  0.00     0.180 A 
ATOM     14  HN          1     -33.780  -6.262 -16.620  1.00  0.00     0.166 HD
HETATM   15  N           1     -31.778  -3.792 -16.996  0.00  0.00    -0.360 N 
HETATM   16  H           1     -31.511  -2.777 -16.958  0.00  0.00     0.166 HD
HETATM   17  C           1     -30.979  -4.824 -17.403  0.00  0.00     0.114 A 
ENDBRANCH  10  11
ENDBRANCH   5  10
ENDBRANCH   3   5
BRANCH   1  18
HETATM   18  C           1     -26.645  -6.917 -16.982  0.00  0.00     0.189 C 
BRANCH  18  19
HETATM   19  C           1     -25.629  -6.620 -15.907  0.00  0.00     0.197 C 
HETATM   20  O           1     -25.123  -5.481 -15.823  0.00  0.00    -0.646 OA
HETATM   21  O           1     -25.293  -7.515 -15.101  0.00  0.00    -0.646 OA
ENDBRANCH  18  19
BRANCH  18  22
HETATM   22  C           1     -26.426  -5.979 -18.162  0.00  0.00     0.074 C 
BRANCH  22  23
HETATM   23  C           1     -25.772  -6.729 -19.281  0.00  0.00    -0.056 A 
HETATM   24  C           1     -26.524  -7.121 -20.389  0.00  0.00     0.007 A 
HETATM   25  C           1     -25.916  -7.820 -21.433  0.00  0.00     0.001 A 
HETATM   26  C           1     -24.556  -8.126 -21.367  0.00  0.00     0.000 A 
HETATM   27  C           1     -23.806  -7.734 -20.259  0.00  0.00     0.001 A 
HETATM   28  C           1     -24.414  -7.035 -19.216  0.00  0.00     0.007 A 
ENDBRANCH  22  23
ENDBRANCH  18  22
ENDBRANCH   1  18
TORSDOF 8
ENDMDL
MODEL 9
REMARK VINA RESULT:      -6.6     15.318     17.576
REMARK  8 active torsions:
REMARK  status: ('A' for Active; 'I' for Inactive)
REMARK    1  A    between atoms: C_1  and  C_19 
REMARK    2  A    between atoms: N_2  and  C_19 
REMARK       I    between atoms: N_2  and  C_13 
REMARK    3  A    between atoms: N_3  and  C_24 
REMARK    4  A    between atoms: C_9  and  C_20 
REMARK    5  A    between atoms: C_12  and  C_24 
REMARK    6  A    between atoms: C_12  and  C_28 
REMARK    7  A    between atoms: C_13  and  C_24 
REMARK    8  A    between atoms: C_19  and  C_20 
ROOT
HETATM    1  N           1     -21.465  -6.309  -3.030  0.00  0.00    -0.344 N 
HETATM    2  O           1     -22.820  -6.096  -4.792  0.00  0.00    -0.271 OA
HETATM    3  C           1     -21.690  -6.181  -4.375  0.00  0.00     0.249 C 
HETATM    4  H           1     -21.345  -5.485  -2.456  0.00  0.00     0.163 HD
ENDROOT
BRANCH   3   5
HETATM    5  C           1     -20.527  -6.145  -5.334  0.00  0.00     0.280 C 
BRANCH   5   6
HETATM    6  N           1     -20.865  -6.940  -6.560  0.00  0.00    -0.066 N 
HETATM    7  H           1     -21.216  -7.883  -6.280  0.00  0.00     0.275 HD
HETATM    8  H           1     -21.603  -6.441  -7.105  0.00  0.00     0.275 HD
HETATM    9  H           1     -20.010  -7.048  -7.151  0.00  0.00     0.275 HD
ENDBRANCH   5   6
BRANCH   5  10
HETATM   10  C           1     -20.239  -4.702  -5.729  0.00  0.00     0.101 C 
BRANCH  10  11
HETATM   11  C           1     -20.903  -4.400  -7.037  0.00  0.00     0.028 A 
HETATM   12  N           1     -22.234  -4.108  -7.185  0.00  0.00    -0.355 N 
HETATM   13  C           1     -22.403  -3.909  -8.472  0.00  0.00     0.180 A 
ATOM     14  HN          1     -22.941  -4.056  -6.452  1.00  0.00     0.166 HD
HETATM   15  N           1     -21.233  -4.060  -9.160  0.00  0.00    -0.360 N 
HETATM   16  H           1     -21.104  -3.954 -10.197  0.00  0.00     0.166 HD
HETATM   17  C           1     -20.260  -4.375  -8.252  0.00  0.00     0.114 A 
ENDBRANCH  10  11
ENDBRANCH   5  10
ENDBRANCH   3   5
BRANCH   1  18
HETATM   18  C           1     -21.399  -7.627  -2.429  0.00  0.00     0.189 C 
BRANCH  18  19
HETATM   19  C           1     -21.855  -7.548  -0.993  0.00  0.00     0.197 C 
HETATM   20  O           1     -22.863  -6.872  -0.694  0.00  0.00    -0.646 OA
HETATM   21  O           1     -21.224  -8.158  -0.103  0.00  0.00    -0.646 OA
ENDBRANCH  18  19
BRANCH  18  22
HETATM   22  C           1     -19.964  -8.135  -2.480  0.00  0.00     0.074 C 
BRANCH  22  23
HETATM   23  C           1     -19.820  -9.115  -3.603  0.00  0.00    -0.056 A 
HETATM   24  C           1     -20.920  -9.869  -4.013  0.00  0.00     0.007 A 
HETATM   25  C           1     -20.787 -10.783  -5.060  0.00  0.00     0.001 A 
HETATM   26  C           1     -19.555 -10.940  -5.695  0.00  0.00     0.000 A 
HETATM   27  C           1     -18.457 -10.186  -5.284  0.00  0.00     0.001 A 
HETATM   28  C           1     -18.590  -9.273  -4.238  0.00  0.00     0.007 A 
ENDBRANCH  22  23
ENDBRANCH  18  22
ENDBRANCH   1  18
TORSDOF 8
ENDMDL
