MODEL 1
REMARK VINA RESULT:      -6.7      0.000      0.000
REMARK  9 active torsions:
REMARK  status: ('A' for Active; 'I' for Inactive)
REMARK       I    between atoms: C_1  and  N_17 
REMARK    1  A    between atoms: C_1  and  C_2 
REMARK    2  A    between atoms: C_2  and  C_3 
REMARK    3  A    between atoms: C_2  and  N_7 
REMARK    4  A    between atoms: C_3  and  C_4 
REMARK    5  A    between atoms: C_13  and  C_22 
REMARK    6  A    between atoms: C_15  and  C_22 
REMARK    7  A    between atoms: C_15  and  C_21 
REMARK    8  A    between atoms: N_17  and  C_21 
REMARK    9  A    between atoms: C_20  and  C_21 
ROOT
HETATM    1  C           1     -21.743  -4.518  -7.960  0.00  0.00     0.249 C 
HETATM    2  O           1     -21.766  -3.375  -7.569  0.00  0.00    -0.271 OA
HETATM    3  H           1     -22.259  -5.793  -9.505  0.00  0.00     0.163 HD
HETATM    4  N           1     -22.279  -4.836  -9.178  0.00  0.00    -0.345 N 
ENDROOT
BRANCH   1   5
HETATM    5  C           1     -21.121  -5.595  -7.105  0.00  0.00     0.284 C 
BRANCH   5   6
HETATM    6  C           1     -20.870  -5.051  -5.704  0.00  0.00     0.155 C 
BRANCH   6   7
HETATM    7  C           1     -21.060  -6.155  -4.693  0.00  0.00     0.175 C 
HETATM    8  O           1     -20.458  -7.241  -4.834  0.00  0.00    -0.648 OA
HETATM    9  O           1     -21.819  -5.983  -3.715  0.00  0.00    -0.648 OA
ENDBRANCH   6   7
ENDBRANCH   5   6
BRANCH   5  10
HETATM   10  N           1     -19.820  -6.027  -7.713  0.00  0.00    -0.066 N 
HETATM   11  H           1     -19.820  -5.798  -8.733  0.00  0.00     0.275 HD
HETATM   12  H           1     -19.034  -5.526  -7.244  0.00  0.00     0.275 HD
HETATM   13  H           1     -19.703  -7.058  -7.589  0.00  0.00     0.275 HD
ENDBRANCH   5  10
ENDBRANCH   1   5
BRANCH   4  14
HETATM   14  C           1     -22.876  -3.800 -10.000  0.00  0.00     0.186 C 
BRANCH  14  15
HETATM   15  C           1     -22.558  -4.072 -11.465  0.00  0.00     0.046 C 
BRANCH  15  16
HETATM   16  C           1     -22.706  -2.783 -12.264  0.00  0.00     0.116 C 
BRANCH  16  17
HETATM   17  C           1     -23.773  -2.962 -13.316  0.00  0.00     0.172 C 
HETATM   18  O           1     -24.980  -2.915 -12.997  0.00  0.00    -0.648 OA
HETATM   19  O           1     -23.448  -3.157 -14.507  0.00  0.00    -0.648 OA
ENDBRANCH  16  17
ENDBRANCH  15  16
ENDBRANCH  14  15
BRANCH  14  20
HETATM   20  C           1     -24.372  -3.800  -9.800  0.00  0.00     0.196 C 
HETATM   21  O           1     -25.012  -4.870  -9.878  0.00  0.00    -0.646 OA
HETATM   22  O           1     -24.969  -2.730  -9.556  0.00  0.00    -0.646 OA
ENDBRANCH  14  20
ENDBRANCH   4  14
TORSDOF 9
ENDMDL
MODEL 2
REMARK VINA RESULT:      -6.4     10.605     12.467
REMARK  9 active torsions:
REMARK  status: ('A' for Active; 'I' for Inactive)
REMARK       I    between atoms: C_1  and  N_17 
REMARK    1  A    between atoms: C_1  and  C_2 
REMARK    2  A    between atoms: C_2  and  C_3 
REMARK    3  A    between atoms: C_2  and  N_7 
REMARK    4  A    between atoms: C_3  and  C_4 
REMARK    5  A    between atoms: C_13  and  C_22 
REMARK    6  A    between atoms: C_15  and  C_22 
REMARK    7  A    between atoms: C_15  and  C_21 
REMARK    8  A    between atoms: N_17  and  C_21 
REMARK    9  A    between atoms: C_20  and  C_21 
ROOT
HETATM    1  C           1     -26.565  -6.335 -18.385  0.00  0.00     0.249 C 
HETATM    2  O           1     -26.325  -6.073 -17.231  0.00  0.00    -0.271 OA
HETATM    3  H           1     -28.050  -6.825 -19.740  0.00  0.00     0.163 HD
HETATM    4  N           1     -27.849  -6.605 -18.773  0.00  0.00    -0.345 N 
ENDROOT
BRANCH   1   5
HETATM    5  C           1     -25.448  -6.362 -19.400  0.00  0.00     0.284 C 
BRANCH   5   6
HETATM    6  C           1     -26.037  -6.454 -20.802  0.00  0.00     0.155 C 
BRANCH   6   7
HETATM    7  C           1     -25.872  -7.859 -21.327  0.00  0.00     0.175 C 
HETATM    8  O           1     -26.803  -8.684 -21.209  0.00  0.00    -0.648 OA
HETATM    9  O           1     -24.803  -8.198 -21.880  0.00  0.00    -0.648 OA
ENDBRANCH   6   7
ENDBRANCH   5   6
BRANCH   5  10
HETATM   10  N           1     -24.573  -7.553 -19.148  0.00  0.00    -0.066 N 
HETATM   11  H           1     -24.432  -8.077 -20.041  0.00  0.00     0.275 HD
HETATM   12  H           1     -23.648  -7.234 -18.783  0.00  0.00     0.275 HD
HETATM   13  H           1     -25.029  -8.179 -18.446  0.00  0.00     0.275 HD
ENDBRANCH   5  10
ENDBRANCH   1   5
BRANCH   4  14
HETATM   14  C           1     -28.922  -6.579 -17.797  0.00  0.00     0.186 C 
BRANCH  14  15
HETATM   15  C           1     -29.914  -5.483 -18.165  0.00  0.00     0.046 C 
BRANCH  15  16
HETATM   16  C           1     -31.047  -5.461 -17.148  0.00  0.00     0.116 C 
BRANCH  16  17
HETATM   17  C           1     -31.716  -4.109 -17.168  0.00  0.00     0.172 C 
HETATM   18  O           1     -31.121  -3.124 -17.655  0.00  0.00    -0.648 OA
HETATM   19  O           1     -32.866  -3.974 -16.697  0.00  0.00    -0.648 OA
ENDBRANCH  16  17
ENDBRANCH  15  16
ENDBRANCH  14  15
BRANCH  14  20
HETATM   20  C           1     -29.626  -7.914 -17.789  0.00  0.00     0.196 C 
HETATM   21  O           1     -30.272  -8.286 -18.791  0.00  0.00    -0.646 OA
HETATM   22  O           1     -29.562  -8.646 -16.778  0.00  0.00    -0.646 OA
ENDBRANCH  14  20
ENDBRANCH   4  14
TORSDOF 9
ENDMDL
MODEL 3
REMARK VINA RESULT:      -6.3     12.124     13.753
REMARK  9 active torsions:
REMARK  status: ('A' for Active; 'I' for Inactive)
REMARK       I    between atoms: C_1  and  N_17 
REMARK    1  A    between atoms: C_1  and  C_2 
REMARK    2  A    between atoms: C_2  and  C_3 
REMARK    3  A    between atoms: C_2  and  N_7 
REMARK    4  A    between atoms: C_3  and  C_4 
REMARK    5  A    between atoms: C_13  and  C_22 
REMARK    6  A    between atoms: C_15  and  C_22 
REMARK    7  A    between atoms: C_15  and  C_21 
REMARK    8  A    between atoms: N_17  and  C_21 
REMARK    9  A    between atoms: C_20  and  C_21 
ROOT
HETATM    1  C           1     -34.387  -2.434 -11.994  0.00  0.00     0.249 C 
HETATM    2  O           1     -33.861  -1.927 -11.032  0.00  0.00    -0.271 OA
HETATM    3  H           1     -35.521  -2.083 -13.688  0.00  0.00     0.163 HD
HETATM    4  N           1     -35.081  -1.659 -12.883  0.00  0.00    -0.345 N 
ENDROOT
BRANCH   1   5
HETATM    5  C           1     -34.278  -3.923 -12.216  0.00  0.00     0.284 C 
BRANCH   5   6
HETATM    6  C           1     -33.949  -4.611 -10.898  0.00  0.00     0.155 C 
BRANCH   6   7
HETATM    7  C           1     -34.585  -5.980 -10.873  0.00  0.00     0.175 C 
HETATM    8  O           1     -35.074  -6.461 -11.917  0.00  0.00    -0.648 OA
HETATM    9  O           1     -34.622  -6.632  -9.807  0.00  0.00    -0.648 OA
ENDBRANCH   6   7
ENDBRANCH   5   6
BRANCH   5  10
HETATM   10  N           1     -33.188  -4.200 -13.209  0.00  0.00    -0.066 N 
HETATM   11  H           1     -33.395  -5.093 -13.712  0.00  0.00     0.275 HD
HETATM   12  H           1     -33.138  -3.417 -13.898  0.00  0.00     0.275 HD
HETATM   13  H           1     -32.275  -4.286 -12.710  0.00  0.00     0.275 HD
ENDBRANCH   5  10
ENDBRANCH   1   5
BRANCH   4  14
HETATM   14  C           1     -35.186  -0.228 -12.669  0.00  0.00     0.186 C 
BRANCH  14  15
HETATM   15  C           1     -35.308   0.478 -14.014  0.00  0.00     0.046 C 
BRANCH  15  16
HETATM   16  C           1     -35.450  -0.559 -15.120  0.00  0.00     0.116 C 
BRANCH  16  17
HETATM   17  C           1     -36.643  -0.220 -15.979  0.00  0.00     0.172 C 
HETATM   18  O           1     -37.280   0.835 -15.774  0.00  0.00    -0.648 OA
HETATM   19  O           1     -36.993  -0.994 -16.896  0.00  0.00    -0.648 OA
ENDBRANCH  16  17
ENDBRANCH  15  16
ENDBRANCH  14  15
BRANCH  14  20
HETATM   20  C           1     -36.407   0.067 -11.832  0.00  0.00     0.196 C 
HETATM   21  O           1     -36.276   0.462 -10.654  0.00  0.00    -0.646 OA
HETATM   22  O           1     -37.548  -0.084 -12.318  0.00  0.00    -0.646 OA
ENDBRANCH  14  20
ENDBRANCH   4  14
TORSDOF 9
ENDMDL
MODEL 4
REMARK VINA RESULT:      -6.1      8.658     11.865
REMARK  9 active torsions:
REMARK  status: ('A' for Active; 'I' for Inactive)
REMARK       I    between atoms: C_1  and  N_17 
REMARK    1  A    between atoms: C_1  and  C_2 
REMARK    2  A    between atoms: C_2  and  C_3 
REMARK    3  A    between atoms: C_2  and  N_7 
REMARK    4  A    between atoms: C_3  and  C_4 
REMARK    5  A    between atoms: C_13  and  C_22 
REMARK    6  A    between atoms: C_15  and  C_22 
REMARK    7  A    between atoms: C_15  and  C_21 
REMARK    8  A    between atoms: N_17  and  C_21 
REMARK    9  A    between atoms: C_20  and  C_21 
ROOT
HETATM    1  C           1     -27.126  -6.112 -19.205  0.00  0.00     0.249 C 
HETATM    2  O           1     -28.087  -5.412 -18.994  0.00  0.00    -0.271 OA
HETATM    3  H           1     -25.592  -7.195 -18.336  0.00  0.00     0.163 HD
HETATM    4  N           1     -26.397  -6.608 -18.159  0.00  0.00    -0.345 N 
ENDROOT
BRANCH   1   5
HETATM    5  C           1     -26.729  -6.441 -20.624  0.00  0.00     0.284 C 
BRANCH   5   6
HETATM    6  C           1     -26.337  -7.910 -20.715  0.00  0.00     0.155 C 
BRANCH   6   7
HETATM    7  C           1     -24.877  -8.020 -21.082  0.00  0.00     0.175 C 
HETATM    8  O           1     -24.001  -7.913 -20.197  0.00  0.00    -0.648 OA
HETATM    9  O           1     -24.544  -8.218 -22.270  0.00  0.00    -0.648 OA
ENDBRANCH   6   7
ENDBRANCH   5   6
BRANCH   5  10
HETATM   10  N           1     -25.564  -5.587 -21.027  0.00  0.00    -0.066 N 
HETATM   11  H           1     -25.911  -4.658 -21.356  0.00  0.00     0.275 HD
HETATM   12  H           1     -24.932  -5.452 -20.208  0.00  0.00     0.275 HD
HETATM   13  H           1     -25.040  -6.056 -21.800  0.00  0.00     0.275 HD
ENDBRANCH   5  10
ENDBRANCH   1   5
BRANCH   4  14
HETATM   14  C           1     -26.778  -6.292 -16.795  0.00  0.00     0.186 C 
BRANCH  14  15
HETATM   15  C           1     -27.907  -7.217 -16.358  0.00  0.00     0.046 C 
BRANCH  15  16
HETATM   16  C           1     -28.969  -6.410 -15.623  0.00  0.00     0.116 C 
BRANCH  16  17
HETATM   17  C           1     -30.141  -6.165 -16.541  0.00  0.00     0.172 C 
HETATM   18  O           1     -30.514  -7.060 -17.329  0.00  0.00    -0.648 OA
HETATM   19  O           1     -30.738  -5.068 -16.512  0.00  0.00    -0.648 OA
ENDBRANCH  16  17
ENDBRANCH  15  16
ENDBRANCH  14  15
BRANCH  14  20
HETATM   20  C           1     -25.589  -6.482 -15.885  0.00  0.00     0.196 C 
HETATM   21  O           1     -24.971  -5.487 -15.449  0.00  0.00    -0.646 OA
HETATM   22  O           1     -25.224  -7.633 -15.567  0.00  0.00    -0.646 OA
ENDBRANCH  14  20
ENDBRANCH   4  14
TORSDOF 9
ENDMDL
MODEL 5
REMARK VINA RESULT:      -6.1      1.703      6.921
REMARK  9 active torsions:
REMARK  status: ('A' for Active; 'I' for Inactive)
REMARK       I    between atoms: C_1  and  N_17 
REMARK    1  A    between atoms: C_1  and  C_2 
REMARK    2  A    between atoms: C_2  and  C_3 
REMARK    3  A    between atoms: C_2  and  N_7 
REMARK    4  A    between atoms: C_3  and  C_4 
REMARK    5  A    between atoms: C_13  and  C_22 
REMARK    6  A    between atoms: C_15  and  C_22 
REMARK    7  A    between atoms: C_15  and  C_21 
REMARK    8  A    between atoms: N_17  and  C_21 
REMARK    9  A    between atoms: C_20  and  C_21 
ROOT
HETATM    1  C           1     -23.137  -4.270  -9.034  0.00  0.00     0.249 C 
HETATM    2  O           1     -23.050  -3.157  -8.573  0.00  0.00    -0.271 OA
HETATM    3  H           1     -22.293  -6.159  -9.076  0.00  0.00     0.163 HD
HETATM    4  N           1     -22.220  -5.226  -8.691  0.00  0.00    -0.345 N 
ENDROOT
BRANCH   1   5
HETATM    5  C           1     -24.258  -4.607  -9.986  0.00  0.00     0.284 C 
BRANCH   5   6
HETATM    6  C           1     -23.721  -4.646 -11.411  0.00  0.00     0.155 C 
BRANCH   6   7
HETATM    7  C           1     -24.011  -3.332 -12.095  0.00  0.00     0.175 C 
HETATM    8  O           1     -25.077  -3.181 -12.729  0.00  0.00    -0.648 OA
HETATM    9  O           1     -23.186  -2.396 -12.026  0.00  0.00    -0.648 OA
ENDBRANCH   6   7
ENDBRANCH   5   6
BRANCH   5  10
HETATM   10  N           1     -25.330  -3.563  -9.885  0.00  0.00    -0.066 N 
HETATM   11  H           1     -25.724  -3.375 -10.835  0.00  0.00     0.275 HD
HETATM   12  H           1     -26.089  -3.904  -9.256  0.00  0.00     0.275 HD
HETATM   13  H           1     -24.923  -2.682  -9.498  0.00  0.00     0.275 HD
ENDBRANCH   5  10
ENDBRANCH   1   5
BRANCH   4  14
HETATM   14  C           1     -21.143  -4.902  -7.775  0.00  0.00     0.186 C 
BRANCH  14  15
HETATM   15  C           1     -20.877  -6.093  -6.864  0.00  0.00     0.046 C 
BRANCH  15  16
HETATM   16  C           1     -20.521  -5.597  -5.469  0.00  0.00     0.116 C 
BRANCH  16  17
HETATM   17  C           1     -21.582  -6.038  -4.491  0.00  0.00     0.172 C 
HETATM   18  O           1     -21.296  -6.182  -3.282  0.00  0.00    -0.648 OA
HETATM   19  O           1     -22.745  -6.260  -4.888  0.00  0.00    -0.648 OA
ENDBRANCH  16  17
ENDBRANCH  15  16
ENDBRANCH  14  15
BRANCH  14  20
HETATM   20  C           1     -19.895  -4.580  -8.561  0.00  0.00     0.196 C 
HETATM   21  O           1     -19.859  -4.793  -9.791  0.00  0.00    -0.646 OA
HETATM   22  O           1     -18.898  -4.100  -7.980  0.00  0.00    -0.646 OA
ENDBRANCH  14  20
ENDBRANCH   4  14
TORSDOF 9
ENDMDL
MODEL 6
REMARK VINA RESULT:      -6.0     11.886     13.892
REMARK  9 active torsions:
REMARK  status: ('A' for Active; 'I' for Inactive)
REMARK       I    between atoms: C_1  and  N_17 
REMARK    1  A    between atoms: C_1  and  C_2 
REMARK    2  A    between atoms: C_2  and  C_3 
REMARK    3  A    between atoms: C_2  and  N_7 
REMARK    4  A    between atoms: C_3  and  C_4 
REMARK    5  A    between atoms: C_13  and  C_22 
REMARK    6  A    between atoms: C_15  and  C_22 
REMARK    7  A    between atoms: C_15  and  C_21 
REMARK    8  A    between atoms: N_17  and  C_21 
REMARK    9  A    between atoms: C_20  and  C_21 
ROOT
HETATM    1  C           1     -34.611  -2.867 -12.844  0.00  0.00     0.249 C 
HETATM    2  O           1     -34.632  -2.970 -14.047  0.00  0.00    -0.271 OA
HETATM    3  H           1     -35.232  -1.735 -11.227  0.00  0.00     0.163 HD
HETATM    4  N           1     -35.250  -1.822 -12.235  0.00  0.00    -0.345 N 
ENDROOT
BRANCH   1   5
HETATM    5  C           1     -33.879  -3.892 -12.012  0.00  0.00     0.284 C 
BRANCH   5   6
HETATM    6  C           1     -34.678  -5.189 -11.985  0.00  0.00     0.155 C 
BRANCH   6   7
HETATM    7  C           1     -34.134  -6.093 -10.905  0.00  0.00     0.175 C 
HETATM    8  O           1     -34.867  -6.446  -9.957  0.00  0.00    -0.648 OA
HETATM    9  O           1     -32.949  -6.489 -10.960  0.00  0.00    -0.648 OA
ENDBRANCH   6   7
ENDBRANCH   5   6
BRANCH   5  10
HETATM   10  N           1     -33.717  -3.376 -10.613  0.00  0.00    -0.066 N 
HETATM   11  H           1     -33.163  -4.061 -10.052  0.00  0.00     0.275 HD
HETATM   12  H           1     -33.217  -2.460 -10.636  0.00  0.00     0.275 HD
HETATM   13  H           1     -34.658  -3.250 -10.177  0.00  0.00     0.275 HD
ENDBRANCH   5  10
ENDBRANCH   1   5
BRANCH   4  14
HETATM   14  C           1     -35.953  -0.837 -13.035  0.00  0.00     0.186 C 
BRANCH  14  15
HETATM   15  C           1     -37.075  -0.220 -12.208  0.00  0.00     0.046 C 
BRANCH  15  16
HETATM   16  C           1     -36.990  -0.731 -10.776  0.00  0.00     0.116 C 
BRANCH  16  17
HETATM   17  C           1     -37.100   0.430  -9.819  0.00  0.00     0.172 C 
HETATM   18  O           1     -38.045   1.241  -9.926  0.00  0.00    -0.648 OA
HETATM   19  O           1     -36.245   0.582  -8.920  0.00  0.00    -0.648 OA
ENDBRANCH  16  17
ENDBRANCH  15  16
ENDBRANCH  14  15
BRANCH  14  20
HETATM   20  C           1     -34.990   0.244 -13.462  0.00  0.00     0.196 C 
HETATM   21  O           1     -34.563   1.067 -12.625  0.00  0.00    -0.646 OA
HETATM   22  O           1     -34.620   0.314 -14.653  0.00  0.00    -0.646 OA
ENDBRANCH  14  20
ENDBRANCH   4  14
TORSDOF 9
ENDMDL
MODEL 7
REMARK VINA RESULT:      -5.8      9.512     12.295
REMARK  9 active torsions:
REMARK  status: ('A' for Active; 'I' for Inactive)
REMARK       I    between atoms: C_1  and  N_17 
REMARK    1  A    between atoms: C_1  and  C_2 
REMARK    2  A    between atoms: C_2  and  C_3 
REMARK    3  A    between atoms: C_2  and  N_7 
REMARK    4  A    between atoms: C_3  and  C_4 
REMARK    5  A    between atoms: C_13  and  C_22 
REMARK    6  A    between atoms: C_15  and  C_22 
REMARK    7  A    between atoms: C_15  and  C_21 
REMARK    8  A    between atoms: N_17  and  C_21 
REMARK    9  A    between atoms: C_20  and  C_21 
ROOT
HETATM    1  C           1     -30.462  -6.691 -17.655  0.00  0.00     0.249 C 
HETATM    2  O           1     -30.414  -7.812 -18.103  0.00  0.00    -0.271 OA
HETATM    3  H           1     -29.360  -5.146 -16.831  0.00  0.00     0.163 HD
HETATM    4  N           1     -29.320  -6.084 -17.207  0.00  0.00    -0.345 N 
ENDROOT
BRANCH   1   5
HETATM    5  C           1     -31.780  -5.961 -17.590  0.00  0.00     0.284 C 
BRANCH   5   6
HETATM    6  C           1     -31.682  -4.822 -16.583  0.00  0.00     0.155 C 
BRANCH   6   7
HETATM    7  C           1     -31.961  -3.511 -17.277  0.00  0.00     0.175 C 
HETATM    8  O           1     -31.017  -2.839 -17.746  0.00  0.00    -0.648 OA
HETATM    9  O           1     -33.136  -3.097 -17.382  0.00  0.00    -0.648 OA
ENDBRANCH   6   7
ENDBRANCH   5   6
BRANCH   5  10
HETATM   10  N           1     -32.858  -6.913 -17.164  0.00  0.00    -0.066 N 
HETATM   11  H           1     -32.632  -7.872 -17.511  0.00  0.00     0.275 HD
HETATM   12  H           1     -32.919  -6.925 -16.122  0.00  0.00     0.275 HD
HETATM   13  H           1     -33.773  -6.605 -17.564  0.00  0.00     0.275 HD
ENDBRANCH   5  10
ENDBRANCH   1   5
BRANCH   4  14
HETATM   14  C           1     -28.053  -6.787 -17.269  0.00  0.00     0.186 C 
BRANCH  14  15
HETATM   15  C           1     -27.115  -6.057 -18.223  0.00  0.00     0.046 C 
BRANCH  15  16
HETATM   16  C           1     -27.327  -6.576 -19.639  0.00  0.00     0.116 C 
BRANCH  16  17
HETATM   17  C           1     -26.024  -7.112 -20.180  0.00  0.00     0.172 C 
HETATM   18  O           1     -26.030  -7.991 -21.068  0.00  0.00    -0.648 OA
HETATM   19  O           1     -24.938  -6.677 -19.739  0.00  0.00    -0.648 OA
ENDBRANCH  16  17
ENDBRANCH  15  16
ENDBRANCH  14  15
BRANCH  14  20
HETATM   20  C           1     -27.435  -6.833 -15.893  0.00  0.00     0.196 C 
HETATM   21  O           1     -27.953  -7.537 -15.000  0.00  0.00    -0.646 OA
HETATM   22  O           1     -26.407  -6.168 -15.648  0.00  0.00    -0.646 OA
ENDBRANCH  14  20
ENDBRANCH   4  14
TORSDOF 9
ENDMDL
MODEL 8
REMARK VINA RESULT:      -5.8      2.137      3.559
REMARK  9 active torsions:
REMARK  status: ('A' for Active; 'I' for Inactive)
REMARK       I    between atoms: C_1  and  N_17 
REMARK    1  A    between atoms: C_1  and  C_2 
REMARK    2  A    between atoms: C_2  and  C_3 
REMARK    3  A    between atoms: C_2  and  N_7 
REMARK    4  A    between atoms: C_3  and  C_4 
REMARK    5  A    between atoms: C_13  and  C_22 
REMARK    6  A    between atoms: C_15  and  C_22 
REMARK    7  A    between atoms: C_15  and  C_21 
REMARK    8  A    between atoms: N_17  and  C_21 
REMARK    9  A    between atoms: C_20  and  C_21 
ROOT
HETATM    1  C           1     -21.243  -6.167  -6.143  0.00  0.00     0.249 C 
HETATM    2  O           1     -21.207  -7.145  -6.850  0.00  0.00    -0.271 OA
HETATM    3  H           1     -21.499  -4.114  -6.100  0.00  0.00     0.163 HD
HETATM    4  N           1     -21.469  -4.934  -6.692  0.00  0.00    -0.345 N 
ENDROOT
BRANCH   1   5
HETATM    5  C           1     -21.040  -6.304  -4.654  0.00  0.00     0.284 C 
BRANCH   5   6
HETATM    6  C           1     -20.419  -7.660  -4.348  0.00  0.00     0.155 C 
BRANCH   6   7
HETATM    7  C           1     -20.940  -8.165  -3.024  0.00  0.00     0.175 C 
HETATM    8  O           1     -21.720  -9.141  -2.991  0.00  0.00    -0.648 OA
HETATM    9  O           1     -20.589  -7.608  -1.961  0.00  0.00    -0.648 OA
ENDBRANCH   6   7
ENDBRANCH   5   6
BRANCH   5  10
HETATM   10  N           1     -22.364  -6.192  -3.957  0.00  0.00    -0.066 N 
HETATM   11  H           1     -22.262  -5.586  -3.112  0.00  0.00     0.275 HD
HETATM   12  H           1     -23.063  -5.768  -4.606  0.00  0.00     0.275 HD
HETATM   13  H           1     -22.686  -7.142  -3.667  0.00  0.00     0.275 HD
ENDBRANCH   5  10
ENDBRANCH   1   5
BRANCH   4  14
HETATM   14  C           1     -21.665  -4.802  -8.123  0.00  0.00     0.186 C 
BRANCH  14  15
HETATM   15  C           1     -22.831  -3.859  -8.391  0.00  0.00     0.046 C 
BRANCH  15  16
HETATM   16  C           1     -23.813  -4.524  -9.345  0.00  0.00     0.116 C 
BRANCH  16  17
HETATM   17  C           1     -24.401  -3.485 -10.269  0.00  0.00     0.172 C 
HETATM   18  O           1     -23.674  -2.919 -11.114  0.00  0.00    -0.648 OA
HETATM   19  O           1     -25.612  -3.191 -10.189  0.00  0.00    -0.648 OA
ENDBRANCH  16  17
ENDBRANCH  15  16
ENDBRANCH  14  15
BRANCH  14  20
HETATM   20  C           1     -20.411  -4.245  -8.752  0.00  0.00     0.196 C 
HETATM   21  O           1     -20.397  -3.956  -9.968  0.00  0.00    -0.646 OA
HETATM   22  O           1     -19.387  -4.073  -8.057  0.00  0.00    -0.646 OA
ENDBRANCH  14  20
ENDBRANCH   4  14
TORSDOF 9
ENDMDL
MODEL 9
REMARK VINA RESULT:      -5.7      2.666      7.922
REMARK  9 active torsions:
REMARK  status: ('A' for Active; 'I' for Inactive)
REMARK       I    between atoms: C_1  and  N_17 
REMARK    1  A    between atoms: C_1  and  C_2 
REMARK    2  A    between atoms: C_2  and  C_3 
REMARK    3  A    between atoms: C_2  and  N_7 
REMARK    4  A    between atoms: C_3  and  C_4 
REMARK    5  A    between atoms: C_13  and  C_22 
REMARK    6  A    between atoms: C_15  and  C_22 
REMARK    7  A    between atoms: C_15  and  C_21 
REMARK    8  A    between atoms: N_17  and  C_21 
REMARK    9  A    between atoms: C_20  and  C_21 
ROOT
HETATM    1  C           1     -21.115  -5.099  -6.887  0.00  0.00     0.249 C 
HETATM    2  O           1     -20.471  -4.317  -6.228  0.00  0.00    -0.271 OA
HETATM    3  H           1     -21.925  -7.002  -6.946  0.00  0.00     0.163 HD
HETATM    4  N           1     -21.386  -6.347  -6.395  0.00  0.00    -0.345 N 
ENDROOT
BRANCH   1   5
HETATM    5  C           1     -21.621  -4.699  -8.250  0.00  0.00     0.284 C 
BRANCH   5   6
HETATM    6  C           1     -20.453  -4.240  -9.113  0.00  0.00     0.155 C 
BRANCH   6   7
HETATM    7  C           1     -20.939  -3.971 -10.517  0.00  0.00     0.175 C 
HETATM    8  O           1     -21.927  -4.590 -10.965  0.00  0.00    -0.648 OA
HETATM    9  O           1     -20.352  -3.129 -11.230  0.00  0.00    -0.648 OA
ENDBRANCH   6   7
ENDBRANCH   5   6
BRANCH   5  10
HETATM   10  N           1     -22.607  -3.578  -8.107  0.00  0.00    -0.066 N 
HETATM   11  H           1     -23.556  -3.910  -8.391  0.00  0.00     0.275 HD
HETATM   12  H           1     -22.633  -3.262  -7.112  0.00  0.00     0.275 HD
HETATM   13  H           1     -22.320  -2.781  -8.720  0.00  0.00     0.275 HD
ENDBRANCH   5  10
ENDBRANCH   1   5
BRANCH   4  14
HETATM   14  C           1     -20.898  -6.731  -5.083  0.00  0.00     0.186 C 
BRANCH  14  15
HETATM   15  C           1     -22.035  -6.636  -4.073  0.00  0.00     0.046 C 
BRANCH  15  16
HETATM   16  C           1     -21.496  -6.104  -2.751  0.00  0.00     0.116 C 
BRANCH  16  17
HETATM   17  C           1     -21.830  -7.074  -1.644  0.00  0.00     0.172 C 
HETATM   18  O           1     -21.222  -8.163  -1.563  0.00  0.00    -0.648 OA
HETATM   19  O           1     -22.715  -6.788  -0.809  0.00  0.00    -0.648 OA
ENDBRANCH  16  17
ENDBRANCH  15  16
ENDBRANCH  14  15
BRANCH  14  20
HETATM   20  C           1     -20.386  -8.150  -5.134  0.00  0.00     0.196 C 
HETATM   21  O           1     -19.376  -8.473  -4.473  0.00  0.00    -0.646 OA
HETATM   22  O           1     -20.972  -9.000  -5.836  0.00  0.00    -0.646 OA
ENDBRANCH  14  20
ENDBRANCH   4  14
TORSDOF 9
ENDMDL
