MODEL 1
REMARK VINA RESULT:      -6.6      0.000      0.000
REMARK  15 active torsions:
REMARK  status: ('A' for Active; 'I' for Inactive)
REMARK       I    between atoms: C_1  and  N_2 
REMARK    1  A    between atoms: C_1  and  C_33 
REMARK    2  A    between atoms: N_2  and  C_6 
REMARK    3  A    between atoms: C_5  and  C_6 
REMARK    4  A    between atoms: C_6  and  C_7 
REMARK    5  A    between atoms: C_7  and  C_8 
REMARK    6  A    between atoms: C_8  and  N_9 
REMARK    7  A    between atoms: N_9  and  C_13 
REMARK    8  A    between atoms: C_12  and  C_13 
REMARK    9  A    between atoms: C_13  and  C_15 
REMARK   10  A    between atoms: O_14  and  C_15 
REMARK   11  A    between atoms: N_25  and  C_33 
REMARK       I    between atoms: N_26  and  C_28 
REMARK       I    between atoms: N_27  and  C_28 
REMARK   12  A    between atoms: N_29  and  C_30 
REMARK   13  A    between atoms: C_30  and  C_31 
REMARK   14  A    between atoms: C_31  and  C_32 
REMARK   15  A    between atoms: C_32  and  C_33 
ROOT
HETATM    1  C           1     -36.803  -0.292 -13.284  0.00  0.00     0.249 C 
HETATM    2  N           1     -36.059  -0.350 -12.137  0.00  0.00    -0.345 N 
HETATM    3  H           1     -35.111   0.004 -12.130  0.00  0.00     0.163 HD
HETATM    4  O           1     -37.935  -0.714 -13.292  0.00  0.00    -0.271 OA
ENDROOT
BRANCH   1   5
HETATM    5  C           1     -36.210   0.300 -14.539  0.00  0.00     0.274 C 
BRANCH   5   6
HETATM    6  N           1     -34.724   0.416 -14.383  0.00  0.00    -0.067 N 
HETATM    7  H           1     -34.253   0.076 -15.253  0.00  0.00     0.275 HD
HETATM    8  H           1     -34.468   1.416 -14.218  0.00  0.00     0.275 HD
HETATM    9  H           1     -34.413  -0.163 -13.570  0.00  0.00     0.275 HD
ENDBRANCH   5   6
BRANCH   5  10
HETATM   10  C           1     -36.527  -0.602 -15.725  0.00  0.00     0.044 C 
BRANCH  10  11
HETATM   11  C           1     -35.266  -0.818 -16.550  0.00  0.00     0.023 C 
BRANCH  11  12
HETATM   12  C           1     -35.100  -2.302 -16.848  0.00  0.00     0.138 C 
BRANCH  12  13
HETATM   13  N           1     -33.728  -2.560 -17.308  0.00  0.00    -0.227 N 
HETATM   14  H           1     -33.266  -1.898 -17.979  0.00  0.00     0.177 HD
HETATM   15  C           1     -33.103  -3.582 -16.896  0.00  0.00     0.665 C 
HETATM   16  N           1     -33.676  -4.402 -16.066  0.00  0.00    -0.235 N 
HETATM   17  N           1     -31.922  -3.804 -17.292  0.00  0.00    -0.235 N 
HETATM   18  H           1     -33.161  -5.244 -15.725  0.00  0.00     0.174 HD
HETATM   19  H           1     -34.651  -4.218 -15.738  0.00  0.00     0.174 HD
HETATM   20  H           1     -31.460  -3.142 -17.964  0.00  0.00     0.174 HD
HETATM   21  H           1     -31.404  -4.651 -16.950  0.00  0.00     0.174 HD
ENDBRANCH  12  13
ENDBRANCH  11  12
ENDBRANCH  10  11
ENDBRANCH   5  10
ENDBRANCH   1   5
BRANCH   2  22
HETATM   22  C           1     -36.628  -0.919 -10.931  0.00  0.00     0.187 C 
BRANCH  22  23
HETATM   23  C           1     -36.744   0.154  -9.876  0.00  0.00     0.196 C 
HETATM   24  O           1     -36.094   0.057  -8.813  0.00  0.00    -0.646 OA
HETATM   25  O           1     -37.491   1.138 -10.065  0.00  0.00    -0.646 OA
ENDBRANCH  22  23
BRANCH  22  26
HETATM   26  C           1     -35.725  -2.036 -10.423  0.00  0.00     0.066 C 
BRANCH  26  27
HETATM   27  C           1     -36.443  -3.373 -10.562  0.00  0.00     0.273 C 
BRANCH  27  28
HETATM   28  N           1     -35.477  -4.413 -10.795  0.00  0.00     0.101 N 
HETATM   29  H           1     -35.890  -5.133 -11.388  0.00  0.00     0.317 HD
BRANCH  28  30
HETATM   30  C           1     -34.353  -3.823 -11.472  0.00  0.00     0.348 C 
BRANCH  30  31
HETATM   31  C           1     -34.629  -3.771 -12.954  0.00  0.00     0.210 C 
HETATM   32  O           1     -35.026  -4.794 -13.553  0.00  0.00    -0.646 OA
HETATM   33  O           1     -34.461  -2.704 -13.585  0.00  0.00    -0.646 OA
ENDBRANCH  30  31
BRANCH  30  34
HETATM   34  C           1     -33.109  -4.663 -11.216  0.00  0.00     0.158 C 
HETATM   35  C           1     -33.521  -6.087 -10.870  0.00  0.00     0.042 C 
BRANCH  34  36
HETATM   36  O           1     -32.308  -4.673 -12.367  0.00  0.00    -0.393 OA
HETATM   37  H           1     -31.669  -5.355 -12.249  0.00  0.00     0.210 HD
ENDBRANCH  34  36
ENDBRANCH  30  34
ENDBRANCH  28  30
ENDBRANCH  27  28
ENDBRANCH  26  27
ENDBRANCH  22  26
ENDBRANCH   2  22
TORSDOF 15
ENDMDL
MODEL 2
REMARK VINA RESULT:      -6.5     13.716     16.961
REMARK  15 active torsions:
REMARK  status: ('A' for Active; 'I' for Inactive)
REMARK       I    between atoms: C_1  and  N_2 
REMARK    1  A    between atoms: C_1  and  C_33 
REMARK    2  A    between atoms: N_2  and  C_6 
REMARK    3  A    between atoms: C_5  and  C_6 
REMARK    4  A    between atoms: C_6  and  C_7 
REMARK    5  A    between atoms: C_7  and  C_8 
REMARK    6  A    between atoms: C_8  and  N_9 
REMARK    7  A    between atoms: N_9  and  C_13 
REMARK    8  A    between atoms: C_12  and  C_13 
REMARK    9  A    between atoms: C_13  and  C_15 
REMARK   10  A    between atoms: O_14  and  C_15 
REMARK   11  A    between atoms: N_25  and  C_33 
REMARK       I    between atoms: N_26  and  C_28 
REMARK       I    between atoms: N_27  and  C_28 
REMARK   12  A    between atoms: N_29  and  C_30 
REMARK   13  A    between atoms: C_30  and  C_31 
REMARK   14  A    between atoms: C_31  and  C_32 
REMARK   15  A    between atoms: C_32  and  C_33 
ROOT
HETATM    1  C           1     -21.587  -6.440  -4.221  0.00  0.00     0.249 C 
HETATM    2  N           1     -20.989  -5.472  -4.981  0.00  0.00    -0.345 N 
HETATM    3  H           1     -20.423  -4.759  -4.539  0.00  0.00     0.163 HD
HETATM    4  O           1     -22.263  -7.291  -4.749  0.00  0.00    -0.271 OA
ENDROOT
BRANCH   1   5
HETATM    5  C           1     -21.402  -6.445  -2.723  0.00  0.00     0.274 C 
BRANCH   5   6
HETATM    6  N           1     -22.546  -5.723  -2.077  0.00  0.00    -0.067 N 
HETATM    7  H           1     -23.443  -6.206  -2.314  0.00  0.00     0.275 HD
HETATM    8  H           1     -22.416  -5.722  -1.040  0.00  0.00     0.275 HD
HETATM    9  H           1     -22.579  -4.738  -2.425  0.00  0.00     0.275 HD
ENDBRANCH   5   6
BRANCH   5  10
HETATM   10  C           1     -21.361  -7.882  -2.221  0.00  0.00     0.044 C 
BRANCH  10  11
HETATM   11  C           1     -19.916  -8.291  -1.969  0.00  0.00     0.023 C 
BRANCH  11  12
HETATM   12  C           1     -19.662  -9.663  -2.578  0.00  0.00     0.138 C 
BRANCH  12  13
HETATM   13  N           1     -20.511  -9.838  -3.766  0.00  0.00    -0.227 N 
HETATM   14  H           1     -21.523 -10.093  -3.654  0.00  0.00     0.177 HD
HETATM   15  C           1     -20.022  -9.681  -4.923  0.00  0.00     0.665 C 
HETATM   16  N           1     -18.768  -9.366  -5.061  0.00  0.00    -0.235 N 
HETATM   17  N           1     -20.752  -9.832  -5.946  0.00  0.00    -0.235 N 
HETATM   18  H           1     -18.363  -9.236  -6.015  0.00  0.00     0.174 HD
HETATM   19  H           1     -18.164  -9.241  -4.217  0.00  0.00     0.174 HD
HETATM   20  H           1     -21.765 -10.087  -5.834  0.00  0.00     0.174 HD
HETATM   21  H           1     -20.346  -9.701  -6.905  0.00  0.00     0.174 HD
ENDBRANCH  12  13
ENDBRANCH  11  12
ENDBRANCH  10  11
ENDBRANCH   5  10
ENDBRANCH   1   5
BRANCH   2  22
HETATM   22  C           1     -21.167  -5.467  -6.420  0.00  0.00     0.187 C 
BRANCH  22  23
HETATM   23  C           1     -19.864  -5.834  -7.088  0.00  0.00     0.196 C 
HETATM   24  O           1     -19.381  -6.976  -6.929  0.00  0.00    -0.646 OA
HETATM   25  O           1     -19.268  -4.997  -7.799  0.00  0.00    -0.646 OA
ENDBRANCH  22  23
BRANCH  22  26
HETATM   26  C           1     -21.597  -4.078  -6.873  0.00  0.00     0.066 C 
BRANCH  26  27
HETATM   27  C           1     -22.698  -4.202  -7.918  0.00  0.00     0.273 C 
BRANCH  27  28
HETATM   28  N           1     -22.112  -4.492  -9.200  0.00  0.00     0.101 N 
HETATM   29  H           1     -22.417  -5.414  -9.512  0.00  0.00     0.317 HD
BRANCH  28  30
HETATM   30  C           1     -22.575  -3.495 -10.127  0.00  0.00     0.348 C 
BRANCH  30  31
HETATM   31  C           1     -23.787  -4.014 -10.861  0.00  0.00     0.210 C 
HETATM   32  O           1     -24.768  -3.265 -11.056  0.00  0.00    -0.646 OA
HETATM   33  O           1     -23.809  -5.194 -11.275  0.00  0.00    -0.646 OA
ENDBRANCH  30  31
BRANCH  30  34
HETATM   34  C           1     -21.471  -3.182 -11.128  0.00  0.00     0.158 C 
HETATM   35  C           1     -20.387  -4.248 -11.037  0.00  0.00     0.042 C 
BRANCH  34  36
HETATM   36  O           1     -22.006  -3.168 -12.424  0.00  0.00    -0.393 OA
HETATM   37  H           1     -21.392  -2.704 -12.968  0.00  0.00     0.210 HD
ENDBRANCH  34  36
ENDBRANCH  30  34
ENDBRANCH  28  30
ENDBRANCH  27  28
ENDBRANCH  26  27
ENDBRANCH  22  26
ENDBRANCH   2  22
TORSDOF 15
ENDMDL
MODEL 3
REMARK VINA RESULT:      -6.4     14.137     16.762
REMARK  15 active torsions:
REMARK  status: ('A' for Active; 'I' for Inactive)
REMARK       I    between atoms: C_1  and  N_2 
REMARK    1  A    between atoms: C_1  and  C_33 
REMARK    2  A    between atoms: N_2  and  C_6 
REMARK    3  A    between atoms: C_5  and  C_6 
REMARK    4  A    between atoms: C_6  and  C_7 
REMARK    5  A    between atoms: C_7  and  C_8 
REMARK    6  A    between atoms: C_8  and  N_9 
REMARK    7  A    between atoms: N_9  and  C_13 
REMARK    8  A    between atoms: C_12  and  C_13 
REMARK    9  A    between atoms: C_13  and  C_15 
REMARK   10  A    between atoms: O_14  and  C_15 
REMARK   11  A    between atoms: N_25  and  C_33 
REMARK       I    between atoms: N_26  and  C_28 
REMARK       I    between atoms: N_27  and  C_28 
REMARK   12  A    between atoms: N_29  and  C_30 
REMARK   13  A    between atoms: C_30  and  C_31 
REMARK   14  A    between atoms: C_31  and  C_32 
REMARK   15  A    between atoms: C_32  and  C_33 
ROOT
HETATM    1  C           1     -21.016  -5.127  -6.874  0.00  0.00     0.249 C 
HETATM    2  N           1     -21.358  -6.341  -6.344  0.00  0.00    -0.345 N 
HETATM    3  H           1     -21.983  -6.956  -6.848  0.00  0.00     0.163 HD
HETATM    4  O           1     -20.270  -4.393  -6.272  0.00  0.00    -0.271 OA
ENDROOT
BRANCH   1   5
HETATM    5  C           1     -21.572  -4.705  -8.213  0.00  0.00     0.274 C 
BRANCH   5   6
HETATM    6  N           1     -22.648  -3.682  -8.007  0.00  0.00    -0.067 N 
HETATM    7  H           1     -22.509  -3.210  -7.084  0.00  0.00     0.275 HD
HETATM    8  H           1     -22.602  -2.970  -8.771  0.00  0.00     0.275 HD
HETATM    9  H           1     -23.582  -4.150  -8.021  0.00  0.00     0.275 HD
ENDBRANCH   5   6
BRANCH   5  10
HETATM   10  C           1     -20.456  -4.105  -9.059  0.00  0.00     0.044 C 
BRANCH  10  11
HETATM   11  C           1     -20.654  -4.502 -10.516  0.00  0.00     0.023 C 
BRANCH  11  12
HETATM   12  C           1     -20.768  -3.249 -11.374  0.00  0.00     0.138 C 
BRANCH  12  13
HETATM   13  N           1     -22.174  -2.823 -11.434  0.00  0.00    -0.227 N 
HETATM   14  H           1     -22.655  -2.475 -10.568  0.00  0.00     0.177 HD
HETATM   15  C           1     -22.806  -2.875 -12.530  0.00  0.00     0.665 C 
HETATM   16  N           1     -22.210  -3.305 -13.603  0.00  0.00    -0.235 N 
HETATM   17  N           1     -24.016  -2.508 -12.582  0.00  0.00    -0.235 N 
HETATM   18  H           1     -22.731  -3.348 -14.508  0.00  0.00     0.174 HD
HETATM   19  H           1     -21.211  -3.608 -13.560  0.00  0.00     0.174 HD
HETATM   20  H           1     -24.497  -2.161 -11.716  0.00  0.00     0.174 HD
HETATM   21  H           1     -24.539  -2.551 -13.492  0.00  0.00     0.174 HD
ENDBRANCH  12  13
ENDBRANCH  11  12
ENDBRANCH  10  11
ENDBRANCH   5  10
ENDBRANCH   1   5
BRANCH   2  22
HETATM   22  C           1     -20.825  -6.746  -5.058  0.00  0.00     0.187 C 
BRANCH  22  23
HETATM   23  C           1     -20.347  -8.176  -5.141  0.00  0.00     0.196 C 
HETATM   24  O           1     -19.230  -8.489  -4.675  0.00  0.00    -0.646 OA
HETATM   25  O           1     -21.068  -9.046  -5.675  0.00  0.00    -0.646 OA
ENDBRANCH  22  23
BRANCH  22  26
HETATM   26  C           1     -21.914  -6.635  -3.999  0.00  0.00     0.066 C 
BRANCH  26  27
HETATM   27  C           1     -21.275  -6.509  -2.623  0.00  0.00     0.273 C 
BRANCH  27  28
HETATM   28  N           1     -21.998  -7.323  -1.682  0.00  0.00     0.101 N 
HETATM   29  H           1     -22.646  -7.929  -2.184  0.00  0.00     0.317 HD
BRANCH  28  30
HETATM   30  C           1     -21.039  -8.129  -0.975  0.00  0.00     0.348 C 
BRANCH  30  31
HETATM   31  C           1     -20.836  -9.430  -1.710  0.00  0.00     0.210 C 
HETATM   32  O           1     -19.708  -9.969  -1.728  0.00  0.00    -0.646 OA
HETATM   33  O           1     -21.796  -9.970  -2.302  0.00  0.00    -0.646 OA
ENDBRANCH  30  31
BRANCH  30  34
HETATM   34  C           1     -21.554  -8.415   0.430  0.00  0.00     0.158 C 
HETATM   35  C           1     -23.025  -8.029   0.518  0.00  0.00     0.042 C 
BRANCH  34  36
HETATM   36  O           1     -21.411  -9.781   0.710  0.00  0.00    -0.393 OA
HETATM   37  H           1     -21.446  -9.873   1.647  0.00  0.00     0.210 HD
ENDBRANCH  34  36
ENDBRANCH  30  34
ENDBRANCH  28  30
ENDBRANCH  27  28
ENDBRANCH  26  27
ENDBRANCH  22  26
ENDBRANCH   2  22
TORSDOF 15
ENDMDL
MODEL 4
REMARK VINA RESULT:      -6.3     13.543     17.121
REMARK  15 active torsions:
REMARK  status: ('A' for Active; 'I' for Inactive)
REMARK       I    between atoms: C_1  and  N_2 
REMARK    1  A    between atoms: C_1  and  C_33 
REMARK    2  A    between atoms: N_2  and  C_6 
REMARK    3  A    between atoms: C_5  and  C_6 
REMARK    4  A    between atoms: C_6  and  C_7 
REMARK    5  A    between atoms: C_7  and  C_8 
REMARK    6  A    between atoms: C_8  and  N_9 
REMARK    7  A    between atoms: N_9  and  C_13 
REMARK    8  A    between atoms: C_12  and  C_13 
REMARK    9  A    between atoms: C_13  and  C_15 
REMARK   10  A    between atoms: O_14  and  C_15 
REMARK   11  A    between atoms: N_25  and  C_33 
REMARK       I    between atoms: N_26  and  C_28 
REMARK       I    between atoms: N_27  and  C_28 
REMARK   12  A    between atoms: N_29  and  C_30 
REMARK   13  A    between atoms: C_30  and  C_31 
REMARK   14  A    between atoms: C_31  and  C_32 
REMARK   15  A    between atoms: C_32  and  C_33 
ROOT
HETATM    1  C           1     -21.291  -6.621  -5.029  0.00  0.00     0.249 C 
HETATM    2  N           1     -21.224  -5.372  -5.584  0.00  0.00    -0.345 N 
HETATM    3  H           1     -21.115  -4.559  -4.991  0.00  0.00     0.163 HD
HETATM    4  O           1     -21.421  -7.591  -5.737  0.00  0.00    -0.271 OA
ENDROOT
BRANCH   1   5
HETATM    5  C           1     -21.202  -6.787  -3.531  0.00  0.00     0.274 C 
BRANCH   5   6
HETATM    6  N           1     -22.384  -6.128  -2.885  0.00  0.00    -0.067 N 
HETATM    7  H           1     -23.253  -6.658  -3.125  0.00  0.00     0.275 HD
HETATM    8  H           1     -22.255  -6.123  -1.848  0.00  0.00     0.275 HD
HETATM    9  H           1     -22.468  -5.146  -3.231  0.00  0.00     0.275 HD
ENDBRANCH   5   6
BRANCH   5  10
HETATM   10  C           1     -21.195  -8.270  -3.184  0.00  0.00     0.044 C 
BRANCH  10  11
HETATM   11  C           1     -20.155  -8.534  -2.103  0.00  0.00     0.023 C 
BRANCH  11  12
HETATM   12  C           1     -20.809  -9.262  -0.936  0.00  0.00     0.138 C 
BRANCH  12  13
HETATM   13  N           1     -21.662  -8.326  -0.189  0.00  0.00    -0.227 N 
HETATM   14  H           1     -21.293  -7.381   0.082  0.00  0.00     0.177 HD
HETATM   15  C           1     -22.842  -8.659   0.128  0.00  0.00     0.665 C 
HETATM   16  N           1     -23.298  -9.829  -0.207  0.00  0.00    -0.235 N 
HETATM   17  N           1     -23.576  -7.853   0.771  0.00  0.00    -0.235 N 
HETATM   18  H           1     -24.272 -10.105   0.054  0.00  0.00     0.174 HD
HETATM   19  H           1     -22.692 -10.495  -0.738  0.00  0.00     0.174 HD
HETATM   20  H           1     -23.207  -6.908   1.042  0.00  0.00     0.174 HD
HETATM   21  H           1     -24.555  -8.130   1.034  0.00  0.00     0.174 HD
ENDBRANCH  12  13
ENDBRANCH  11  12
ENDBRANCH  10  11
ENDBRANCH   5  10
ENDBRANCH   1   5
BRANCH   2  22
HETATM   22  C           1     -21.310  -5.212  -7.022  0.00  0.00     0.187 C 
BRANCH  22  23
HETATM   23  C           1     -19.919  -5.204  -7.610  0.00  0.00     0.196 C 
HETATM   24  O           1     -19.366  -6.282  -7.918  0.00  0.00    -0.646 OA
HETATM   25  O           1     -19.322  -4.122  -7.789  0.00  0.00    -0.646 OA
ENDBRANCH  22  23
BRANCH  22  26
HETATM   26  C           1     -22.006  -3.897  -7.346  0.00  0.00     0.066 C 
BRANCH  26  27
HETATM   27  C           1     -23.048  -4.127  -8.433  0.00  0.00     0.273 C 
BRANCH  27  28
HETATM   28  N           1     -22.388  -4.472  -9.664  0.00  0.00     0.101 N 
HETATM   29  H           1     -22.727  -5.377  -9.990  0.00  0.00     0.317 HD
BRANCH  28  30
HETATM   30  C           1     -22.716  -3.462 -10.634  0.00  0.00     0.348 C 
BRANCH  30  31
HETATM   31  C           1     -23.885  -3.926 -11.468  0.00  0.00     0.210 C 
HETATM   32  O           1     -24.822  -3.140 -11.724  0.00  0.00    -0.646 OA
HETATM   33  O           1     -23.915  -5.097 -11.904  0.00  0.00    -0.646 OA
ENDBRANCH  30  31
BRANCH  30  34
HETATM   34  C           1     -21.514  -3.215 -11.536  0.00  0.00     0.158 C 
HETATM   35  C           1     -20.358  -4.102 -11.094  0.00  0.00     0.042 C 
BRANCH  34  36
HETATM   36  O           1     -21.856  -3.516 -12.862  0.00  0.00    -0.393 OA
HETATM   37  H           1     -21.062  -3.468 -13.367  0.00  0.00     0.210 HD
ENDBRANCH  34  36
ENDBRANCH  30  34
ENDBRANCH  28  30
ENDBRANCH  27  28
ENDBRANCH  26  27
ENDBRANCH  22  26
ENDBRANCH   2  22
TORSDOF 15
ENDMDL
MODEL 5
REMARK VINA RESULT:      -6.2     12.843     15.338
REMARK  15 active torsions:
REMARK  status: ('A' for Active; 'I' for Inactive)
REMARK       I    between atoms: C_1  and  N_2 
REMARK    1  A    between atoms: C_1  and  C_33 
REMARK    2  A    between atoms: N_2  and  C_6 
REMARK    3  A    between atoms: C_5  and  C_6 
REMARK    4  A    between atoms: C_6  and  C_7 
REMARK    5  A    between atoms: C_7  and  C_8 
REMARK    6  A    between atoms: C_8  and  N_9 
REMARK    7  A    between atoms: N_9  and  C_13 
REMARK    8  A    between atoms: C_12  and  C_13 
REMARK    9  A    between atoms: C_13  and  C_15 
REMARK   10  A    between atoms: O_14  and  C_15 
REMARK   11  A    between atoms: N_25  and  C_33 
REMARK       I    between atoms: N_26  and  C_28 
REMARK       I    between atoms: N_27  and  C_28 
REMARK   12  A    between atoms: N_29  and  C_30 
REMARK   13  A    between atoms: C_30  and  C_31 
REMARK   14  A    between atoms: C_31  and  C_32 
REMARK   15  A    between atoms: C_32  and  C_33 
ROOT
HETATM    1  C           1     -22.475  -4.160  -8.158  0.00  0.00     0.249 C 
HETATM    2  N           1     -22.066  -5.039  -7.192  0.00  0.00    -0.345 N 
HETATM    3  H           1     -22.598  -5.882  -7.016  0.00  0.00     0.163 HD
HETATM    4  O           1     -21.840  -3.154  -8.366  0.00  0.00    -0.271 OA
ENDROOT
BRANCH   1   5
HETATM    5  C           1     -23.718  -4.449  -8.963  0.00  0.00     0.274 C 
BRANCH   5   6
HETATM    6  N           1     -24.589  -3.229  -8.992  0.00  0.00    -0.067 N 
HETATM    7  H           1     -25.562  -3.500  -9.260  0.00  0.00     0.275 HD
HETATM    8  H           1     -24.600  -2.787  -8.045  0.00  0.00     0.275 HD
HETATM    9  H           1     -24.213  -2.548  -9.690  0.00  0.00     0.275 HD
ENDBRANCH   5   6
BRANCH   5  10
HETATM   10  C           1     -23.326  -4.826 -10.386  0.00  0.00     0.044 C 
BRANCH  10  11
HETATM   11  C           1     -24.000  -3.877 -11.367  0.00  0.00     0.023 C 
BRANCH  11  12
HETATM   12  C           1     -22.939  -3.108 -12.143  0.00  0.00     0.138 C 
BRANCH  12  13
HETATM   13  N           1     -23.586  -2.088 -12.981  0.00  0.00    -0.227 N 
HETATM   14  H           1     -24.237  -1.388 -12.547  0.00  0.00     0.177 HD
HETATM   15  C           1     -23.360  -2.054 -14.226  0.00  0.00     0.665 C 
HETATM   16  N           1     -22.555  -2.922 -14.763  0.00  0.00    -0.235 N 
HETATM   17  N           1     -23.918  -1.177 -14.948  0.00  0.00    -0.235 N 
HETATM   18  H           1     -22.367  -2.895 -15.791  0.00  0.00     0.174 HD
HETATM   19  H           1     -22.094  -3.647 -14.168  0.00  0.00     0.174 HD
HETATM   20  H           1     -24.569  -0.476 -14.514  0.00  0.00     0.174 HD
HETATM   21  H           1     -23.729  -1.149 -15.981  0.00  0.00     0.174 HD
ENDBRANCH  12  13
ENDBRANCH  11  12
ENDBRANCH  10  11
ENDBRANCH   5  10
ENDBRANCH   1   5
BRANCH   2  22
HETATM   22  C           1     -20.872  -4.762  -6.417  0.00  0.00     0.187 C 
BRANCH  22  23
HETATM   23  C           1     -19.662  -5.270  -7.162  0.00  0.00     0.196 C 
HETATM   24  O           1     -18.812  -4.463  -7.597  0.00  0.00    -0.646 OA
HETATM   25  O           1     -19.510  -6.497  -7.346  0.00  0.00    -0.646 OA
ENDBRANCH  22  23
BRANCH  22  26
HETATM   26  C           1     -20.969  -5.462  -5.067  0.00  0.00     0.066 C 
BRANCH  26  27
HETATM   27  C           1     -22.119  -6.460  -5.093  0.00  0.00     0.273 C 
BRANCH  27  28
HETATM   28  N           1     -21.994  -7.364  -3.981  0.00  0.00     0.101 N 
HETATM   29  H           1     -22.660  -8.129  -4.089  0.00  0.00     0.317 HD
BRANCH  28  30
HETATM   30  C           1     -20.656  -7.890  -3.993  0.00  0.00     0.348 C 
BRANCH  30  31
HETATM   31  C           1     -20.620  -9.155  -4.815  0.00  0.00     0.210 C 
HETATM   32  O           1     -19.663  -9.370  -5.589  0.00  0.00    -0.646 OA
HETATM   33  O           1     -21.547  -9.988  -4.720  0.00  0.00    -0.646 OA
ENDBRANCH  30  31
BRANCH  30  34
HETATM   34  C           1     -20.218  -8.197  -2.567  0.00  0.00     0.158 C 
HETATM   35  C           1     -21.378  -7.939  -1.615  0.00  0.00     0.042 C 
BRANCH  34  36
HETATM   36  O           1     -19.830  -9.541  -2.478  0.00  0.00    -0.393 OA
HETATM   37  H           1     -19.125  -9.581  -1.854  0.00  0.00     0.210 HD
ENDBRANCH  34  36
ENDBRANCH  30  34
ENDBRANCH  28  30
ENDBRANCH  27  28
ENDBRANCH  26  27
ENDBRANCH  22  26
ENDBRANCH   2  22
TORSDOF 15
ENDMDL
MODEL 6
REMARK VINA RESULT:      -6.2     12.185     15.520
REMARK  15 active torsions:
REMARK  status: ('A' for Active; 'I' for Inactive)
REMARK       I    between atoms: C_1  and  N_2 
REMARK    1  A    between atoms: C_1  and  C_33 
REMARK    2  A    between atoms: N_2  and  C_6 
REMARK    3  A    between atoms: C_5  and  C_6 
REMARK    4  A    between atoms: C_6  and  C_7 
REMARK    5  A    between atoms: C_7  and  C_8 
REMARK    6  A    between atoms: C_8  and  N_9 
REMARK    7  A    between atoms: N_9  and  C_13 
REMARK    8  A    between atoms: C_12  and  C_13 
REMARK    9  A    between atoms: C_13  and  C_15 
REMARK   10  A    between atoms: O_14  and  C_15 
REMARK   11  A    between atoms: N_25  and  C_33 
REMARK       I    between atoms: N_26  and  C_28 
REMARK       I    between atoms: N_27  and  C_28 
REMARK   12  A    between atoms: N_29  and  C_30 
REMARK   13  A    between atoms: C_30  and  C_31 
REMARK   14  A    between atoms: C_31  and  C_32 
REMARK   15  A    between atoms: C_32  and  C_33 
ROOT
HETATM    1  C           1     -21.473  -4.695  -7.368  0.00  0.00     0.249 C 
HETATM    2  N           1     -22.379  -4.811  -8.387  0.00  0.00    -0.345 N 
HETATM    3  H           1     -22.776  -5.714  -8.612  0.00  0.00     0.163 HD
HETATM    4  O           1     -21.000  -3.617  -7.100  0.00  0.00    -0.271 OA
ENDROOT
BRANCH   1   5
HETATM    5  C           1     -21.067  -5.916  -6.578  0.00  0.00     0.274 C 
BRANCH   5   6
HETATM    6  N           1     -19.855  -6.536  -7.207  0.00  0.00    -0.067 N 
HETATM    7  H           1     -19.859  -7.567  -7.029  0.00  0.00     0.275 HD
HETATM    8  H           1     -19.870  -6.362  -8.237  0.00  0.00     0.275 HD
HETATM    9  H           1     -18.993  -6.115  -6.793  0.00  0.00     0.275 HD
ENDBRANCH   5   6
BRANCH   5  10
HETATM   10  C           1     -20.744  -5.509  -5.146  0.00  0.00     0.044 C 
BRANCH  10  11
HETATM   11  C           1     -21.734  -6.167  -4.195  0.00  0.00     0.023 C 
BRANCH  11  12
HETATM   12  C           1     -21.284  -5.945  -2.757  0.00  0.00     0.138 C 
BRANCH  12  13
HETATM   13  N           1     -22.293  -6.490  -1.837  0.00  0.00    -0.227 N 
HETATM   14  H           1     -23.266  -6.095  -1.831  0.00  0.00     0.177 HD
HETATM   15  C           1     -21.989  -7.436  -1.052  0.00  0.00     0.665 C 
HETATM   16  N           1     -20.784  -7.924  -1.059  0.00  0.00    -0.235 N 
HETATM   17  N           1     -22.858  -7.905  -0.259  0.00  0.00    -0.235 N 
HETATM   18  H           1     -20.533  -8.704  -0.412  0.00  0.00     0.174 HD
HETATM   19  H           1     -20.067  -7.537  -1.713  0.00  0.00     0.174 HD
HETATM   20  H           1     -23.830  -7.509  -0.253  0.00  0.00     0.174 HD
HETATM   21  H           1     -22.605  -8.689   0.392  0.00  0.00     0.174 HD
ENDBRANCH  12  13
ENDBRANCH  11  12
ENDBRANCH  10  11
ENDBRANCH   5  10
ENDBRANCH   1   5
BRANCH   2  22
HETATM   22  C           1     -22.769  -3.639  -9.147  0.00  0.00     0.187 C 
BRANCH  22  23
HETATM   23  C           1     -24.207  -3.782  -9.586  0.00  0.00     0.196 C 
HETATM   24  O           1     -24.646  -4.900  -9.930  0.00  0.00    -0.646 OA
HETATM   25  O           1     -24.957  -2.782  -9.605  0.00  0.00    -0.646 OA
ENDBRANCH  22  23
BRANCH  22  26
HETATM   26  C           1     -21.874  -3.507 -10.372  0.00  0.00     0.066 C 
BRANCH  26  27
HETATM   27  C           1     -22.481  -4.286 -11.531  0.00  0.00     0.273 C 
BRANCH  27  28
HETATM   28  N           1     -22.250  -3.575 -12.760  0.00  0.00     0.101 N 
HETATM   29  H           1     -22.264  -4.232 -13.541  0.00  0.00     0.317 HD
BRANCH  28  30
HETATM   30  C           1     -23.314  -2.620 -12.919  0.00  0.00     0.348 C 
BRANCH  30  31
HETATM   31  C           1     -24.619  -3.350 -13.119  0.00  0.00     0.210 C 
HETATM   32  O           1     -25.683  -2.859 -12.683  0.00  0.00    -0.646 OA
HETATM   33  O           1     -24.637  -4.446 -13.720  0.00  0.00    -0.646 OA
ENDBRANCH  30  31
BRANCH  30  34
HETATM   34  C           1     -23.031  -1.743 -14.131  0.00  0.00     0.158 C 
HETATM   35  C           1     -22.543  -2.612 -15.283  0.00  0.00     0.042 C 
BRANCH  34  36
HETATM   36  O           1     -24.207  -1.080 -14.511  0.00  0.00    -0.393 OA
HETATM   37  H           1     -23.947  -0.334 -15.024  0.00  0.00     0.210 HD
ENDBRANCH  34  36
ENDBRANCH  30  34
ENDBRANCH  28  30
ENDBRANCH  27  28
ENDBRANCH  26  27
ENDBRANCH  22  26
ENDBRANCH   2  22
TORSDOF 15
ENDMDL
MODEL 7
REMARK VINA RESULT:      -6.2     14.054     16.720
REMARK  15 active torsions:
REMARK  status: ('A' for Active; 'I' for Inactive)
REMARK       I    between atoms: C_1  and  N_2 
REMARK    1  A    between atoms: C_1  and  C_33 
REMARK    2  A    between atoms: N_2  and  C_6 
REMARK    3  A    between atoms: C_5  and  C_6 
REMARK    4  A    between atoms: C_6  and  C_7 
REMARK    5  A    between atoms: C_7  and  C_8 
REMARK    6  A    between atoms: C_8  and  N_9 
REMARK    7  A    between atoms: N_9  and  C_13 
REMARK    8  A    between atoms: C_12  and  C_13 
REMARK    9  A    between atoms: C_13  and  C_15 
REMARK   10  A    between atoms: O_14  and  C_15 
REMARK   11  A    between atoms: N_25  and  C_33 
REMARK       I    between atoms: N_26  and  C_28 
REMARK       I    between atoms: N_27  and  C_28 
REMARK   12  A    between atoms: N_29  and  C_30 
REMARK   13  A    between atoms: C_30  and  C_31 
REMARK   14  A    between atoms: C_31  and  C_32 
REMARK   15  A    between atoms: C_32  and  C_33 
ROOT
HETATM    1  C           1     -21.060  -5.366  -6.666  0.00  0.00     0.249 C 
HETATM    2  N           1     -21.367  -6.578  -6.111  0.00  0.00    -0.345 N 
HETATM    3  H           1     -22.055  -7.177  -6.551  0.00  0.00     0.163 HD
HETATM    4  O           1     -20.239  -4.652  -6.141  0.00  0.00    -0.271 OA
ENDROOT
BRANCH   1   5
HETATM    5  C           1     -21.746  -4.920  -7.934  0.00  0.00     0.274 C 
BRANCH   5   6
HETATM    6  N           1     -22.915  -4.047  -7.589  0.00  0.00    -0.067 N 
HETATM    7  H           1     -23.691  -4.635  -7.209  0.00  0.00     0.275 HD
HETATM    8  H           1     -22.626  -3.347  -6.869  0.00  0.00     0.275 HD
HETATM    9  H           1     -23.244  -3.549  -8.447  0.00  0.00     0.275 HD
ENDBRANCH   5   6
BRANCH   5  10
HETATM   10  C           1     -20.764  -4.137  -8.795  0.00  0.00     0.044 C 
BRANCH  10  11
HETATM   11  C           1     -21.045  -4.413 -10.266  0.00  0.00     0.023 C 
BRANCH  11  12
HETATM   12  C           1     -21.623  -3.163 -10.917  0.00  0.00     0.138 C 
BRANCH  12  13
HETATM   13  N           1     -21.612  -3.322 -12.379  0.00  0.00    -0.227 N 
HETATM   14  H           1     -20.768  -3.725 -12.857  0.00  0.00     0.177 HD
HETATM   15  C           1     -22.619  -2.972 -13.062  0.00  0.00     0.665 C 
HETATM   16  N           1     -23.663  -2.472 -12.470  0.00  0.00    -0.235 N 
HETATM   17  N           1     -22.609  -3.107 -14.321  0.00  0.00    -0.235 N 
HETATM   18  H           1     -24.495  -2.184 -13.033  0.00  0.00     0.174 HD
HETATM   19  H           1     -23.672  -2.360 -11.431  0.00  0.00     0.174 HD
HETATM   20  H           1     -21.765  -3.510 -14.798  0.00  0.00     0.174 HD
HETATM   21  H           1     -23.445  -2.817 -14.886  0.00  0.00     0.174 HD
ENDBRANCH  12  13
ENDBRANCH  11  12
ENDBRANCH  10  11
ENDBRANCH   5  10
ENDBRANCH   1   5
BRANCH   2  22
HETATM   22  C           1     -20.709  -7.006  -4.893  0.00  0.00     0.187 C 
BRANCH  22  23
HETATM   23  C           1     -19.943  -8.280  -5.157  0.00  0.00     0.196 C 
HETATM   24  O           1     -20.185  -9.305  -4.484  0.00  0.00    -0.646 OA
HETATM   25  O           1     -19.067  -8.310  -6.048  0.00  0.00    -0.646 OA
ENDBRANCH  22  23
BRANCH  22  26
HETATM   26  C           1     -21.753  -7.256  -3.812  0.00  0.00     0.066 C 
BRANCH  26  27
HETATM   27  C           1     -21.199  -6.823  -2.461  0.00  0.00     0.273 C 
BRANCH  27  28
HETATM   28  N           1     -20.830  -7.986  -1.699  0.00  0.00     0.101 N 
HETATM   29  H           1     -20.246  -7.705  -0.911  0.00  0.00     0.317 HD
BRANCH  28  30
HETATM   30  C           1     -22.039  -8.589  -1.207  0.00  0.00     0.348 C 
BRANCH  30  31
HETATM   31  C           1     -22.357  -8.037   0.160  0.00  0.00     0.210 C 
HETATM   32  O           1     -23.430  -7.428   0.355  0.00  0.00    -0.646 OA
HETATM   33  O           1     -21.545  -8.189   1.100  0.00  0.00    -0.646 OA
ENDBRANCH  30  31
BRANCH  30  34
HETATM   34  C           1     -21.853 -10.098  -1.115  0.00  0.00     0.158 C 
HETATM   35  C           1     -23.185 -10.754  -0.778  0.00  0.00     0.042 C 
BRANCH  34  36
HETATM   36  O           1     -21.389 -10.586  -2.345  0.00  0.00    -0.393 OA
HETATM   37  H           1     -20.983 -11.419  -2.173  0.00  0.00     0.210 HD
ENDBRANCH  34  36
ENDBRANCH  30  34
ENDBRANCH  28  30
ENDBRANCH  27  28
ENDBRANCH  26  27
ENDBRANCH  22  26
ENDBRANCH   2  22
TORSDOF 15
ENDMDL
MODEL 8
REMARK VINA RESULT:      -6.0     14.751     17.756
REMARK  15 active torsions:
REMARK  status: ('A' for Active; 'I' for Inactive)
REMARK       I    between atoms: C_1  and  N_2 
REMARK    1  A    between atoms: C_1  and  C_33 
REMARK    2  A    between atoms: N_2  and  C_6 
REMARK    3  A    between atoms: C_5  and  C_6 
REMARK    4  A    between atoms: C_6  and  C_7 
REMARK    5  A    between atoms: C_7  and  C_8 
REMARK    6  A    between atoms: C_8  and  N_9 
REMARK    7  A    between atoms: N_9  and  C_13 
REMARK    8  A    between atoms: C_12  and  C_13 
REMARK    9  A    between atoms: C_13  and  C_15 
REMARK   10  A    between atoms: O_14  and  C_15 
REMARK   11  A    between atoms: N_25  and  C_33 
REMARK       I    between atoms: N_26  and  C_28 
REMARK       I    between atoms: N_27  and  C_28 
REMARK   12  A    between atoms: N_29  and  C_30 
REMARK   13  A    between atoms: C_30  and  C_31 
REMARK   14  A    between atoms: C_31  and  C_32 
REMARK   15  A    between atoms: C_32  and  C_33 
ROOT
HETATM    1  C           1     -20.299  -7.184  -5.619  0.00  0.00     0.249 C 
HETATM    2  N           1     -20.428  -8.087  -4.599  0.00  0.00    -0.345 N 
HETATM    3  H           1     -21.120  -7.939  -3.875  0.00  0.00     0.163 HD
HETATM    4  O           1     -19.473  -7.361  -6.482  0.00  0.00    -0.271 OA
ENDROOT
BRANCH   1   5
HETATM    5  C           1     -21.191  -5.967  -5.666  0.00  0.00     0.274 C 
BRANCH   5   6
HETATM    6  N           1     -21.949  -5.853  -4.378  0.00  0.00    -0.067 N 
HETATM    7  H           1     -21.282  -5.905  -3.574  0.00  0.00     0.275 HD
HETATM    8  H           1     -22.455  -4.939  -4.351  0.00  0.00     0.275 HD
HETATM    9  H           1     -22.639  -6.635  -4.308  0.00  0.00     0.275 HD
ENDBRANCH   5   6
BRANCH   5  10
HETATM   10  C           1     -20.339  -4.720  -5.865  0.00  0.00     0.044 C 
BRANCH  10  11
HETATM   11  C           1     -21.016  -3.798  -6.870  0.00  0.00     0.023 C 
BRANCH  11  12
HETATM   12  C           1     -21.952  -4.609  -7.756  0.00  0.00     0.138 C 
BRANCH  12  13
HETATM   13  N           1     -23.204  -3.864  -7.958  0.00  0.00    -0.227 N 
HETATM   14  H           1     -23.619  -3.311  -7.167  0.00  0.00     0.177 HD
HETATM   15  C           1     -23.781  -3.890  -9.084  0.00  0.00     0.665 C 
HETATM   16  N           1     -23.267  -4.575 -10.062  0.00  0.00    -0.235 N 
HETATM   17  N           1     -24.859  -3.249  -9.258  0.00  0.00    -0.235 N 
HETATM   18  H           1     -23.743  -4.596 -10.992  0.00  0.00     0.174 HD
HETATM   19  H           1     -22.377  -5.104  -9.919  0.00  0.00     0.174 HD
HETATM   20  H           1     -25.275  -2.697  -8.468  0.00  0.00     0.174 HD
HETATM   21  H           1     -25.337  -3.271 -10.193  0.00  0.00     0.174 HD
ENDBRANCH  12  13
ENDBRANCH  11  12
ENDBRANCH  10  11
ENDBRANCH   5  10
ENDBRANCH   1   5
BRANCH   2  22
HETATM   22  C           1     -19.571  -9.255  -4.552  0.00  0.00     0.187 C 
BRANCH  22  23
HETATM   23  C           1     -20.380 -10.484  -4.888  0.00  0.00     0.196 C 
HETATM   24  O           1     -20.677 -11.301  -3.990  0.00  0.00    -0.646 OA
HETATM   25  O           1     -20.752 -10.686  -6.064  0.00  0.00    -0.646 OA
ENDBRANCH  22  23
BRANCH  22  26
HETATM   26  C           1     -18.984  -9.399  -3.154  0.00  0.00     0.066 C 
BRANCH  26  27
HETATM   27  C           1     -19.815  -8.590  -2.168  0.00  0.00     0.273 C 
BRANCH  27  28
HETATM   28  N           1     -20.555  -9.485  -1.317  0.00  0.00     0.101 N 
HETATM   29  H           1     -20.198  -9.420  -0.364  0.00  0.00     0.317 HD
BRANCH  28  30
HETATM   30  C           1     -21.932  -9.071  -1.341  0.00  0.00     0.348 C 
BRANCH  30  31
HETATM   31  C           1     -22.121  -7.897  -0.412  0.00  0.00     0.210 C 
HETATM   32  O           1     -21.656  -7.937   0.748  0.00  0.00    -0.646 OA
HETATM   33  O           1     -22.741  -6.884  -0.802  0.00  0.00    -0.646 OA
ENDBRANCH  30  31
BRANCH  30  34
HETATM   34  C           1     -22.816 -10.225  -0.888  0.00  0.00     0.158 C 
HETATM   35  C           1     -21.954 -11.299  -0.238  0.00  0.00     0.042 C 
BRANCH  34  36
HETATM   36  O           1     -23.757  -9.755   0.040  0.00  0.00    -0.393 OA
HETATM   37  H           1     -24.600  -9.803  -0.377  0.00  0.00     0.210 HD
ENDBRANCH  34  36
ENDBRANCH  30  34
ENDBRANCH  28  30
ENDBRANCH  27  28
ENDBRANCH  26  27
ENDBRANCH  22  26
ENDBRANCH   2  22
TORSDOF 15
ENDMDL
MODEL 9
REMARK VINA RESULT:      -6.0      1.538      2.199
REMARK  15 active torsions:
REMARK  status: ('A' for Active; 'I' for Inactive)
REMARK       I    between atoms: C_1  and  N_2 
REMARK    1  A    between atoms: C_1  and  C_33 
REMARK    2  A    between atoms: N_2  and  C_6 
REMARK    3  A    between atoms: C_5  and  C_6 
REMARK    4  A    between atoms: C_6  and  C_7 
REMARK    5  A    between atoms: C_7  and  C_8 
REMARK    6  A    between atoms: C_8  and  N_9 
REMARK    7  A    between atoms: N_9  and  C_13 
REMARK    8  A    between atoms: C_12  and  C_13 
REMARK    9  A    between atoms: C_13  and  C_15 
REMARK   10  A    between atoms: O_14  and  C_15 
REMARK   11  A    between atoms: N_25  and  C_33 
REMARK       I    between atoms: N_26  and  C_28 
REMARK       I    between atoms: N_27  and  C_28 
REMARK   12  A    between atoms: N_29  and  C_30 
REMARK   13  A    between atoms: C_30  and  C_31 
REMARK   14  A    between atoms: C_31  and  C_32 
REMARK   15  A    between atoms: C_32  and  C_33 
ROOT
HETATM    1  C           1     -36.363  -0.408 -14.013  0.00  0.00     0.249 C 
HETATM    2  N           1     -35.346  -0.581 -13.113  0.00  0.00    -0.345 N 
HETATM    3  H           1     -34.427  -0.205 -13.308  0.00  0.00     0.163 HD
HETATM    4  O           1     -37.459  -0.858 -13.780  0.00  0.00    -0.271 OA
ENDROOT
BRANCH   1   5
HETATM    5  C           1     -36.113   0.346 -15.297  0.00  0.00     0.274 C 
BRANCH   5   6
HETATM    6  N           1     -35.723   1.758 -14.979  0.00  0.00    -0.067 N 
HETATM    7  H           1     -36.064   2.008 -14.023  0.00  0.00     0.275 HD
HETATM    8  H           1     -34.682   1.847 -15.011  0.00  0.00     0.275 HD
HETATM    9  H           1     -36.149   2.404 -15.681  0.00  0.00     0.275 HD
ENDBRANCH   5   6
BRANCH   5  10
HETATM   10  C           1     -34.989  -0.329 -16.072  0.00  0.00     0.044 C 
BRANCH  10  11
HETATM   11  C           1     -35.370  -1.774 -16.366  0.00  0.00     0.023 C 
BRANCH  11  12
HETATM   12  C           1     -34.362  -2.379 -17.334  0.00  0.00     0.138 C 
BRANCH  12  13
HETATM   13  N           1     -33.834  -3.631 -16.772  0.00  0.00    -0.227 N 
HETATM   14  H           1     -34.465  -4.270 -16.229  0.00  0.00     0.177 HD
HETATM   15  C           1     -32.617  -3.938 -16.942  0.00  0.00     0.665 C 
HETATM   16  N           1     -31.836  -3.145 -17.615  0.00  0.00    -0.235 N 
HETATM   17  N           1     -32.161  -5.015 -16.458  0.00  0.00    -0.235 N 
HETATM   18  H           1     -30.832  -3.398 -17.756  0.00  0.00     0.174 HD
HETATM   19  H           1     -32.212  -2.256 -18.014  0.00  0.00     0.174 HD
HETATM   20  H           1     -32.793  -5.654 -15.915  0.00  0.00     0.174 HD
HETATM   21  H           1     -31.152  -5.268 -16.600  0.00  0.00     0.174 HD
ENDBRANCH  12  13
ENDBRANCH  11  12
ENDBRANCH  10  11
ENDBRANCH   5  10
ENDBRANCH   1   5
BRANCH   2  22
HETATM   22  C           1     -35.585  -1.306 -11.880  0.00  0.00     0.187 C 
BRANCH  22  23
HETATM   23  C           1     -36.542  -0.522 -11.015  0.00  0.00     0.196 C 
HETATM   24  O           1     -36.227   0.618 -10.611  0.00  0.00    -0.646 OA
HETATM   25  O           1     -37.648  -1.013 -10.703  0.00  0.00    -0.646 OA
ENDBRANCH  22  23
BRANCH  22  26
HETATM   26  C           1     -34.268  -1.495 -11.139  0.00  0.00     0.066 C 
BRANCH  26  27
HETATM   27  C           1     -34.382  -2.683 -10.193  0.00  0.00     0.273 C 
BRANCH  27  28
HETATM   28  N           1     -33.710  -3.819 -10.766  0.00  0.00     0.101 N 
HETATM   29  H           1     -33.040  -4.191 -10.094  0.00  0.00     0.317 HD
BRANCH  28  30
HETATM   30  C           1     -34.706  -4.817 -11.052  0.00  0.00     0.348 C 
BRANCH  30  31
HETATM   31  C           1     -34.215  -6.165 -10.585  0.00  0.00     0.210 C 
HETATM   32  O           1     -34.963  -6.902  -9.909  0.00  0.00    -0.646 OA
HETATM   33  O           1     -33.060  -6.544 -10.876  0.00  0.00    -0.646 OA
ENDBRANCH  30  31
BRANCH  30  34
HETATM   34  C           1     -34.963  -4.861 -12.552  0.00  0.00     0.158 C 
HETATM   35  C           1     -33.787  -4.231 -13.287  0.00  0.00     0.042 C 
BRANCH  34  36
HETATM   36  O           1     -35.109  -6.194 -12.961  0.00  0.00    -0.393 OA
HETATM   37  H           1     -35.195  -6.185 -13.900  0.00  0.00     0.210 HD
ENDBRANCH  34  36
ENDBRANCH  30  34
ENDBRANCH  28  30
ENDBRANCH  27  28
ENDBRANCH  26  27
ENDBRANCH  22  26
ENDBRANCH   2  22
TORSDOF 15
ENDMDL
