MODEL 1
REMARK VINA RESULT:      -6.0      0.000      0.000
REMARK  8 active torsions:
REMARK  status: ('A' for Active; 'I' for Inactive)
REMARK    1  A    between atoms: C_5  and  C_6 
REMARK    2  A    between atoms: C_6  and  C_7 
REMARK    3  A    between atoms: C_6  and  N_15 
REMARK    4  A    between atoms: C_7  and  C_16 
REMARK       I    between atoms: C_13  and  N_15 
REMARK    5  A    between atoms: C_13  and  C_14 
REMARK    6  A    between atoms: C_14  and  N_20 
REMARK    7  A    between atoms: C_16  and  C_17 
REMARK    8  A    between atoms: C_17  and  N_18 
ROOT
HETATM    1  C           1     -22.982  -3.324 -12.260  0.00  0.00     0.185 C 
ENDROOT
BRANCH   1   2
HETATM    2  C           1     -24.001  -3.900 -11.307  0.00  0.00     0.196 C 
HETATM    3  O           1     -23.884  -5.077 -10.905  0.00  0.00    -0.646 OA
HETATM    4  O           1     -24.962  -3.199 -10.922  0.00  0.00    -0.646 OA
ENDBRANCH   1   2
BRANCH   1   5
HETATM    5  C           1     -21.756  -2.868 -11.480  0.00  0.00     0.038 C 
BRANCH   5   6
HETATM    6  C           1     -20.821  -4.051 -11.267  0.00  0.00     0.030 C 
BRANCH   6   7
HETATM    7  C           1     -20.384  -4.098  -9.808  0.00  0.00     0.230 C 
BRANCH   7   8
HETATM    8  N           1     -21.483  -4.692  -8.977  0.00  0.00    -0.079 N 
HETATM    9  H           1     -21.604  -5.699  -9.227  0.00  0.00     0.274 HD
HETATM   10  H           1     -21.234  -4.613  -7.964  0.00  0.00     0.274 HD
HETATM   11  H           1     -22.374  -4.178  -9.158  0.00  0.00     0.274 HD
ENDBRANCH   7   8
ENDBRANCH   6   7
ENDBRANCH   5   6
ENDBRANCH   1   5
BRANCH   1  12
HETATM   12  N           1     -23.560  -2.190 -12.956  0.00  0.00    -0.345 N 
HETATM   13  H           1     -24.045  -1.471 -12.435  0.00  0.00     0.163 HD
HETATM   14  C           1     -23.448  -2.093 -14.316  0.00  0.00     0.243 C 
HETATM   15  O           1     -22.869  -2.951 -14.937  0.00  0.00    -0.272 OA
BRANCH  14  16
HETATM   16  C           1     -24.049  -0.913 -15.040  0.00  0.00     0.332 C 
BRANCH  16  17
HETATM   17  N           1     -23.069  -0.393 -16.050  0.00  0.00    -0.071 N 
HETATM   18  H           1     -23.488  -0.455 -17.005  0.00  0.00     0.274 HD
HETATM   19  H           1     -22.195  -0.965 -16.013  0.00  0.00     0.274 HD
HETATM   20  H           1     -22.842   0.604 -15.834  0.00  0.00     0.274 HD
ENDBRANCH  16  17
ENDBRANCH  14  16
ENDBRANCH   1  12
TORSDOF 8
ENDMDL
MODEL 2
REMARK VINA RESULT:      -5.8     11.554     12.501
REMARK  8 active torsions:
REMARK  status: ('A' for Active; 'I' for Inactive)
REMARK    1  A    between atoms: C_5  and  C_6 
REMARK    2  A    between atoms: C_6  and  C_7 
REMARK    3  A    between atoms: C_6  and  N_15 
REMARK    4  A    between atoms: C_7  and  C_16 
REMARK       I    between atoms: C_13  and  N_15 
REMARK    5  A    between atoms: C_13  and  C_14 
REMARK    6  A    between atoms: C_14  and  N_20 
REMARK    7  A    between atoms: C_16  and  C_17 
REMARK    8  A    between atoms: C_17  and  N_18 
ROOT
HETATM    1  C           1     -35.120  -1.643 -11.393  0.00  0.00     0.185 C 
ENDROOT
BRANCH   1   2
HETATM    2  C           1     -36.221  -1.298 -10.421  0.00  0.00     0.196 C 
HETATM    3  O           1     -35.957  -0.666  -9.376  0.00  0.00    -0.646 OA
HETATM    4  O           1     -37.397  -1.648 -10.661  0.00  0.00    -0.646 OA
ENDBRANCH   1   2
BRANCH   1   5
HETATM    5  C           1     -33.912  -2.169 -10.629  0.00  0.00     0.038 C 
BRANCH   5   6
HETATM    6  C           1     -33.221  -3.249 -11.450  0.00  0.00     0.030 C 
BRANCH   6   7
HETATM    7  C           1     -34.257  -3.996 -12.281  0.00  0.00     0.230 C 
BRANCH   7   8
HETATM    8  N           1     -33.878  -3.928 -13.731  0.00  0.00    -0.079 N 
HETATM    9  H           1     -33.962  -4.878 -14.158  0.00  0.00     0.274 HD
HETATM   10  H           1     -34.516  -3.266 -14.227  0.00  0.00     0.274 HD
HETATM   11  H           1     -32.892  -3.594 -13.819  0.00  0.00     0.274 HD
ENDBRANCH   7   8
ENDBRANCH   6   7
ENDBRANCH   5   6
ENDBRANCH   1   5
BRANCH   1  12
HETATM   12  N           1     -34.742  -0.455 -12.134  0.00  0.00    -0.345 N 
HETATM   13  H           1     -34.227   0.285 -11.675  0.00  0.00     0.163 HD
HETATM   14  C           1     -35.081  -0.335 -13.455  0.00  0.00     0.243 C 
HETATM   15  O           1     -35.696  -1.218 -14.002  0.00  0.00    -0.272 OA
BRANCH  14  16
HETATM   16  C           1     -34.688   0.901 -14.225  0.00  0.00     0.332 C 
BRANCH  16  17
HETATM   17  N           1     -35.836   1.342 -15.085  0.00  0.00    -0.071 N 
HETATM   18  H           1     -35.539   2.153 -15.673  0.00  0.00     0.274 HD
HETATM   19  H           1     -36.637   1.626 -14.476  0.00  0.00     0.274 HD
HETATM   20  H           1     -36.131   0.553 -15.703  0.00  0.00     0.274 HD
ENDBRANCH  16  17
ENDBRANCH  14  16
ENDBRANCH   1  12
TORSDOF 8
ENDMDL
MODEL 3
REMARK VINA RESULT:      -5.3      2.533      5.735
REMARK  8 active torsions:
REMARK  status: ('A' for Active; 'I' for Inactive)
REMARK    1  A    between atoms: C_5  and  C_6 
REMARK    2  A    between atoms: C_6  and  C_7 
REMARK    3  A    between atoms: C_6  and  N_15 
REMARK    4  A    between atoms: C_7  and  C_16 
REMARK       I    between atoms: C_13  and  N_15 
REMARK    5  A    between atoms: C_13  and  C_14 
REMARK    6  A    between atoms: C_14  and  N_20 
REMARK    7  A    between atoms: C_16  and  C_17 
REMARK    8  A    between atoms: C_17  and  N_18 
ROOT
HETATM    1  C           1     -22.699  -3.706  -9.571  0.00  0.00     0.185 C 
ENDROOT
BRANCH   1   2
HETATM    2  C           1     -24.195  -3.806  -9.737  0.00  0.00     0.196 C 
HETATM    3  O           1     -24.709  -4.869 -10.145  0.00  0.00    -0.646 OA
HETATM    4  O           1     -24.921  -2.823  -9.468  0.00  0.00    -0.646 OA
ENDBRANCH   1   2
BRANCH   1   5
HETATM    5  C           1     -22.027  -3.810 -10.934  0.00  0.00     0.038 C 
BRANCH   5   6
HETATM    6  C           1     -22.431  -2.618 -11.792  0.00  0.00     0.030 C 
BRANCH   6   7
HETATM    7  C           1     -22.755  -3.093 -13.202  0.00  0.00     0.230 C 
BRANCH   7   8
HETATM    8  N           1     -23.842  -4.125 -13.144  0.00  0.00    -0.079 N 
HETATM    9  H           1     -23.609  -4.837 -12.416  0.00  0.00     0.274 HD
HETATM   10  H           1     -24.748  -3.663 -12.902  0.00  0.00     0.274 HD
HETATM   11  H           1     -23.928  -4.594 -14.074  0.00  0.00     0.274 HD
ENDBRANCH   7   8
ENDBRANCH   6   7
ENDBRANCH   5   6
ENDBRANCH   1   5
BRANCH   1  12
HETATM   12  N           1     -22.235  -4.785  -8.720  0.00  0.00    -0.345 N 
HETATM   13  H           1     -22.368  -5.747  -9.006  0.00  0.00     0.163 HD
HETATM   14  C           1     -21.618  -4.503  -7.532  0.00  0.00     0.243 C 
HETATM   15  O           1     -21.461  -3.356  -7.191  0.00  0.00    -0.272 OA
BRANCH  14  16
HETATM   16  C           1     -21.136  -5.627  -6.647  0.00  0.00     0.332 C 
BRANCH  16  17
HETATM   17  N           1     -19.923  -6.262  -7.261  0.00  0.00    -0.071 N 
HETATM   18  H           1     -20.005  -7.302  -7.197  0.00  0.00     0.274 HD
HETATM   19  H           1     -19.069  -5.946  -6.748  0.00  0.00     0.274 HD
HETATM   20  H           1     -19.851  -5.979  -8.264  0.00  0.00     0.274 HD
ENDBRANCH  16  17
ENDBRANCH  14  16
ENDBRANCH   1  12
TORSDOF 8
ENDMDL
MODEL 4
REMARK VINA RESULT:      -5.2      1.268      1.528
REMARK  8 active torsions:
REMARK  status: ('A' for Active; 'I' for Inactive)
REMARK    1  A    between atoms: C_5  and  C_6 
REMARK    2  A    between atoms: C_6  and  C_7 
REMARK    3  A    between atoms: C_6  and  N_15 
REMARK    4  A    between atoms: C_7  and  C_16 
REMARK       I    between atoms: C_13  and  N_15 
REMARK    5  A    between atoms: C_13  and  C_14 
REMARK    6  A    between atoms: C_14  and  N_20 
REMARK    7  A    between atoms: C_16  and  C_17 
REMARK    8  A    between atoms: C_17  and  N_18 
ROOT
HETATM    1  C           1     -22.990  -3.586 -11.361  0.00  0.00     0.185 C 
ENDROOT
BRANCH   1   2
HETATM    2  C           1     -24.128  -3.746 -10.383  0.00  0.00     0.196 C 
HETATM    3  O           1     -24.537  -2.760  -9.733  0.00  0.00    -0.646 OA
HETATM    4  O           1     -24.661  -4.866 -10.223  0.00  0.00    -0.646 OA
ENDBRANCH   1   2
BRANCH   1   5
HETATM    5  C           1     -21.690  -3.371 -10.597  0.00  0.00     0.038 C 
BRANCH   5   6
HETATM    6  C           1     -21.443  -4.554  -9.670  0.00  0.00     0.030 C 
BRANCH   6   7
HETATM    7  C           1     -21.035  -4.044  -8.294  0.00  0.00     0.230 C 
BRANCH   7   8
HETATM    8  N           1     -22.254  -3.592  -7.546  0.00  0.00    -0.079 N 
HETATM    9  H           1     -22.256  -2.549  -7.481  0.00  0.00     0.274 HD
HETATM   10  H           1     -23.111  -3.910  -8.053  0.00  0.00     0.274 HD
HETATM   11  H           1     -22.246  -4.001  -6.585  0.00  0.00     0.274 HD
ENDBRANCH   7   8
ENDBRANCH   6   7
ENDBRANCH   5   6
ENDBRANCH   1   5
BRANCH   1  12
HETATM   12  N           1     -23.244  -2.440 -12.213  0.00  0.00    -0.345 N 
HETATM   13  H           1     -23.013  -1.509 -11.891  0.00  0.00     0.163 HD
HETATM   14  C           1     -23.797  -2.619 -13.452  0.00  0.00     0.243 C 
HETATM   15  O           1     -24.073  -3.730 -13.836  0.00  0.00    -0.272 OA
BRANCH  14  16
HETATM   16  C           1     -24.061  -1.427 -14.339  0.00  0.00     0.332 C 
BRANCH  16  17
HETATM   17  N           1     -23.082  -1.421 -15.476  0.00  0.00    -0.071 N 
HETATM   18  H           1     -23.222  -0.560 -16.051  0.00  0.00     0.274 HD
HETATM   19  H           1     -23.235  -2.267 -16.070  0.00  0.00     0.274 HD
HETATM   20  H           1     -22.109  -1.433 -15.097  0.00  0.00     0.274 HD
ENDBRANCH  16  17
ENDBRANCH  14  16
ENDBRANCH   1  12
TORSDOF 8
ENDMDL
MODEL 5
REMARK VINA RESULT:      -5.2     11.258     13.317
REMARK  8 active torsions:
REMARK  status: ('A' for Active; 'I' for Inactive)
REMARK    1  A    between atoms: C_5  and  C_6 
REMARK    2  A    between atoms: C_6  and  C_7 
REMARK    3  A    between atoms: C_6  and  N_15 
REMARK    4  A    between atoms: C_7  and  C_16 
REMARK       I    between atoms: C_13  and  N_15 
REMARK    5  A    between atoms: C_13  and  C_14 
REMARK    6  A    between atoms: C_14  and  N_20 
REMARK    7  A    between atoms: C_16  and  C_17 
REMARK    8  A    between atoms: C_17  and  N_18 
ROOT
HETATM    1  C           1     -35.000  -0.774 -12.384  0.00  0.00     0.185 C 
ENDROOT
BRANCH   1   2
HETATM    2  C           1     -36.222  -0.445 -11.562  0.00  0.00     0.196 C 
HETATM    3  O           1     -36.146   0.391 -10.636  0.00  0.00    -0.646 OA
HETATM    4  O           1     -37.310  -1.010 -11.807  0.00  0.00    -0.646 OA
ENDBRANCH   1   2
BRANCH   1   5
HETATM    5  C           1     -35.294  -0.520 -13.857  0.00  0.00     0.038 C 
BRANCH   5   6
HETATM    6  C           1     -35.133   0.965 -14.159  0.00  0.00     0.030 C 
BRANCH   6   7
HETATM    7  C           1     -35.641   1.255 -15.565  0.00  0.00     0.230 C 
BRANCH   7   8
HETATM    8  N           1     -37.124   1.038 -15.616  0.00  0.00    -0.079 N 
HETATM    9  H           1     -37.553   1.713 -16.290  0.00  0.00     0.274 HD
HETATM   10  H           1     -37.323   0.061 -15.930  0.00  0.00     0.274 HD
HETATM   11  H           1     -37.532   1.189 -14.666  0.00  0.00     0.274 HD
ENDBRANCH   7   8
ENDBRANCH   6   7
ENDBRANCH   5   6
ENDBRANCH   1   5
BRANCH   1  12
HETATM   12  N           1     -34.653  -2.169 -12.195  0.00  0.00    -0.345 N 
HETATM   13  H           1     -35.069  -2.878 -12.785  0.00  0.00     0.163 HD
HETATM   14  C           1     -33.762  -2.526 -11.220  0.00  0.00     0.243 C 
HETATM   15  O           1     -33.265  -1.680 -10.516  0.00  0.00    -0.272 OA
BRANCH  14  16
HETATM   16  C           1     -33.401  -3.978 -11.023  0.00  0.00     0.332 C 
BRANCH  16  17
HETATM   17  N           1     -32.680  -4.484 -12.238  0.00  0.00    -0.071 N 
HETATM   18  H           1     -33.246  -5.237 -12.689  0.00  0.00     0.274 HD
HETATM   19  H           1     -31.749  -4.867 -11.955  0.00  0.00     0.274 HD
HETATM   20  H           1     -32.542  -3.699 -12.913  0.00  0.00     0.274 HD
ENDBRANCH  16  17
ENDBRANCH  14  16
ENDBRANCH   1  12
TORSDOF 8
ENDMDL
MODEL 6
REMARK VINA RESULT:      -5.1     11.512     12.268
REMARK  8 active torsions:
REMARK  status: ('A' for Active; 'I' for Inactive)
REMARK    1  A    between atoms: C_5  and  C_6 
REMARK    2  A    between atoms: C_6  and  C_7 
REMARK    3  A    between atoms: C_6  and  N_15 
REMARK    4  A    between atoms: C_7  and  C_16 
REMARK       I    between atoms: C_13  and  N_15 
REMARK    5  A    between atoms: C_13  and  C_14 
REMARK    6  A    between atoms: C_14  and  N_20 
REMARK    7  A    between atoms: C_16  and  C_17 
REMARK    8  A    between atoms: C_17  and  N_18 
ROOT
HETATM    1  C           1     -34.924  -2.522 -12.199  0.00  0.00     0.185 C 
ENDROOT
BRANCH   1   2
HETATM    2  C           1     -34.533  -1.793 -10.937  0.00  0.00     0.196 C 
HETATM    3  O           1     -33.332  -1.733 -10.596  0.00  0.00    -0.646 OA
HETATM    4  O           1     -35.411  -1.251 -10.232  0.00  0.00    -0.646 OA
ENDBRANCH   1   2
BRANCH   1   5
HETATM    5  C           1     -34.082  -3.784 -12.339  0.00  0.00     0.038 C 
BRANCH   5   6
HETATM    6  C           1     -34.835  -4.966 -11.743  0.00  0.00     0.030 C 
BRANCH   6   7
HETATM    7  C           1     -33.867  -5.844 -10.962  0.00  0.00     0.230 C 
BRANCH   7   8
HETATM    8  N           1     -34.432  -7.228 -10.840  0.00  0.00    -0.079 N 
HETATM    9  H           1     -33.809  -7.905 -11.336  0.00  0.00     0.274 HD
HETATM   10  H           1     -34.497  -7.490  -9.830  0.00  0.00     0.274 HD
HETATM   11  H           1     -35.385  -7.255 -11.269  0.00  0.00     0.274 HD
ENDBRANCH   7   8
ENDBRANCH   6   7
ENDBRANCH   5   6
ENDBRANCH   1   5
BRANCH   1  12
HETATM   12  N           1     -34.697  -1.661 -13.344  0.00  0.00    -0.345 N 
HETATM   13  H           1     -33.780  -1.619 -13.771  0.00  0.00     0.163 HD
HETATM   14  C           1     -35.722  -0.906 -13.845  0.00  0.00     0.243 C 
HETATM   15  O           1     -36.814  -0.956 -13.335  0.00  0.00    -0.272 OA
BRANCH  14  16
HETATM   16  C           1     -35.485  -0.010 -15.036  0.00  0.00     0.332 C 
BRANCH  16  17
HETATM   17  N           1     -35.488   1.424 -14.593  0.00  0.00    -0.071 N 
HETATM   18  H           1     -36.442   1.680 -14.252  0.00  0.00     0.274 HD
HETATM   19  H           1     -35.228   2.037 -15.398  0.00  0.00     0.274 HD
HETATM   20  H           1     -34.797   1.552 -13.821  0.00  0.00     0.274 HD
ENDBRANCH  16  17
ENDBRANCH  14  16
ENDBRANCH   1  12
TORSDOF 8
ENDMDL
MODEL 7
REMARK VINA RESULT:      -5.0      2.482      3.220
REMARK  8 active torsions:
REMARK  status: ('A' for Active; 'I' for Inactive)
REMARK    1  A    between atoms: C_5  and  C_6 
REMARK    2  A    between atoms: C_6  and  C_7 
REMARK    3  A    between atoms: C_6  and  N_15 
REMARK    4  A    between atoms: C_7  and  C_16 
REMARK       I    between atoms: C_13  and  N_15 
REMARK    5  A    between atoms: C_13  and  C_14 
REMARK    6  A    between atoms: C_14  and  N_20 
REMARK    7  A    between atoms: C_16  and  C_17 
REMARK    8  A    between atoms: C_17  and  N_18 
ROOT
HETATM    1  C           1     -22.024  -3.753 -10.669  0.00  0.00     0.185 C 
ENDROOT
BRANCH   1   2
HETATM    2  C           1     -20.559  -4.028 -10.436  0.00  0.00     0.196 C 
HETATM    3  O           1     -19.803  -4.250 -11.406  0.00  0.00    -0.646 OA
HETATM    4  O           1     -20.102  -4.034  -9.272  0.00  0.00    -0.646 OA
ENDBRANCH   1   2
BRANCH   1   5
HETATM    5  C           1     -22.861  -4.775  -9.909  0.00  0.00     0.038 C 
BRANCH   5   6
HETATM    6  C           1     -23.597  -4.082  -8.769  0.00  0.00     0.030 C 
BRANCH   6   7
HETATM    7  C           1     -22.930  -4.435  -7.446  0.00  0.00     0.230 C 
BRANCH   7   8
HETATM    8  N           1     -21.876  -3.416  -7.130  0.00  0.00    -0.079 N 
HETATM    9  H           1     -22.238  -2.751  -6.410  0.00  0.00     0.274 HD
HETATM   10  H           1     -21.025  -3.898  -6.760  0.00  0.00     0.274 HD
HETATM   11  H           1     -21.628  -2.889  -7.998  0.00  0.00     0.274 HD
ENDBRANCH   7   8
ENDBRANCH   6   7
ENDBRANCH   5   6
ENDBRANCH   1   5
BRANCH   1  12
HETATM   12  N           1     -22.314  -3.851 -12.087  0.00  0.00    -0.345 N 
HETATM   13  H           1     -21.713  -4.400 -12.689  0.00  0.00     0.163 HD
HETATM   14  C           1     -23.400  -3.203 -12.610  0.00  0.00     0.243 C 
HETATM   15  O           1     -24.116  -2.549 -11.891  0.00  0.00    -0.272 OA
BRANCH  14  16
HETATM   16  C           1     -23.701  -3.305 -14.085  0.00  0.00     0.332 C 
BRANCH  16  17
HETATM   17  N           1     -22.474  -2.951 -14.872  0.00  0.00    -0.071 N 
HETATM   18  H           1     -22.677  -3.042 -15.893  0.00  0.00     0.274 HD
HETATM   19  H           1     -21.695  -3.597 -14.611  0.00  0.00     0.274 HD
HETATM   20  H           1     -22.195  -1.967 -14.659  0.00  0.00     0.274 HD
ENDBRANCH  16  17
ENDBRANCH  14  16
ENDBRANCH   1  12
TORSDOF 8
ENDMDL
MODEL 8
REMARK VINA RESULT:      -4.9      3.517      5.255
REMARK  8 active torsions:
REMARK  status: ('A' for Active; 'I' for Inactive)
REMARK    1  A    between atoms: C_5  and  C_6 
REMARK    2  A    between atoms: C_6  and  C_7 
REMARK    3  A    between atoms: C_6  and  N_15 
REMARK    4  A    between atoms: C_7  and  C_16 
REMARK       I    between atoms: C_13  and  N_15 
REMARK    5  A    between atoms: C_13  and  C_14 
REMARK    6  A    between atoms: C_14  and  N_20 
REMARK    7  A    between atoms: C_16  and  C_17 
REMARK    8  A    between atoms: C_17  and  N_18 
ROOT
HETATM    1  C           1     -23.255  -3.572 -10.047  0.00  0.00     0.185 C 
ENDROOT
BRANCH   1   2
HETATM    2  C           1     -24.646  -3.267 -10.544  0.00  0.00     0.196 C 
HETATM    3  O           1     -25.592  -3.169  -9.733  0.00  0.00    -0.646 OA
HETATM    4  O           1     -24.853  -3.115 -11.767  0.00  0.00    -0.646 OA
ENDBRANCH   1   2
BRANCH   1   5
HETATM    5  C           1     -22.448  -4.224 -11.162  0.00  0.00     0.038 C 
BRANCH   5   6
HETATM    6  C           1     -21.037  -3.649 -11.172  0.00  0.00     0.030 C 
BRANCH   6   7
HETATM    7  C           1     -20.055  -4.703 -10.679  0.00  0.00     0.230 C 
BRANCH   7   8
HETATM    8  N           1     -19.707  -4.431  -9.245  0.00  0.00    -0.079 N 
HETATM    9  H           1     -19.196  -5.252  -8.849  0.00  0.00     0.274 HD
HETATM   10  H           1     -19.100  -3.583  -9.190  0.00  0.00     0.274 HD
HETATM   11  H           1     -20.583  -4.269  -8.698  0.00  0.00     0.274 HD
ENDBRANCH   7   8
ENDBRANCH   6   7
ENDBRANCH   5   6
ENDBRANCH   1   5
BRANCH   1  12
HETATM   12  N           1     -23.334  -4.475  -8.915  0.00  0.00    -0.345 N 
HETATM   13  H           1     -23.938  -5.286  -8.957  0.00  0.00     0.163 HD
HETATM   14  C           1     -22.591  -4.232  -7.792  0.00  0.00     0.243 C 
HETATM   15  O           1     -21.870  -3.264  -7.743  0.00  0.00    -0.272 OA
BRANCH  14  16
HETATM   16  C           1     -22.673  -5.172  -6.615  0.00  0.00     0.332 C 
BRANCH  16  17
HETATM   17  N           1     -24.075  -5.185  -6.082  0.00  0.00    -0.071 N 
HETATM   18  H           1     -24.325  -6.155  -5.783  0.00  0.00     0.274 HD
HETATM   19  H           1     -24.734  -4.870  -6.829  0.00  0.00     0.274 HD
HETATM   20  H           1     -24.143  -4.540  -5.263  0.00  0.00     0.274 HD
ENDBRANCH  16  17
ENDBRANCH  14  16
ENDBRANCH   1  12
TORSDOF 8
ENDMDL
MODEL 9
REMARK VINA RESULT:      -4.8     11.820     13.503
REMARK  8 active torsions:
REMARK  status: ('A' for Active; 'I' for Inactive)
REMARK    1  A    between atoms: C_5  and  C_6 
REMARK    2  A    between atoms: C_6  and  C_7 
REMARK    3  A    between atoms: C_6  and  N_15 
REMARK    4  A    between atoms: C_7  and  C_16 
REMARK       I    between atoms: C_13  and  N_15 
REMARK    5  A    between atoms: C_13  and  C_14 
REMARK    6  A    between atoms: C_14  and  N_20 
REMARK    7  A    between atoms: C_16  and  C_17 
REMARK    8  A    between atoms: C_17  and  N_18 
ROOT
HETATM    1  C           1     -35.787  -1.196 -12.548  0.00  0.00     0.185 C 
ENDROOT
BRANCH   1   2
HETATM    2  C           1     -35.569  -0.712 -13.961  0.00  0.00     0.196 C 
HETATM    3  O           1     -35.741   0.494 -14.242  0.00  0.00    -0.646 OA
HETATM    4  O           1     -35.217  -1.518 -14.849  0.00  0.00    -0.646 OA
ENDBRANCH   1   2
BRANCH   1   5
HETATM    5  C           1     -36.076  -0.006 -11.642  0.00  0.00     0.038 C 
BRANCH   5   6
HETATM    6  C           1     -37.276  -0.320 -10.757  0.00  0.00     0.030 C 
BRANCH   6   7
HETATM    7  C           1     -36.878  -0.180  -9.294  0.00  0.00     0.230 C 
BRANCH   7   8
HETATM    8  N           1     -36.503   1.245  -9.011  0.00  0.00    -0.079 N 
HETATM    9  H           1     -35.700   1.269  -8.343  0.00  0.00     0.274 HD
HETATM   10  H           1     -36.228   1.715  -9.903  0.00  0.00     0.274 HD
HETATM   11  H           1     -37.320   1.744  -8.592  0.00  0.00     0.274 HD
ENDBRANCH   7   8
ENDBRANCH   6   7
ENDBRANCH   5   6
ENDBRANCH   1   5
BRANCH   1  12
HETATM   12  N           1     -34.596  -1.879 -12.083  0.00  0.00    -0.345 N 
HETATM   13  H           1     -33.683  -1.474 -12.248  0.00  0.00     0.163 HD
HETATM   14  C           1     -34.706  -3.071 -11.420  0.00  0.00     0.243 C 
HETATM   15  O           1     -35.795  -3.554 -11.223  0.00  0.00    -0.272 OA
BRANCH  14  16
HETATM   16  C           1     -33.466  -3.782 -10.936  0.00  0.00     0.332 C 
BRANCH  16  17
HETATM   17  N           1     -33.260  -5.033 -11.738  0.00  0.00    -0.071 N 
HETATM   18  H           1     -32.237  -5.193 -11.876  0.00  0.00     0.274 HD
HETATM   19  H           1     -33.727  -4.930 -12.668  0.00  0.00     0.274 HD
HETATM   20  H           1     -33.675  -5.846 -11.230  0.00  0.00     0.274 HD
ENDBRANCH  16  17
ENDBRANCH  14  16
ENDBRANCH   1  12
TORSDOF 8
ENDMDL
