MODEL 1
REMARK VINA RESULT:      -8.1      0.000      0.000
REMARK  8 active torsions:
REMARK  status: ('A' for Active; 'I' for Inactive)
REMARK    1  A    between atoms: C_2  and  C_26 
REMARK    2  A    between atoms: C_2  and  C_3 
REMARK    3  A    between atoms: C_2  and  N_14 
REMARK    4  A    between atoms: C_3  and  C_24 
REMARK       I    between atoms: N_14  and  C_22 
REMARK    5  A    between atoms: C_21  and  C_22 
REMARK    6  A    between atoms: C_21  and  C_27 
REMARK    7  A    between atoms: C_21  and  N_23 
REMARK    8  A    between atoms: C_27  and  C_28 
ROOT
HETATM    1  N           1     -21.552  -4.200  -6.511  0.00  0.00    -0.344 N 
HETATM    2  O           1     -23.681  -4.856  -6.357  0.00  0.00    -0.271 OA
HETATM    3  C           1     -22.757  -4.535  -7.067  0.00  0.00     0.249 C 
HETATM    4  H           1     -21.361  -3.238  -6.260  0.00  0.00     0.163 HD
ENDROOT
BRANCH   1   5
HETATM    5  C           1     -20.549  -5.222  -6.284  0.00  0.00     0.190 C 
BRANCH   5   6
HETATM    6  C           1     -19.529  -5.180  -7.396  0.00  0.00     0.197 C 
HETATM    7  O           1     -18.532  -4.433  -7.303  0.00  0.00    -0.646 OA
HETATM    8  O           1     -19.681  -5.896  -8.410  0.00  0.00    -0.646 OA
ENDBRANCH   5   6
BRANCH   5   9
HETATM    9  C           1     -21.216  -6.590  -6.257  0.00  0.00     0.077 C 
BRANCH   9  10
HETATM   10  C           1     -20.704  -7.372  -5.087  0.00  0.00    -0.028 A 
HETATM   11  C           1     -19.739  -8.353  -5.127  0.00  0.00     0.096 A 
HETATM   12  N           1     -19.561  -8.816  -3.849  0.00  0.00    -0.365 N 
HETATM   13  C           1     -20.396  -8.150  -2.980  0.00  0.00     0.042 A 
HETATM   14  H           1     -18.886  -9.571  -3.573  0.00  0.00     0.165 HD
HETATM   15  C           1     -20.557  -8.287  -1.597  0.00  0.00     0.030 A 
HETATM   16  C           1     -21.128  -7.234  -3.736  0.00  0.00    -0.002 A 
HETATM   17  C           1     -21.495  -7.461  -0.969  0.00  0.00     0.002 A 
HETATM   18  C           1     -22.240  -6.536  -1.699  0.00  0.00     0.001 A 
HETATM   19  C           1     -22.067  -6.412  -3.083  0.00  0.00     0.014 A 
ENDBRANCH   9  10
ENDBRANCH   5   9
ENDBRANCH   1   5
BRANCH   3  20
HETATM   20  C           1     -22.932  -4.506  -8.566  0.00  0.00     0.280 C 
BRANCH  20  21
HETATM   21  C           1     -22.059  -3.407  -9.158  0.00  0.00     0.101 C 
BRANCH  21  22
HETATM   22  C           1     -22.152  -3.444 -10.651  0.00  0.00     0.028 A 
HETATM   23  N           1     -23.148  -2.853 -11.384  0.00  0.00    -0.355 N 
HETATM   24  C           1     -22.861  -3.118 -12.638  0.00  0.00     0.180 A 
ATOM     25  HN          1     -23.944  -2.320 -11.031  1.00  0.00     0.166 HD
HETATM   26  N           1     -21.718  -3.859 -12.742  0.00  0.00    -0.360 N 
HETATM   27  H           1     -21.277  -4.200 -13.632  0.00  0.00     0.166 HD
HETATM   28  C           1     -21.252  -4.075 -11.475  0.00  0.00     0.114 A 
ENDBRANCH  21  22
ENDBRANCH  20  21
BRANCH  20  29
HETATM   29  N           1     -24.369  -4.234  -8.895  0.00  0.00    -0.066 N 
HETATM   30  H           1     -24.424  -3.579  -9.708  0.00  0.00     0.275 HD
HETATM   31  H           1     -24.846  -5.131  -9.140  0.00  0.00     0.275 HD
HETATM   32  H           1     -24.841  -3.803  -8.068  0.00  0.00     0.275 HD
ENDBRANCH  20  29
ENDBRANCH   3  20
TORSDOF 8
ENDMDL
MODEL 2
REMARK VINA RESULT:      -8.1      2.164      3.083
REMARK  8 active torsions:
REMARK  status: ('A' for Active; 'I' for Inactive)
REMARK    1  A    between atoms: C_2  and  C_26 
REMARK    2  A    between atoms: C_2  and  C_3 
REMARK    3  A    between atoms: C_2  and  N_14 
REMARK    4  A    between atoms: C_3  and  C_24 
REMARK       I    between atoms: N_14  and  C_22 
REMARK    5  A    between atoms: C_21  and  C_22 
REMARK    6  A    between atoms: C_21  and  C_27 
REMARK    7  A    between atoms: C_21  and  N_23 
REMARK    8  A    between atoms: C_27  and  C_28 
ROOT
HETATM    1  N           1     -19.801  -7.058  -6.370  0.00  0.00    -0.344 N 
HETATM    2  O           1     -19.566  -4.868  -6.004  0.00  0.00    -0.271 OA
HETATM    3  C           1     -20.282  -5.777  -6.352  0.00  0.00     0.249 C 
HETATM    4  H           1     -19.360  -7.422  -7.205  0.00  0.00     0.163 HD
ENDROOT
BRANCH   1   5
HETATM    5  C           1     -19.924  -7.895  -5.192  0.00  0.00     0.190 C 
BRANCH   5   6
HETATM    6  C           1     -18.804  -8.906  -5.176  0.00  0.00     0.197 C 
HETATM    7  O           1     -18.452  -9.467  -6.236  0.00  0.00    -0.646 OA
HETATM    8  O           1     -18.226  -9.181  -4.101  0.00  0.00    -0.646 OA
ENDBRANCH   5   6
BRANCH   5   9
HETATM    9  C           1     -21.263  -8.621  -5.223  0.00  0.00     0.077 C 
BRANCH   9  10
HETATM   10  C           1     -21.556  -9.186  -3.868  0.00  0.00    -0.028 A 
HETATM   11  C           1     -21.626 -10.521  -3.544  0.00  0.00     0.096 A 
HETATM   12  N           1     -21.915 -10.612  -2.207  0.00  0.00    -0.365 N 
HETATM   13  C           1     -22.033  -9.355  -1.658  0.00  0.00     0.042 A 
HETATM   14  H           1     -22.030 -11.512  -1.678  0.00  0.00     0.165 HD
HETATM   15  C           1     -22.316  -8.965  -0.344  0.00  0.00     0.030 A 
HETATM   16  C           1     -21.811  -8.437  -2.685  0.00  0.00    -0.002 A 
HETATM   17  C           1     -22.373  -7.594  -0.075  0.00  0.00     0.002 A 
HETATM   18  C           1     -22.155  -6.654  -1.081  0.00  0.00     0.001 A 
HETATM   19  C           1     -21.873  -7.062  -2.390  0.00  0.00     0.014 A 
ENDBRANCH   9  10
ENDBRANCH   5   9
ENDBRANCH   1   5
BRANCH   3  20
HETATM   20  C           1     -21.706  -5.499  -6.769  0.00  0.00     0.280 C 
BRANCH  20  21
HETATM   21  C           1     -21.793  -4.111  -7.389  0.00  0.00     0.101 C 
BRANCH  21  22
HETATM   22  C           1     -22.732  -4.142  -8.554  0.00  0.00     0.028 A 
HETATM   23  N           1     -24.052  -3.774  -8.500  0.00  0.00    -0.355 N 
HETATM   24  C           1     -24.510  -3.947  -9.718  0.00  0.00     0.180 A 
ATOM     25  HN          1     -24.568  -3.438  -7.686  1.00  0.00     0.166 HD
HETATM   26  N           1     -23.537  -4.414 -10.557  0.00  0.00    -0.360 N 
HETATM   27  H           1     -23.650  -4.632 -11.577  0.00  0.00     0.166 HD
HETATM   28  C           1     -22.391  -4.543  -9.823  0.00  0.00     0.114 A 
ENDBRANCH  21  22
ENDBRANCH  20  21
BRANCH  20  29
HETATM   29  N           1     -22.599  -5.565  -5.565  0.00  0.00    -0.066 N 
HETATM   30  H           1     -23.106  -6.480  -5.557  0.00  0.00     0.275 HD
HETATM   31  H           1     -22.022  -5.480  -4.698  0.00  0.00     0.275 HD
HETATM   32  H           1     -23.292  -4.784  -5.602  0.00  0.00     0.275 HD
ENDBRANCH  20  29
ENDBRANCH   3  20
TORSDOF 8
ENDMDL
MODEL 3
REMARK VINA RESULT:      -8.0      2.239      3.654
REMARK  8 active torsions:
REMARK  status: ('A' for Active; 'I' for Inactive)
REMARK    1  A    between atoms: C_2  and  C_26 
REMARK    2  A    between atoms: C_2  and  C_3 
REMARK    3  A    between atoms: C_2  and  N_14 
REMARK    4  A    between atoms: C_3  and  C_24 
REMARK       I    between atoms: N_14  and  C_22 
REMARK    5  A    between atoms: C_21  and  C_22 
REMARK    6  A    between atoms: C_21  and  C_27 
REMARK    7  A    between atoms: C_21  and  N_23 
REMARK    8  A    between atoms: C_27  and  C_28 
ROOT
HETATM    1  N           1     -20.796  -7.479  -6.067  0.00  0.00    -0.344 N 
HETATM    2  O           1     -19.291  -6.428  -7.339  0.00  0.00    -0.271 OA
HETATM    3  C           1     -20.254  -6.347  -6.614  0.00  0.00     0.249 C 
HETATM    4  H           1     -21.526  -7.979  -6.559  0.00  0.00     0.163 HD
ENDROOT
BRANCH   1   5
HETATM    5  C           1     -20.326  -7.960  -4.783  0.00  0.00     0.190 C 
BRANCH   5   6
HETATM    6  C           1     -19.194  -8.936  -4.998  0.00  0.00     0.197 C 
HETATM    7  O           1     -18.355  -9.129  -4.092  0.00  0.00    -0.646 OA
HETATM    8  O           1     -19.097  -9.552  -6.082  0.00  0.00    -0.646 OA
ENDBRANCH   5   6
BRANCH   5   9
HETATM    9  C           1     -21.466  -8.658  -4.054  0.00  0.00     0.077 C 
BRANCH   9  10
HETATM   10  C           1     -21.688  -7.998  -2.728  0.00  0.00    -0.028 A 
HETATM   11  C           1     -22.147  -6.716  -2.527  0.00  0.00     0.096 A 
HETATM   12  N           1     -22.209  -6.502  -1.175  0.00  0.00    -0.365 N 
HETATM   13  C           1     -21.797  -7.626  -0.495  0.00  0.00     0.042 A 
HETATM   14  H           1     -22.525  -5.609  -0.723  0.00  0.00     0.165 HD
HETATM   15  C           1     -21.696  -7.865   0.880  0.00  0.00     0.030 A 
HETATM   16  C           1     -21.463  -8.584  -1.452  0.00  0.00    -0.002 A 
HETATM   17  C           1     -21.241  -9.122   1.287  0.00  0.00     0.002 A 
HETATM   18  C           1     -20.900 -10.100   0.353  0.00  0.00     0.001 A 
HETATM   19  C           1     -21.006  -9.844  -1.019  0.00  0.00     0.014 A 
ENDBRANCH   9  10
ENDBRANCH   5   9
ENDBRANCH   1   5
BRANCH   3  20
HETATM   20  C           1     -20.860  -4.998  -6.312  0.00  0.00     0.280 C 
BRANCH  20  21
HETATM   21  C           1     -20.620  -4.059  -7.487  0.00  0.00     0.101 C 
BRANCH  21  22
HETATM   22  C           1     -21.807  -4.086  -8.399  0.00  0.00     0.028 A 
HETATM   23  N           1     -23.093  -3.811  -8.012  0.00  0.00    -0.355 N 
HETATM   24  C           1     -23.818  -3.944  -9.098  0.00  0.00     0.180 A 
ATOM     25  HN          1     -23.417  -3.558  -7.078  1.00  0.00     0.166 HD
HETATM   26  N           1     -23.049  -4.295 -10.172  0.00  0.00    -0.360 N 
HETATM   27  H           1     -23.389  -4.461 -11.151  0.00  0.00     0.166 HD
HETATM   28  C           1     -21.756  -4.389  -9.738  0.00  0.00     0.114 A 
ENDBRANCH  21  22
ENDBRANCH  20  21
BRANCH  20  29
HETATM   29  N           1     -20.222  -4.430  -5.080  0.00  0.00    -0.066 N 
HETATM   30  H           1     -19.191  -4.338  -5.231  0.00  0.00     0.275 HD
HETATM   31  H           1     -20.628  -3.488  -4.879  0.00  0.00     0.275 HD
HETATM   32  H           1     -20.399  -5.067  -4.270  0.00  0.00     0.275 HD
ENDBRANCH  20  29
ENDBRANCH   3  20
TORSDOF 8
ENDMDL
MODEL 4
REMARK VINA RESULT:      -7.8      2.699      4.062
REMARK  8 active torsions:
REMARK  status: ('A' for Active; 'I' for Inactive)
REMARK    1  A    between atoms: C_2  and  C_26 
REMARK    2  A    between atoms: C_2  and  C_3 
REMARK    3  A    between atoms: C_2  and  N_14 
REMARK    4  A    between atoms: C_3  and  C_24 
REMARK       I    between atoms: N_14  and  C_22 
REMARK    5  A    between atoms: C_21  and  C_22 
REMARK    6  A    between atoms: C_21  and  C_27 
REMARK    7  A    between atoms: C_21  and  N_23 
REMARK    8  A    between atoms: C_27  and  C_28 
ROOT
HETATM    1  N           1     -20.645  -8.178  -5.938  0.00  0.00    -0.344 N 
HETATM    2  O           1     -19.603  -6.476  -6.940  0.00  0.00    -0.271 OA
HETATM    3  C           1     -20.541  -6.857  -6.280  0.00  0.00     0.249 C 
HETATM    4  H           1     -21.137  -8.821  -6.545  0.00  0.00     0.163 HD
ENDROOT
BRANCH   1   5
HETATM    5  C           1     -20.050  -8.656  -4.705  0.00  0.00     0.190 C 
BRANCH   5   6
HETATM    6  C           1     -18.672  -9.200  -4.991  0.00  0.00     0.197 C 
HETATM    7  O           1     -18.345  -9.493  -6.161  0.00  0.00    -0.646 OA
HETATM    8  O           1     -17.855  -9.356  -4.056  0.00  0.00    -0.646 OA
ENDBRANCH   5   6
BRANCH   5   9
HETATM    9  C           1     -20.920  -9.760  -4.117  0.00  0.00     0.077 C 
BRANCH   9  10
HETATM   10  C           1     -21.366  -9.366  -2.743  0.00  0.00    -0.028 A 
HETATM   11  C           1     -20.901  -8.293  -2.016  0.00  0.00     0.096 A 
HETATM   12  N           1     -21.562  -8.284  -0.816  0.00  0.00    -0.365 N 
HETATM   13  C           1     -22.450  -9.335  -0.753  0.00  0.00     0.042 A 
HETATM   14  H           1     -21.413  -7.577  -0.054  0.00  0.00     0.165 HD
HETATM   15  C           1     -23.328  -9.716   0.268  0.00  0.00     0.030 A 
HETATM   16  C           1     -22.345 -10.033  -1.956  0.00  0.00    -0.002 A 
HETATM   17  C           1     -24.123 -10.846   0.049  0.00  0.00     0.002 A 
HETATM   18  C           1     -24.040 -11.563  -1.144  0.00  0.00     0.001 A 
HETATM   19  C           1     -23.155 -11.167  -2.155  0.00  0.00     0.014 A 
ENDBRANCH   9  10
ENDBRANCH   5   9
ENDBRANCH   1   5
BRANCH   3  20
HETATM   20  C           1     -21.598  -5.876  -5.834  0.00  0.00     0.280 C 
BRANCH  20  21
HETATM   21  C           1     -21.318  -4.512  -6.450  0.00  0.00     0.101 C 
BRANCH  21  22
HETATM   22  C           1     -22.154  -4.338  -7.680  0.00  0.00     0.028 A 
HETATM   23  N           1     -23.511  -4.148  -7.679  0.00  0.00    -0.355 N 
HETATM   24  C           1     -23.848  -4.042  -8.943  0.00  0.00     0.180 A 
ATOM     25  HN          1     -24.129  -4.100  -6.868  1.00  0.00     0.166 HD
HETATM   26  N           1     -22.759  -4.158  -9.762  0.00  0.00    -0.360 N 
HETATM   27  H           1     -22.763  -4.109 -10.811  0.00  0.00     0.166 HD
HETATM   28  C           1     -21.665  -4.348  -8.964  0.00  0.00     0.114 A 
ENDBRANCH  21  22
ENDBRANCH  20  21
BRANCH  20  29
HETATM   29  N           1     -21.574  -5.764  -4.339  0.00  0.00    -0.066 N 
HETATM   30  H           1     -22.026  -4.866  -4.049  0.00  0.00     0.275 HD
HETATM   31  H           1     -22.097  -6.566  -3.921  0.00  0.00     0.275 HD
HETATM   32  H           1     -20.585  -5.779  -4.004  0.00  0.00     0.275 HD
ENDBRANCH  20  29
ENDBRANCH   3  20
TORSDOF 8
ENDMDL
MODEL 5
REMARK VINA RESULT:      -7.8      2.408      8.511
REMARK  8 active torsions:
REMARK  status: ('A' for Active; 'I' for Inactive)
REMARK    1  A    between atoms: C_2  and  C_26 
REMARK    2  A    between atoms: C_2  and  C_3 
REMARK    3  A    between atoms: C_2  and  N_14 
REMARK    4  A    between atoms: C_3  and  C_24 
REMARK       I    between atoms: N_14  and  C_22 
REMARK    5  A    between atoms: C_21  and  C_22 
REMARK    6  A    between atoms: C_21  and  C_27 
REMARK    7  A    between atoms: C_21  and  N_23 
REMARK    8  A    between atoms: C_27  and  C_28 
ROOT
HETATM    1  N           1     -22.417  -6.363  -4.426  0.00  0.00    -0.344 N 
HETATM    2  O           1     -20.941  -5.602  -2.933  0.00  0.00    -0.271 OA
HETATM    3  C           1     -21.589  -6.533  -3.349  0.00  0.00     0.249 C 
HETATM    4  H           1     -23.380  -6.085  -4.284  0.00  0.00     0.163 HD
ENDROOT
BRANCH   1   5
HETATM    5  C           1     -21.915  -6.582  -5.768  0.00  0.00     0.190 C 
BRANCH   5   6
HETATM    6  C           1     -20.912  -7.710  -5.751  0.00  0.00     0.197 C 
HETATM    7  O           1     -21.305  -8.896  -5.732  0.00  0.00    -0.646 OA
HETATM    8  O           1     -19.687  -7.457  -5.758  0.00  0.00    -0.646 OA
ENDBRANCH   5   6
BRANCH   5   9
HETATM    9  C           1     -21.243  -5.312  -6.272  0.00  0.00     0.077 C 
BRANCH   9  10
HETATM   10  C           1     -22.059  -4.721  -7.380  0.00  0.00    -0.028 A 
HETATM   11  C           1     -23.387  -4.366  -7.309  0.00  0.00     0.096 A 
HETATM   12  N           1     -23.752  -3.866  -8.532  0.00  0.00    -0.365 N 
HETATM   13  C           1     -22.680  -3.890  -9.395  0.00  0.00     0.042 A 
HETATM   14  H           1     -24.711  -3.515  -8.774  0.00  0.00     0.165 HD
HETATM   15  C           1     -22.586  -3.484 -10.731  0.00  0.00     0.030 A 
HETATM   16  C           1     -21.600  -4.425  -8.693  0.00  0.00    -0.002 A 
HETATM   17  C           1     -21.348  -3.629 -11.366  0.00  0.00     0.002 A 
HETATM   18  C           1     -20.252  -4.161 -10.690  0.00  0.00     0.001 A 
HETATM   19  C           1     -20.363  -4.563  -9.353  0.00  0.00     0.014 A 
ENDBRANCH   9  10
ENDBRANCH   5   9
ENDBRANCH   1   5
BRANCH   3  20
HETATM   20  C           1     -21.484  -7.883  -2.683  0.00  0.00     0.280 C 
BRANCH  20  21
HETATM   21  C           1     -21.888  -7.760  -1.220  0.00  0.00     0.101 C 
BRANCH  21  22
HETATM   22  C           1     -21.882  -9.115  -0.583  0.00  0.00     0.028 A 
HETATM   23  N           1     -20.967  -9.533   0.348  0.00  0.00    -0.355 N 
HETATM   24  C           1     -21.313 -10.765   0.644  0.00  0.00     0.180 A 
ATOM     25  HN          1     -20.185  -9.002   0.730  1.00  0.00     0.166 HD
HETATM   26  N           1     -22.415 -11.158  -0.061  0.00  0.00    -0.360 N 
HETATM   27  H           1     -22.886 -12.095  -0.005  0.00  0.00     0.166 HD
HETATM   28  C           1     -22.791 -10.109  -0.853  0.00  0.00     0.114 A 
ENDBRANCH  21  22
ENDBRANCH  20  21
BRANCH  20  29
HETATM   29  N           1     -20.070  -8.375  -2.771  0.00  0.00    -0.066 N 
HETATM   30  H           1     -20.054  -9.413  -2.652  0.00  0.00     0.275 HD
HETATM   31  H           1     -19.673  -8.126  -3.705  0.00  0.00     0.275 HD
HETATM   32  H           1     -19.499  -7.929  -2.018  0.00  0.00     0.275 HD
ENDBRANCH  20  29
ENDBRANCH   3  20
TORSDOF 8
ENDMDL
MODEL 6
REMARK VINA RESULT:      -7.8      1.833      2.624
REMARK  8 active torsions:
REMARK  status: ('A' for Active; 'I' for Inactive)
REMARK    1  A    between atoms: C_2  and  C_26 
REMARK    2  A    between atoms: C_2  and  C_3 
REMARK    3  A    between atoms: C_2  and  N_14 
REMARK    4  A    between atoms: C_3  and  C_24 
REMARK       I    between atoms: N_14  and  C_22 
REMARK    5  A    between atoms: C_21  and  C_22 
REMARK    6  A    between atoms: C_21  and  C_27 
REMARK    7  A    between atoms: C_21  and  N_23 
REMARK    8  A    between atoms: C_27  and  C_28 
ROOT
HETATM    1  N           1     -20.422  -6.683  -6.776  0.00  0.00    -0.344 N 
HETATM    2  O           1     -19.838  -4.546  -6.497  0.00  0.00    -0.271 OA
HETATM    3  C           1     -20.548  -5.349  -7.055  0.00  0.00     0.249 C 
HETATM    4  H           1     -19.783  -7.254  -7.315  0.00  0.00     0.163 HD
ENDROOT
BRANCH   1   5
HETATM    5  C           1     -21.204  -7.278  -5.710  0.00  0.00     0.190 C 
BRANCH   5   6
HETATM    6  C           1     -21.951  -6.195  -4.971  0.00  0.00     0.197 C 
HETATM    7  O           1     -21.385  -5.558  -4.056  0.00  0.00    -0.646 OA
HETATM    8  O           1     -23.135  -5.933  -5.276  0.00  0.00    -0.646 OA
ENDBRANCH   5   6
BRANCH   5   9
HETATM    9  C           1     -20.275  -8.004  -4.745  0.00  0.00     0.077 C 
BRANCH   9  10
HETATM   10  C           1     -21.069  -8.973  -3.923  0.00  0.00    -0.028 A 
HETATM   11  C           1     -21.576 -10.178  -4.355  0.00  0.00     0.096 A 
HETATM   12  N           1     -22.234 -10.756  -3.301  0.00  0.00    -0.365 N 
HETATM   13  C           1     -22.162  -9.944  -2.192  0.00  0.00     0.042 A 
HETATM   14  H           1     -22.724 -11.684  -3.336  0.00  0.00     0.165 HD
HETATM   15  C           1     -22.682 -10.124  -0.905  0.00  0.00     0.030 A 
HETATM   16  C           1     -21.432  -8.813  -2.557  0.00  0.00    -0.002 A 
HETATM   17  C           1     -22.447  -9.115   0.035  0.00  0.00     0.002 A 
HETATM   18  C           1     -21.721  -7.974  -0.302  0.00  0.00     0.001 A 
HETATM   19  C           1     -21.208  -7.810  -1.595  0.00  0.00     0.014 A 
ENDBRANCH   9  10
ENDBRANCH   5   9
ENDBRANCH   1   5
BRANCH   3  20
HETATM   20  C           1     -21.573  -4.881  -8.058  0.00  0.00     0.280 C 
BRANCH  20  21
HETATM   21  C           1     -20.871  -4.443  -9.336  0.00  0.00     0.101 C 
BRANCH  21  22
HETATM   22  C           1     -21.891  -4.089 -10.372  0.00  0.00     0.028 A 
HETATM   23  N           1     -21.781  -3.039 -11.247  0.00  0.00    -0.355 N 
HETATM   24  C           1     -22.872  -3.079 -11.976  0.00  0.00     0.180 A 
ATOM     25  HN          1     -21.015  -2.369 -11.316  1.00  0.00     0.166 HD
HETATM   26  N           1     -23.684  -4.114 -11.605  0.00  0.00    -0.360 N 
HETATM   27  H           1     -24.611  -4.360 -12.031  0.00  0.00     0.166 HD
HETATM   28  C           1     -23.066  -4.771 -10.577  0.00  0.00     0.114 A 
ENDBRANCH  21  22
ENDBRANCH  20  21
BRANCH  20  29
HETATM   29  N           1     -22.338  -3.724  -7.487  0.00  0.00    -0.066 N 
HETATM   30  H           1     -22.584  -3.926  -6.491  0.00  0.00     0.275 HD
HETATM   31  H           1     -21.749  -2.862  -7.530  0.00  0.00     0.275 HD
HETATM   32  H           1     -23.213  -3.577  -8.039  0.00  0.00     0.275 HD
ENDBRANCH  20  29
ENDBRANCH   3  20
TORSDOF 8
ENDMDL
MODEL 7
REMARK VINA RESULT:      -7.7      2.031      8.024
REMARK  8 active torsions:
REMARK  status: ('A' for Active; 'I' for Inactive)
REMARK    1  A    between atoms: C_2  and  C_26 
REMARK    2  A    between atoms: C_2  and  C_3 
REMARK    3  A    between atoms: C_2  and  N_14 
REMARK    4  A    between atoms: C_3  and  C_24 
REMARK       I    between atoms: N_14  and  C_22 
REMARK    5  A    between atoms: C_21  and  C_22 
REMARK    6  A    between atoms: C_21  and  C_27 
REMARK    7  A    between atoms: C_21  and  N_23 
REMARK    8  A    between atoms: C_27  and  C_28 
ROOT
HETATM    1  N           1     -22.231  -5.702  -5.576  0.00  0.00    -0.344 N 
HETATM    2  O           1     -21.013  -5.696  -3.704  0.00  0.00    -0.271 OA
HETATM    3  C           1     -21.629  -6.336  -4.523  0.00  0.00     0.249 C 
HETATM    4  H           1     -23.185  -5.373  -5.490  0.00  0.00     0.163 HD
ENDROOT
BRANCH   1   5
HETATM    5  C           1     -21.504  -5.503  -6.814  0.00  0.00     0.190 C 
BRANCH   5   6
HETATM    6  C           1     -20.023  -5.618  -6.550  0.00  0.00     0.197 C 
HETATM    7  O           1     -19.396  -4.649  -6.070  0.00  0.00    -0.646 OA
HETATM    8  O           1     -19.422  -6.684  -6.809  0.00  0.00    -0.646 OA
ENDBRANCH   5   6
BRANCH   5   9
HETATM    9  C           1     -21.816  -4.119  -7.368  0.00  0.00     0.077 C 
BRANCH   9  10
HETATM   10  C           1     -21.532  -4.095  -8.838  0.00  0.00    -0.028 A 
HETATM   11  C           1     -20.315  -4.338  -9.433  0.00  0.00     0.096 A 
HETATM   12  N           1     -20.481  -4.217 -10.789  0.00  0.00    -0.365 N 
HETATM   13  C           1     -21.788  -3.901 -11.082  0.00  0.00     0.042 A 
HETATM   14  H           1     -19.720  -4.348 -11.500  0.00  0.00     0.165 HD
HETATM   15  C           1     -22.410  -3.684 -12.317  0.00  0.00     0.030 A 
HETATM   16  C           1     -22.472  -3.817  -9.869  0.00  0.00    -0.002 A 
HETATM   17  C           1     -23.774  -3.373 -12.308  0.00  0.00     0.002 A 
HETATM   18  C           1     -24.483  -3.283 -11.112  0.00  0.00     0.001 A 
HETATM   19  C           1     -23.845  -3.503  -9.885  0.00  0.00     0.014 A 
ENDBRANCH   9  10
ENDBRANCH   5   9
ENDBRANCH   1   5
BRANCH   3  20
HETATM   20  C           1     -21.735  -7.836  -4.384  0.00  0.00     0.280 C 
BRANCH  20  21
HETATM   21  C           1     -20.824  -8.307  -3.259  0.00  0.00     0.101 C 
BRANCH  21  22
HETATM   22  C           1     -21.602  -8.380  -1.982  0.00  0.00     0.028 A 
HETATM   23  N           1     -21.957  -7.295  -1.223  0.00  0.00    -0.355 N 
HETATM   24  C           1     -22.621  -7.788  -0.203  0.00  0.00     0.180 A 
ATOM     25  HN          1     -21.750  -6.314  -1.411  1.00  0.00     0.166 HD
HETATM   26  N           1     -22.707  -9.149  -0.273  0.00  0.00    -0.360 N 
HETATM   27  H           1     -23.185  -9.778   0.419  0.00  0.00     0.166 HD
HETATM   28  C           1     -22.058  -9.543  -1.410  0.00  0.00     0.114 A 
ENDBRANCH  21  22
ENDBRANCH  20  21
BRANCH  20  29
HETATM   29  N           1     -21.319  -8.486  -5.670  0.00  0.00    -0.066 N 
HETATM   30  H           1     -20.288  -8.367  -5.803  0.00  0.00     0.275 HD
HETATM   31  H           1     -21.548  -9.505  -5.635  0.00  0.00     0.275 HD
HETATM   32  H           1     -21.827  -8.040  -6.466  0.00  0.00     0.275 HD
ENDBRANCH  20  29
ENDBRANCH   3  20
TORSDOF 8
ENDMDL
MODEL 8
REMARK VINA RESULT:      -7.7      2.989      5.003
REMARK  8 active torsions:
REMARK  status: ('A' for Active; 'I' for Inactive)
REMARK    1  A    between atoms: C_2  and  C_26 
REMARK    2  A    between atoms: C_2  and  C_3 
REMARK    3  A    between atoms: C_2  and  N_14 
REMARK    4  A    between atoms: C_3  and  C_24 
REMARK       I    between atoms: N_14  and  C_22 
REMARK    5  A    between atoms: C_21  and  C_22 
REMARK    6  A    between atoms: C_21  and  C_27 
REMARK    7  A    between atoms: C_21  and  N_23 
REMARK    8  A    between atoms: C_27  and  C_28 
ROOT
HETATM    1  N           1     -21.445  -6.421  -3.082  0.00  0.00    -0.344 N 
HETATM    2  O           1     -22.818  -6.106  -4.816  0.00  0.00    -0.271 OA
HETATM    3  C           1     -21.684  -6.230  -4.416  0.00  0.00     0.249 C 
HETATM    4  H           1     -21.302  -5.624  -2.475  0.00  0.00     0.163 HD
ENDROOT
BRANCH   1   5
HETATM    5  C           1     -21.397  -7.765  -2.539  0.00  0.00     0.190 C 
BRANCH   5   6
HETATM    6  C           1     -22.173  -7.811  -1.245  0.00  0.00     0.197 C 
HETATM    7  O           1     -22.709  -6.773  -0.800  0.00  0.00    -0.646 OA
HETATM    8  O           1     -22.281  -8.889  -0.620  0.00  0.00    -0.646 OA
ENDBRANCH   5   6
BRANCH   5   9
HETATM    9  C           1     -19.948  -8.154  -2.277  0.00  0.00     0.077 C 
BRANCH   9  10
HETATM   10  C           1     -19.493  -9.120  -3.326  0.00  0.00    -0.028 A 
HETATM   11  C           1     -20.284  -9.698  -4.294  0.00  0.00     0.096 A 
HETATM   12  N           1     -19.486 -10.516  -5.051  0.00  0.00    -0.365 N 
HETATM   13  C           1     -18.190 -10.479  -4.589  0.00  0.00     0.042 A 
HETATM   14  H           1     -19.817 -11.090  -5.866  0.00  0.00     0.165 HD
HETATM   15  C           1     -17.047 -11.145  -5.046  0.00  0.00     0.030 A 
HETATM   16  C           1     -18.168  -9.606  -3.501  0.00  0.00    -0.002 A 
HETATM   17  C           1     -15.846 -10.908  -4.370  0.00  0.00     0.002 A 
HETATM   18  C           1     -15.794 -10.041  -3.280  0.00  0.00     0.001 A 
HETATM   19  C           1     -16.947  -9.383  -2.835  0.00  0.00     0.014 A 
ENDBRANCH   9  10
ENDBRANCH   5   9
ENDBRANCH   1   5
BRANCH   3  20
HETATM   20  C           1     -20.531  -6.175  -5.389  0.00  0.00     0.280 C 
BRANCH  20  21
HETATM   21  C           1     -20.242  -4.724  -5.751  0.00  0.00     0.101 C 
BRANCH  21  22
HETATM   22  C           1     -20.902  -4.393  -7.054  0.00  0.00     0.028 A 
HETATM   23  N           1     -22.230  -4.085  -7.196  0.00  0.00    -0.355 N 
HETATM   24  C           1     -22.398  -3.862  -8.479  0.00  0.00     0.180 A 
ATOM     25  HN          1     -22.938  -4.040  -6.463  1.00  0.00     0.166 HD
HETATM   26  N           1     -21.230  -4.015  -9.171  0.00  0.00    -0.360 N 
HETATM   27  H           1     -21.099  -3.893 -10.205  0.00  0.00     0.166 HD
HETATM   28  C           1     -20.261  -4.355  -8.268  0.00  0.00     0.114 A 
ENDBRANCH  21  22
ENDBRANCH  20  21
BRANCH  20  29
HETATM   29  N           1     -20.889  -6.938  -6.630  0.00  0.00    -0.066 N 
HETATM   30  H           1     -21.253  -6.277  -7.353  0.00  0.00     0.275 HD
HETATM   31  H           1     -20.038  -7.421  -6.998  0.00  0.00     0.275 HD
HETATM   32  H           1     -21.623  -7.647  -6.403  0.00  0.00     0.275 HD
ENDBRANCH  20  29
ENDBRANCH   3  20
TORSDOF 8
ENDMDL
MODEL 9
REMARK VINA RESULT:      -7.3      2.460      4.245
REMARK  8 active torsions:
REMARK  status: ('A' for Active; 'I' for Inactive)
REMARK    1  A    between atoms: C_2  and  C_26 
REMARK    2  A    between atoms: C_2  and  C_3 
REMARK    3  A    between atoms: C_2  and  N_14 
REMARK    4  A    between atoms: C_3  and  C_24 
REMARK       I    between atoms: N_14  and  C_22 
REMARK    5  A    between atoms: C_21  and  C_22 
REMARK    6  A    between atoms: C_21  and  C_27 
REMARK    7  A    between atoms: C_21  and  N_23 
REMARK    8  A    between atoms: C_27  and  C_28 
ROOT
HETATM    1  N           1     -20.813  -8.420  -4.459  0.00  0.00    -0.344 N 
HETATM    2  O           1     -21.469  -7.782  -6.496  0.00  0.00    -0.271 OA
HETATM    3  C           1     -21.267  -7.479  -5.344  0.00  0.00     0.249 C 
HETATM    4  H           1     -21.473  -8.977  -3.931  0.00  0.00     0.163 HD
ENDROOT
BRANCH   1   5
HETATM    5  C           1     -19.389  -8.617  -4.277  0.00  0.00     0.190 C 
BRANCH   5   6
HETATM    6  C           1     -18.883  -9.597  -5.308  0.00  0.00     0.197 C 
HETATM    7  O           1     -19.660 -10.442  -5.802  0.00  0.00    -0.646 OA
HETATM    8  O           1     -17.686  -9.562  -5.669  0.00  0.00    -0.646 OA
ENDBRANCH   5   6
BRANCH   5   9
HETATM    9  C           1     -19.127  -9.168  -2.882  0.00  0.00     0.077 C 
BRANCH   9  10
HETATM   10  C           1     -20.384  -9.776  -2.341  0.00  0.00    -0.028 A 
HETATM   11  C           1     -20.914 -10.995  -2.697  0.00  0.00     0.096 A 
HETATM   12  N           1     -22.065 -11.178  -1.976  0.00  0.00    -0.365 N 
HETATM   13  C           1     -22.290 -10.095  -1.156  0.00  0.00     0.042 A 
HETATM   14  H           1     -22.685 -12.022  -2.040  0.00  0.00     0.165 HD
HETATM   15  C           1     -23.330  -9.845  -0.253  0.00  0.00     0.030 A 
HETATM   16  C           1     -21.245  -9.196  -1.368  0.00  0.00    -0.002 A 
HETATM   17  C           1     -23.297  -8.640   0.455  0.00  0.00     0.002 A 
HETATM   18  C           1     -22.264  -7.723   0.264  0.00  0.00     0.001 A 
HETATM   19  C           1     -21.232  -7.988  -0.644  0.00  0.00     0.014 A 
ENDBRANCH   9  10
ENDBRANCH   5   9
ENDBRANCH   1   5
BRANCH   3  20
HETATM   20  C           1     -21.513  -6.064  -4.881  0.00  0.00     0.280 C 
BRANCH  20  21
HETATM   21  C           1     -20.356  -5.177  -5.319  0.00  0.00     0.101 C 
BRANCH  21  22
HETATM   22  C           1     -20.571  -4.736  -6.733  0.00  0.00     0.028 A 
HETATM   23  N           1     -21.798  -4.600  -7.328  0.00  0.00    -0.355 N 
HETATM   24  C           1     -21.548  -4.199  -8.553  0.00  0.00     0.180 A 
ATOM     25  HN          1     -22.712  -4.774  -6.909  1.00  0.00     0.166 HD
HETATM   26  N           1     -20.205  -4.072  -8.772  0.00  0.00    -0.360 N 
HETATM   27  H           1     -19.748  -3.767  -9.667  0.00  0.00     0.166 HD
HETATM   28  C           1     -19.566  -4.413  -7.613  0.00  0.00     0.114 A 
ENDBRANCH  21  22
ENDBRANCH  20  21
BRANCH  20  29
HETATM   29  N           1     -21.623  -6.040  -3.385  0.00  0.00    -0.066 N 
HETATM   30  H           1     -21.235  -6.929  -2.993  0.00  0.00     0.275 HD
HETATM   31  H           1     -21.081  -5.230  -3.009  0.00  0.00     0.275 HD
HETATM   32  H           1     -22.627  -5.948  -3.111  0.00  0.00     0.275 HD
ENDBRANCH  20  29
ENDBRANCH   3  20
TORSDOF 8
ENDMDL
