MODEL 1
REMARK VINA RESULT:      -7.3      0.000      0.000
REMARK  8 active torsions:
REMARK  status: ('A' for Active; 'I' for Inactive)
REMARK    1  A    between atoms: C_2  and  C_3 
REMARK    2  A    between atoms: C_3  and  C_23 
REMARK    3  A    between atoms: C_4  and  C_5 
REMARK    4  A    between atoms: C_4  and  C_11 
REMARK    5  A    between atoms: C_4  and  N_21 
REMARK       I    between atoms: C_5  and  N_17 
REMARK    6  A    between atoms: O_8  and  C_11 
REMARK    7  A    between atoms: C_13  and  C_23 
REMARK    8  A    between atoms: N_17  and  C_23 
ROOT
HETATM    1  C           1     -36.786  -0.320 -13.499  0.00  0.00     0.251 C 
HETATM    2  O           1     -37.850  -0.693 -13.929  0.00  0.00    -0.271 OA
HETATM    3  H           1     -36.829   1.049 -11.947  0.00  0.00     0.163 HD
HETATM    4  N           1     -36.676   0.079 -12.194  0.00  0.00    -0.344 N 
ENDROOT
BRANCH   4   5
HETATM    5  C           1     -36.343  -0.887 -11.165  0.00  0.00     0.189 C 
BRANCH   5   6
HETATM    6  C           1     -34.830  -1.051 -11.095  0.00  0.00     0.074 C 
BRANCH   6   7
HETATM    7  C           1     -34.484  -2.506 -11.130  0.00  0.00    -0.056 A 
HETATM    8  C           1     -33.184  -2.907 -11.438  0.00  0.00     0.007 A 
HETATM    9  C           1     -32.862  -4.263 -11.471  0.00  0.00     0.001 A 
HETATM   10  C           1     -33.839  -5.220 -11.197  0.00  0.00     0.000 A 
HETATM   11  C           1     -35.139  -4.819 -10.888  0.00  0.00     0.001 A 
HETATM   12  C           1     -35.462  -3.462 -10.855  0.00  0.00     0.007 A 
ENDBRANCH   6   7
ENDBRANCH   5   6
BRANCH   5  13
HETATM   13  C           1     -36.860  -0.402  -9.834  0.00  0.00     0.197 C 
HETATM   14  O           1     -38.075  -0.143  -9.692  0.00  0.00    -0.646 OA
HETATM   15  O           1     -36.074  -0.259  -8.872  0.00  0.00    -0.646 OA
ENDBRANCH   5  13
ENDBRANCH   4   5
BRANCH   1  16
HETATM   16  C           1     -35.574  -0.295 -14.399  0.00  0.00     0.302 C 
BRANCH  16  17
HETATM   17  C           1     -35.958   0.293 -15.751  0.00  0.00     0.153 C 
HETATM   18  C           1     -36.337  -0.832 -16.704  0.00  0.00     0.042 C 
BRANCH  17  19
HETATM   19  O           1     -37.049   1.159 -15.593  0.00  0.00    -0.393 OA
HETATM   20  H           1     -36.720   2.036 -15.694  0.00  0.00     0.210 HD
ENDBRANCH  17  19
ENDBRANCH  16  17
BRANCH  16  21
HETATM   21  N           1     -35.063  -1.692 -14.589  0.00  0.00    -0.064 N 
HETATM   22  H           1     -35.522  -2.329 -13.900  0.00  0.00     0.275 HD
HETATM   23  H           1     -34.029  -1.707 -14.441  0.00  0.00     0.275 HD
HETATM   24  H           1     -35.282  -2.012 -15.559  0.00  0.00     0.275 HD
ENDBRANCH  16  21
ENDBRANCH   1  16
TORSDOF 8
ENDMDL
MODEL 2
REMARK VINA RESULT:      -7.1      2.065      5.061
REMARK  8 active torsions:
REMARK  status: ('A' for Active; 'I' for Inactive)
REMARK    1  A    between atoms: C_2  and  C_3 
REMARK    2  A    between atoms: C_3  and  C_23 
REMARK    3  A    between atoms: C_4  and  C_5 
REMARK    4  A    between atoms: C_4  and  C_11 
REMARK    5  A    between atoms: C_4  and  N_21 
REMARK       I    between atoms: C_5  and  N_17 
REMARK    6  A    between atoms: O_8  and  C_11 
REMARK    7  A    between atoms: C_13  and  C_23 
REMARK    8  A    between atoms: N_17  and  C_23 
ROOT
HETATM    1  C           1     -34.411  -2.001 -10.637  0.00  0.00     0.251 C 
HETATM    2  O           1     -33.303  -1.619 -10.350  0.00  0.00    -0.271 OA
HETATM    3  H           1     -35.907  -1.667  -9.246  0.00  0.00     0.163 HD
HETATM    4  N           1     -35.509  -1.362 -10.125  0.00  0.00    -0.344 N 
ENDROOT
BRANCH   4   5
HETATM    5  C           1     -36.101  -0.250 -10.841  0.00  0.00     0.189 C 
BRANCH   5   6
HETATM    6  C           1     -37.025  -0.781 -11.929  0.00  0.00     0.074 C 
BRANCH   6   7
HETATM    7  C           1     -36.672  -0.147 -13.238  0.00  0.00    -0.056 A 
HETATM    8  C           1     -35.422   0.444 -13.413  0.00  0.00     0.007 A 
HETATM    9  C           1     -35.093   1.034 -14.633  0.00  0.00     0.001 A 
HETATM   10  C           1     -36.016   1.035 -15.679  0.00  0.00     0.000 A 
HETATM   11  C           1     -37.268   0.443 -15.504  0.00  0.00     0.001 A 
HETATM   12  C           1     -37.596  -0.148 -14.284  0.00  0.00     0.007 A 
ENDBRANCH   6   7
ENDBRANCH   5   6
BRANCH   5  13
HETATM   13  C           1     -36.891   0.604  -9.881  0.00  0.00     0.197 C 
HETATM   14  O           1     -38.055   0.956 -10.170  0.00  0.00    -0.646 OA
HETATM   15  O           1     -36.382   0.958  -8.795  0.00  0.00    -0.646 OA
ENDBRANCH   5  13
ENDBRANCH   4   5
BRANCH   1  16
HETATM   16  C           1     -34.589  -3.181 -11.560  0.00  0.00     0.302 C 
BRANCH  16  17
HETATM   17  C           1     -33.655  -4.306 -11.132  0.00  0.00     0.153 C 
HETATM   18  C           1     -34.476  -5.471 -10.596  0.00  0.00     0.042 C 
BRANCH  17  19
HETATM   19  O           1     -32.903  -4.735 -12.235  0.00  0.00    -0.393 OA
HETATM   20  H           1     -33.324  -4.391 -13.005  0.00  0.00     0.210 HD
ENDBRANCH  17  19
ENDBRANCH  16  17
BRANCH  16  21
HETATM   21  N           1     -34.262  -2.770 -12.966  0.00  0.00    -0.064 N 
HETATM   22  H           1     -33.632  -3.481 -13.400  0.00  0.00     0.275 HD
HETATM   23  H           1     -33.784  -1.841 -12.954  0.00  0.00     0.275 HD
HETATM   24  H           1     -35.144  -2.701 -13.521  0.00  0.00     0.275 HD
ENDBRANCH  16  21
ENDBRANCH   1  16
TORSDOF 8
ENDMDL
MODEL 3
REMARK VINA RESULT:      -6.6      2.738      5.573
REMARK  8 active torsions:
REMARK  status: ('A' for Active; 'I' for Inactive)
REMARK    1  A    between atoms: C_2  and  C_3 
REMARK    2  A    between atoms: C_3  and  C_23 
REMARK    3  A    between atoms: C_4  and  C_5 
REMARK    4  A    between atoms: C_4  and  C_11 
REMARK    5  A    between atoms: C_4  and  N_21 
REMARK       I    between atoms: C_5  and  N_17 
REMARK    6  A    between atoms: O_8  and  C_11 
REMARK    7  A    between atoms: C_13  and  C_23 
REMARK    8  A    between atoms: N_17  and  C_23 
ROOT
HETATM    1  C           1     -33.517  -3.572 -11.122  0.00  0.00     0.251 C 
HETATM    2  O           1     -32.740  -3.862 -11.999  0.00  0.00    -0.271 OA
HETATM    3  H           1     -33.040  -1.935  -9.949  0.00  0.00     0.163 HD
HETATM    4  N           1     -33.624  -2.273 -10.703  0.00  0.00    -0.344 N 
ENDROOT
BRANCH   4   5
HETATM    5  C           1     -34.573  -1.381 -11.341  0.00  0.00     0.189 C 
BRANCH   5   6
HETATM    6  C           1     -34.950  -1.936 -12.708  0.00  0.00     0.074 C 
BRANCH   6   7
HETATM    7  C           1     -35.161  -0.805 -13.666  0.00  0.00    -0.056 A 
HETATM    8  C           1     -34.725   0.478 -13.337  0.00  0.00     0.007 A 
HETATM    9  C           1     -34.921   1.532 -14.229  0.00  0.00     0.001 A 
HETATM   10  C           1     -35.554   1.303 -15.450  0.00  0.00     0.000 A 
HETATM   11  C           1     -35.990   0.019 -15.780  0.00  0.00     0.001 A 
HETATM   12  C           1     -35.794  -1.035 -14.887  0.00  0.00     0.007 A 
ENDBRANCH   6   7
ENDBRANCH   5   6
BRANCH   5  13
HETATM   13  C           1     -35.809  -1.267 -10.484  0.00  0.00     0.197 C 
HETATM   14  O           1     -35.754  -0.679  -9.382  0.00  0.00    -0.646 OA
HETATM   15  O           1     -36.889  -1.759 -10.877  0.00  0.00    -0.646 OA
ENDBRANCH   5  13
ENDBRANCH   4   5
BRANCH   1  16
HETATM   16  C           1     -34.372  -4.641 -10.487  0.00  0.00     0.302 C 
BRANCH  16  17
HETATM   17  C           1     -34.017  -5.997 -11.082  0.00  0.00     0.153 C 
HETATM   18  C           1     -34.528  -7.102 -10.168  0.00  0.00     0.042 C 
BRANCH  17  19
HETATM   19  O           1     -34.612  -6.124 -12.345  0.00  0.00    -0.393 OA
HETATM   20  H           1     -35.389  -6.645 -12.231  0.00  0.00     0.210 HD
ENDBRANCH  17  19
ENDBRANCH  16  17
BRANCH  16  21
HETATM   21  N           1     -35.820  -4.345 -10.749  0.00  0.00    -0.064 N 
HETATM   22  H           1     -36.343  -5.241 -10.869  0.00  0.00     0.275 HD
HETATM   23  H           1     -35.906  -3.773 -11.619  0.00  0.00     0.275 HD
HETATM   24  H           1     -36.217  -3.815  -9.942  0.00  0.00     0.275 HD
ENDBRANCH  16  21
ENDBRANCH   1  16
TORSDOF 8
ENDMDL
MODEL 4
REMARK VINA RESULT:      -6.5     15.299     17.839
REMARK  8 active torsions:
REMARK  status: ('A' for Active; 'I' for Inactive)
REMARK    1  A    between atoms: C_2  and  C_3 
REMARK    2  A    between atoms: C_3  and  C_23 
REMARK    3  A    between atoms: C_4  and  C_5 
REMARK    4  A    between atoms: C_4  and  C_11 
REMARK    5  A    between atoms: C_4  and  N_21 
REMARK       I    between atoms: C_5  and  N_17 
REMARK    6  A    between atoms: O_8  and  C_11 
REMARK    7  A    between atoms: C_13  and  C_23 
REMARK    8  A    between atoms: N_17  and  C_23 
ROOT
HETATM    1  C           1     -21.560  -6.532  -3.133  0.00  0.00     0.251 C 
HETATM    2  O           1     -20.977  -5.595  -2.644  0.00  0.00    -0.271 OA
HETATM    3  H           1     -23.334  -6.125  -4.118  0.00  0.00     0.163 HD
HETATM    4  N           1     -22.353  -6.348  -4.233  0.00  0.00    -0.344 N 
ENDROOT
BRANCH   4   5
HETATM    5  C           1     -21.789  -6.472  -5.563  0.00  0.00     0.189 C 
BRANCH   5   6
HETATM    6  C           1     -20.905  -5.266  -5.852  0.00  0.00     0.074 C 
BRANCH   6   7
HETATM    7  C           1     -21.129  -4.808  -7.260  0.00  0.00    -0.056 A 
HETATM    8  C           1     -20.090  -4.868  -8.187  0.00  0.00     0.007 A 
HETATM    9  C           1     -20.300  -4.442  -9.498  0.00  0.00     0.001 A 
HETATM   10  C           1     -21.549  -3.954  -9.882  0.00  0.00     0.000 A 
HETATM   11  C           1     -22.589  -3.894  -8.954  0.00  0.00     0.001 A 
HETATM   12  C           1     -22.379  -4.321  -7.642  0.00  0.00     0.007 A 
ENDBRANCH   6   7
ENDBRANCH   5   6
BRANCH   5  13
HETATM   13  C           1     -20.965  -7.733  -5.644  0.00  0.00     0.197 C 
HETATM   14  O           1     -19.719  -7.671  -5.563  0.00  0.00    -0.646 OA
HETATM   15  O           1     -21.528  -8.839  -5.793  0.00  0.00    -0.646 OA
ENDBRANCH   5  13
ENDBRANCH   4   5
BRANCH   1  16
HETATM   16  C           1     -21.413  -7.909  -2.532  0.00  0.00     0.302 C 
BRANCH  16  17
HETATM   17  C           1     -22.144  -7.961  -1.196  0.00  0.00     0.153 C 
HETATM   18  C           1     -21.151  -8.278  -0.086  0.00  0.00     0.042 C 
BRANCH  17  19
HETATM   19  O           1     -22.746  -6.720  -0.943  0.00  0.00    -0.393 OA
HETATM   20  H           1     -23.629  -6.896  -0.663  0.00  0.00     0.210 HD
ENDBRANCH  17  19
ENDBRANCH  16  17
BRANCH  16  21
HETATM   21  N           1     -19.959  -8.208  -2.316  0.00  0.00    -0.064 N 
HETATM   22  H           1     -19.618  -7.695  -1.472  0.00  0.00     0.275 HD
HETATM   23  H           1     -19.413  -7.902  -3.152  0.00  0.00     0.275 HD
HETATM   24  H           1     -19.833  -9.235  -2.174  0.00  0.00     0.275 HD
ENDBRANCH  16  21
ENDBRANCH   1  16
TORSDOF 8
ENDMDL
MODEL 5
REMARK VINA RESULT:      -6.4     14.301     16.897
REMARK  8 active torsions:
REMARK  status: ('A' for Active; 'I' for Inactive)
REMARK    1  A    between atoms: C_2  and  C_3 
REMARK    2  A    between atoms: C_3  and  C_23 
REMARK    3  A    between atoms: C_4  and  C_5 
REMARK    4  A    between atoms: C_4  and  C_11 
REMARK    5  A    between atoms: C_4  and  N_21 
REMARK       I    between atoms: C_5  and  N_17 
REMARK    6  A    between atoms: O_8  and  C_11 
REMARK    7  A    between atoms: C_13  and  C_23 
REMARK    8  A    between atoms: N_17  and  C_23 
ROOT
HETATM    1  C           1     -21.178  -5.733  -4.844  0.00  0.00     0.251 C 
HETATM    2  O           1     -20.329  -5.088  -4.278  0.00  0.00    -0.271 OA
HETATM    3  H           1     -22.810  -4.695  -5.581  0.00  0.00     0.163 HD
HETATM    4  N           1     -21.941  -5.153  -5.822  0.00  0.00    -0.344 N 
ENDROOT
BRANCH   4   5
HETATM    5  C           1     -21.503  -5.196  -7.204  0.00  0.00     0.189 C 
BRANCH   5   6
HETATM    6  C           1     -21.784  -3.854  -7.866  0.00  0.00     0.074 C 
BRANCH   6   7
HETATM    7  C           1     -22.147  -4.072  -9.302  0.00  0.00    -0.056 A 
HETATM    8  C           1     -23.431  -4.497  -9.641  0.00  0.00     0.007 A 
HETATM    9  C           1     -23.768  -4.700 -10.979  0.00  0.00     0.001 A 
HETATM   10  C           1     -22.821  -4.480 -11.978  0.00  0.00     0.000 A 
HETATM   11  C           1     -21.536  -4.054 -11.640  0.00  0.00     0.001 A 
HETATM   12  C           1     -21.199  -3.851 -10.301  0.00  0.00     0.007 A 
ENDBRANCH   6   7
ENDBRANCH   5   6
BRANCH   5  13
HETATM   13  C           1     -20.022  -5.482  -7.254  0.00  0.00     0.197 C 
HETATM   14  O           1     -19.204  -4.538  -7.277  0.00  0.00    -0.646 OA
HETATM   15  O           1     -19.614  -6.664  -7.271  0.00  0.00    -0.646 OA
ENDBRANCH   5  13
ENDBRANCH   4   5
BRANCH   1  16
HETATM   16  C           1     -21.400  -7.179  -4.474  0.00  0.00     0.302 C 
BRANCH  16  17
HETATM   17  C           1     -21.908  -7.264  -3.040  0.00  0.00     0.153 C 
HETATM   18  C           1     -20.782  -7.734  -2.129  0.00  0.00     0.042 C 
BRANCH  17  19
HETATM   19  O           1     -22.349  -6.000  -2.623  0.00  0.00    -0.393 OA
HETATM   20  H           1     -23.157  -5.829  -3.076  0.00  0.00     0.210 HD
ENDBRANCH  17  19
ENDBRANCH  16  17
BRANCH  16  21
HETATM   21  N           1     -20.106  -7.929  -4.589  0.00  0.00    -0.064 N 
HETATM   22  H           1     -19.977  -8.535  -3.748  0.00  0.00     0.275 HD
HETATM   23  H           1     -19.314  -7.249  -4.652  0.00  0.00     0.275 HD
HETATM   24  H           1     -20.124  -8.523  -5.447  0.00  0.00     0.275 HD
ENDBRANCH  16  21
ENDBRANCH   1  16
TORSDOF 8
ENDMDL
MODEL 6
REMARK VINA RESULT:      -6.4     15.872     18.248
REMARK  8 active torsions:
REMARK  status: ('A' for Active; 'I' for Inactive)
REMARK    1  A    between atoms: C_2  and  C_3 
REMARK    2  A    between atoms: C_3  and  C_23 
REMARK    3  A    between atoms: C_4  and  C_5 
REMARK    4  A    between atoms: C_4  and  C_11 
REMARK    5  A    between atoms: C_4  and  N_21 
REMARK       I    between atoms: C_5  and  N_17 
REMARK    6  A    between atoms: O_8  and  C_11 
REMARK    7  A    between atoms: C_13  and  C_23 
REMARK    8  A    between atoms: N_17  and  C_23 
ROOT
HETATM    1  C           1     -20.393  -6.690  -6.209  0.00  0.00     0.251 C 
HETATM    2  O           1     -19.478  -6.596  -6.990  0.00  0.00    -0.271 OA
HETATM    3  H           1     -21.474  -8.454  -6.236  0.00  0.00     0.163 HD
HETATM    4  N           1     -20.772  -7.919  -5.741  0.00  0.00    -0.344 N 
ENDROOT
BRANCH   4   5
HETATM    5  C           1     -20.168  -8.455  -4.537  0.00  0.00     0.189 C 
BRANCH   5   6
HETATM    6  C           1     -21.176  -9.339  -3.815  0.00  0.00     0.074 C 
BRANCH   6   7
HETATM    7  C           1     -21.640  -8.652  -2.568  0.00  0.00    -0.056 A 
HETATM    8  C           1     -22.011  -9.403  -1.454  0.00  0.00     0.007 A 
HETATM    9  C           1     -22.443  -8.763  -0.293  0.00  0.00     0.001 A 
HETATM   10  C           1     -22.506  -7.370  -0.247  0.00  0.00     0.000 A 
HETATM   11  C           1     -22.135  -6.618  -1.362  0.00  0.00     0.001 A 
HETATM   12  C           1     -21.703  -7.259  -2.523  0.00  0.00     0.007 A 
ENDBRANCH   6   7
ENDBRANCH   5   6
BRANCH   5  13
HETATM   13  C           1     -18.954  -9.272  -4.905  0.00  0.00     0.197 C 
HETATM   14  O           1     -17.999  -9.367  -4.104  0.00  0.00    -0.646 OA
HETATM   15  O           1     -18.903  -9.854  -6.010  0.00  0.00    -0.646 OA
ENDBRANCH   5  13
ENDBRANCH   4   5
BRANCH   1  16
HETATM   16  C           1     -21.120  -5.451  -5.746  0.00  0.00     0.302 C 
BRANCH  16  17
HETATM   17  C           1     -21.886  -4.844  -6.915  0.00  0.00     0.153 C 
HETATM   18  C           1     -21.294  -3.485  -7.260  0.00  0.00     0.042 C 
BRANCH  17  19
HETATM   19  O           1     -21.789  -5.691  -8.028  0.00  0.00    -0.393 OA
HETATM   20  H           1     -20.871  -5.821  -8.194  0.00  0.00     0.210 HD
ENDBRANCH  17  19
ENDBRANCH  16  17
BRANCH  16  21
HETATM   21  N           1     -20.127  -4.452  -5.229  0.00  0.00    -0.064 N 
HETATM   22  H           1     -19.229  -4.548  -5.754  0.00  0.00     0.275 HD
HETATM   23  H           1     -19.957  -4.625  -4.213  0.00  0.00     0.275 HD
HETATM   24  H           1     -20.505  -3.487  -5.360  0.00  0.00     0.275 HD
ENDBRANCH  16  21
ENDBRANCH   1  16
TORSDOF 8
ENDMDL
MODEL 7
REMARK VINA RESULT:      -6.3     17.443     20.090
REMARK  8 active torsions:
REMARK  status: ('A' for Active; 'I' for Inactive)
REMARK    1  A    between atoms: C_2  and  C_3 
REMARK    2  A    between atoms: C_3  and  C_23 
REMARK    3  A    between atoms: C_4  and  C_5 
REMARK    4  A    between atoms: C_4  and  C_11 
REMARK    5  A    between atoms: C_4  and  N_21 
REMARK       I    between atoms: C_5  and  N_17 
REMARK    6  A    between atoms: O_8  and  C_11 
REMARK    7  A    between atoms: C_13  and  C_23 
REMARK    8  A    between atoms: N_17  and  C_23 
ROOT
HETATM    1  C           1     -19.052  -9.622  -3.946  0.00  0.00     0.251 C 
HETATM    2  O           1     -19.188 -10.621  -4.610  0.00  0.00    -0.271 OA
HETATM    3  H           1     -19.089  -7.814  -4.952  0.00  0.00     0.163 HD
HETATM    4  N           1     -19.613  -8.444  -4.358  0.00  0.00    -0.344 N 
ENDROOT
BRANCH   4   5
HETATM    5  C           1     -20.959  -8.097  -3.945  0.00  0.00     0.189 C 
BRANCH   5   6
HETATM    6  C           1     -20.904  -7.324  -2.634  0.00  0.00     0.074 C 
BRANCH   6   7
HETATM    7  C           1     -21.745  -8.020  -1.609  0.00  0.00    -0.056 A 
HETATM    8  C           1     -21.959  -9.394  -1.697  0.00  0.00     0.007 A 
HETATM    9  C           1     -22.743 -10.041  -0.742  0.00  0.00     0.001 A 
HETATM   10  C           1     -23.313  -9.313   0.301  0.00  0.00     0.000 A 
HETATM   11  C           1     -23.099  -7.937   0.390  0.00  0.00     0.001 A 
HETATM   12  C           1     -22.315  -7.290  -0.566  0.00  0.00     0.007 A 
ENDBRANCH   6   7
ENDBRANCH   5   6
BRANCH   5  13
HETATM   13  C           1     -21.607  -7.243  -5.007  0.00  0.00     0.197 C 
HETATM   14  O           1     -22.462  -6.389  -4.686  0.00  0.00    -0.646 OA
HETATM   15  O           1     -21.289  -7.389  -6.207  0.00  0.00    -0.646 OA
ENDBRANCH   5  13
ENDBRANCH   4   5
BRANCH   1  16
HETATM   16  C           1     -18.264  -9.672  -2.660  0.00  0.00     0.302 C 
BRANCH  16  17
HETATM   17  C           1     -16.780  -9.515  -2.966  0.00  0.00     0.153 C 
HETATM   18  C           1     -15.996 -10.604  -2.247  0.00  0.00     0.042 C 
BRANCH  17  19
HETATM   19  O           1     -16.573  -9.627  -4.349  0.00  0.00    -0.393 OA
HETATM   20  H           1     -15.716  -9.999  -4.468  0.00  0.00     0.210 HD
ENDBRANCH  17  19
ENDBRANCH  16  17
BRANCH  16  21
HETATM   21  N           1     -18.497 -10.990  -1.982  0.00  0.00    -0.064 N 
HETATM   22  H           1     -19.368 -11.427  -2.357  0.00  0.00     0.275 HD
HETATM   23  H           1     -18.599 -10.839  -0.953  0.00  0.00     0.275 HD
HETATM   24  H           1     -17.685 -11.621  -2.163  0.00  0.00     0.275 HD
ENDBRANCH  16  21
ENDBRANCH   1  16
TORSDOF 8
ENDMDL
MODEL 8
REMARK VINA RESULT:      -6.3     17.841     18.897
REMARK  8 active torsions:
REMARK  status: ('A' for Active; 'I' for Inactive)
REMARK    1  A    between atoms: C_2  and  C_3 
REMARK    2  A    between atoms: C_3  and  C_23 
REMARK    3  A    between atoms: C_4  and  C_5 
REMARK    4  A    between atoms: C_4  and  C_11 
REMARK    5  A    between atoms: C_4  and  N_21 
REMARK       I    between atoms: C_5  and  N_17 
REMARK    6  A    between atoms: O_8  and  C_11 
REMARK    7  A    between atoms: C_13  and  C_23 
REMARK    8  A    between atoms: N_17  and  C_23 
ROOT
HETATM    1  C           1     -20.567  -8.678  -5.136  0.00  0.00     0.251 C 
HETATM    2  O           1     -20.922  -8.078  -6.121  0.00  0.00    -0.271 OA
HETATM    3  H           1     -19.493  -7.612  -3.724  0.00  0.00     0.163 HD
HETATM    4  N           1     -20.394  -8.011  -3.953  0.00  0.00    -0.344 N 
ENDROOT
BRANCH   4   5
HETATM    5  C           1     -21.502  -7.877  -3.028  0.00  0.00     0.189 C 
BRANCH   5   6
HETATM    6  C           1     -21.140  -8.537  -1.704  0.00  0.00     0.074 C 
BRANCH   6   7
HETATM    7  C           1     -22.156  -9.585  -1.373  0.00  0.00    -0.056 A 
HETATM    8  C           1     -22.966  -9.442  -0.247  0.00  0.00     0.007 A 
HETATM    9  C           1     -23.912 -10.418   0.060  0.00  0.00     0.001 A 
HETATM   10  C           1     -24.049 -11.539  -0.758  0.00  0.00     0.000 A 
HETATM   11  C           1     -23.239 -11.683  -1.885  0.00  0.00     0.001 A 
HETATM   12  C           1     -22.292 -10.706  -2.192  0.00  0.00     0.007 A 
ENDBRANCH   6   7
ENDBRANCH   5   6
BRANCH   5  13
HETATM   13  C           1     -21.792  -6.414  -2.799  0.00  0.00     0.197 C 
HETATM   14  O           1     -22.533  -6.064  -1.855  0.00  0.00    -0.646 OA
HETATM   15  O           1     -21.291  -5.553  -3.554  0.00  0.00    -0.646 OA
ENDBRANCH   5  13
ENDBRANCH   4   5
BRANCH   1  16
HETATM   16  C           1     -20.313 -10.164  -5.207  0.00  0.00     0.302 C 
BRANCH  16  17
HETATM   17  C           1     -18.844 -10.415  -5.522  0.00  0.00     0.153 C 
HETATM   18  C           1     -18.722 -11.602  -6.467  0.00  0.00     0.042 C 
BRANCH  17  19
HETATM   19  O           1     -18.294  -9.276  -6.130  0.00  0.00    -0.393 OA
HETATM   20  H           1     -18.249  -8.607  -5.468  0.00  0.00     0.210 HD
ENDBRANCH  17  19
ENDBRANCH  16  17
BRANCH  16  21
HETATM   21  N           1     -21.163 -10.765  -6.287  0.00  0.00    -0.064 N 
HETATM   22  H           1     -20.897 -11.766  -6.425  0.00  0.00     0.275 HD
HETATM   23  H           1     -21.017 -10.240  -7.178  0.00  0.00     0.275 HD
HETATM   24  H           1     -22.169 -10.708  -6.010  0.00  0.00     0.275 HD
ENDBRANCH  16  21
ENDBRANCH   1  16
TORSDOF 8
ENDMDL
MODEL 9
REMARK VINA RESULT:      -6.1     18.347     19.693
REMARK  8 active torsions:
REMARK  status: ('A' for Active; 'I' for Inactive)
REMARK    1  A    between atoms: C_2  and  C_3 
REMARK    2  A    between atoms: C_3  and  C_23 
REMARK    3  A    between atoms: C_4  and  C_5 
REMARK    4  A    between atoms: C_4  and  C_11 
REMARK    5  A    between atoms: C_4  and  N_21 
REMARK       I    between atoms: C_5  and  N_17 
REMARK    6  A    between atoms: O_8  and  C_11 
REMARK    7  A    between atoms: C_13  and  C_23 
REMARK    8  A    between atoms: N_17  and  C_23 
ROOT
HETATM    1  C           1     -20.263  -8.829  -3.754  0.00  0.00     0.251 C 
HETATM    2  O           1     -20.574  -8.242  -4.761  0.00  0.00    -0.271 OA
HETATM    3  H           1     -19.494  -7.693  -2.204  0.00  0.00     0.163 HD
HETATM    4  N           1     -20.308  -8.188  -2.545  0.00  0.00    -0.344 N 
ENDROOT
BRANCH   4   5
HETATM    5  C           1     -21.522  -8.218  -1.753  0.00  0.00     0.189 C 
BRANCH   5   6
HETATM    6  C           1     -21.198  -8.703  -0.346  0.00  0.00     0.074 C 
BRANCH   6   7
HETATM    7  C           1     -21.938  -9.976  -0.074  0.00  0.00    -0.056 A 
HETATM    8  C           1     -23.282 -10.089  -0.425  0.00  0.00     0.007 A 
HETATM    9  C           1     -23.972 -11.275  -0.171  0.00  0.00     0.001 A 
HETATM   10  C           1     -23.317 -12.346   0.435  0.00  0.00     0.000 A 
HETATM   11  C           1     -21.972 -12.233   0.787  0.00  0.00     0.001 A 
HETATM   12  C           1     -21.283 -11.047   0.533  0.00  0.00     0.007 A 
ENDBRANCH   6   7
ENDBRANCH   5   6
BRANCH   5  13
HETATM   13  C           1     -22.112  -6.831  -1.684  0.00  0.00     0.197 C 
HETATM   14  O           1     -22.025  -6.066  -2.669  0.00  0.00    -0.646 OA
HETATM   15  O           1     -22.687  -6.447  -0.643  0.00  0.00    -0.646 OA
ENDBRANCH   5  13
ENDBRANCH   4   5
BRANCH   1  16
HETATM   16  C           1     -19.824 -10.272  -3.826  0.00  0.00     0.302 C 
BRANCH  16  17
HETATM   17  C           1     -21.044 -11.166  -4.003  0.00  0.00     0.153 C 
HETATM   18  C           1     -21.070 -12.215  -2.899  0.00  0.00     0.042 C 
BRANCH  17  19
HETATM   19  O           1     -22.209 -10.388  -3.935  0.00  0.00    -0.393 OA
HETATM   20  H           1     -22.871 -10.843  -4.428  0.00  0.00     0.210 HD
ENDBRANCH  17  19
ENDBRANCH  16  17
BRANCH  16  21
HETATM   21  N           1     -19.114 -10.642  -2.557  0.00  0.00    -0.064 N 
HETATM   22  H           1     -18.878 -11.660  -2.574  0.00  0.00     0.275 HD
HETATM   23  H           1     -19.735 -10.443  -1.740  0.00  0.00     0.275 HD
HETATM   24  H           1     -18.237 -10.082  -2.473  0.00  0.00     0.275 HD
ENDBRANCH  16  21
ENDBRANCH   1  16
TORSDOF 8
ENDMDL
