MODEL 1
REMARK VINA RESULT:      -6.1      0.000      0.000
REMARK  9 active torsions:
REMARK  status: ('A' for Active; 'I' for Inactive)
REMARK    1  A    between atoms: C_1  and  C_16 
REMARK    2  A    between atoms: C_1  and  C_8 
REMARK    3  A    between atoms: C_4  and  C_8 
REMARK    4  A    between atoms: C_5  and  C_6 
REMARK    5  A    between atoms: C_5  and  C_14 
REMARK    6  A    between atoms: C_5  and  N_11 
REMARK       I    between atoms: C_6  and  N_7 
REMARK    7  A    between atoms: N_7  and  C_8 
REMARK       I    between atoms: N_9  and  C_13 
REMARK    8  A    between atoms: C_13  and  C_14 
REMARK    9  A    between atoms: S_15  and  C_16 
ROOT
HETATM    1  C           1     -21.708  -4.686  -7.691  0.00  0.00     0.249 C 
HETATM    2  N           1     -22.196  -4.916  -8.949  0.00  0.00    -0.345 N 
HETATM    3  O           1     -21.721  -3.568  -7.234  0.00  0.00    -0.271 OA
HETATM    4  H           1     -22.185  -5.852  -9.332  0.00  0.00     0.163 HD
ENDROOT
BRANCH   1   5
HETATM    5  C           1     -21.155  -5.828  -6.875  0.00  0.00     0.283 C 
BRANCH   5   6
HETATM    6  C           1     -20.986  -5.384  -5.428  0.00  0.00     0.145 C 
BRANCH   6   7
HETATM    7  C           1     -21.626  -6.398  -4.511  0.00  0.00     0.217 C 
HETATM    8  N           1     -21.504  -7.735  -4.778  0.00  0.00    -0.370 N 
HETATM    9  H           1     -21.933  -8.416  -4.164  0.00  0.00     0.159 HD
HETATM   10  H           1     -20.986  -8.044  -5.590  0.00  0.00     0.159 HD
HETATM   11  O           1     -22.244  -6.030  -3.540  0.00  0.00    -0.274 OA
ENDBRANCH   6   7
ENDBRANCH   5   6
BRANCH   5  12
HETATM   12  N           1     -19.824  -6.239  -7.430  0.00  0.00    -0.066 N 
HETATM   13  H           1     -19.723  -5.870  -8.403  0.00  0.00     0.275 HD
HETATM   14  H           1     -19.062  -5.851  -6.830  0.00  0.00     0.275 HD
HETATM   15  H           1     -19.759  -7.281  -7.445  0.00  0.00     0.275 HD
ENDBRANCH   5  12
ENDBRANCH   1   5
BRANCH   2  16
HETATM   16  C           1     -22.727  -3.818  -9.734  0.00  0.00     0.186 C 
BRANCH  16  17
HETATM   17  C           1     -22.259  -3.954 -11.177  0.00  0.00     0.046 C 
BRANCH  17  18
HETATM   18  C           1     -22.496  -2.641 -11.912  0.00  0.00     0.076 C 
BRANCH  18  19
HETATM   19  S           1     -23.879  -2.837 -13.071  0.00  0.00    -0.173 SA
HETATM   20  C           1     -22.895  -2.662 -14.586  0.00  0.00     0.089 C 
ENDBRANCH  18  19
ENDBRANCH  17  18
ENDBRANCH  16  17
BRANCH  16  21
HETATM   21  C           1     -24.235  -3.853  -9.687  0.00  0.00     0.196 C 
HETATM   22  O           1     -24.876  -2.810  -9.437  0.00  0.00    -0.646 OA
HETATM   23  O           1     -24.843  -4.925  -9.895  0.00  0.00    -0.646 OA
ENDBRANCH  16  21
ENDBRANCH   2  16
TORSDOF 9
ENDMDL
MODEL 2
REMARK VINA RESULT:      -5.9     11.973     13.390
REMARK  9 active torsions:
REMARK  status: ('A' for Active; 'I' for Inactive)
REMARK    1  A    between atoms: C_1  and  C_16 
REMARK    2  A    between atoms: C_1  and  C_8 
REMARK    3  A    between atoms: C_4  and  C_8 
REMARK    4  A    between atoms: C_5  and  C_6 
REMARK    5  A    between atoms: C_5  and  C_14 
REMARK    6  A    between atoms: C_5  and  N_11 
REMARK       I    between atoms: C_6  and  N_7 
REMARK    7  A    between atoms: N_7  and  C_8 
REMARK       I    between atoms: N_9  and  C_13 
REMARK    8  A    between atoms: C_13  and  C_14 
REMARK    9  A    between atoms: S_15  and  C_16 
ROOT
HETATM    1  C           1     -33.930  -2.999 -11.673  0.00  0.00     0.249 C 
HETATM    2  N           1     -35.037  -2.448 -12.259  0.00  0.00    -0.345 N 
HETATM    3  O           1     -33.174  -2.304 -11.037  0.00  0.00    -0.271 OA
HETATM    4  H           1     -35.670  -3.029 -12.792  0.00  0.00     0.163 HD
ENDROOT
BRANCH   1   5
HETATM    5  C           1     -33.654  -4.475 -11.821  0.00  0.00     0.283 C 
BRANCH   5   6
HETATM    6  C           1     -33.935  -5.180 -10.500  0.00  0.00     0.145 C 
BRANCH   6   7
HETATM    7  C           1     -34.611  -6.502 -10.768  0.00  0.00     0.217 C 
HETATM    8  N           1     -35.003  -6.825 -12.039  0.00  0.00    -0.370 N 
HETATM    9  H           1     -35.456  -7.712 -12.219  0.00  0.00     0.159 HD
HETATM   10  H           1     -34.839  -6.178 -12.799  0.00  0.00     0.159 HD
HETATM   11  O           1     -34.805  -7.276  -9.861  0.00  0.00    -0.274 OA
ENDBRANCH   6   7
ENDBRANCH   5   6
BRANCH   5  12
HETATM   12  N           1     -32.217  -4.678 -12.200  0.00  0.00    -0.066 N 
HETATM   13  H           1     -32.148  -5.440 -12.911  0.00  0.00     0.275 HD
HETATM   14  H           1     -31.835  -3.792 -12.601  0.00  0.00     0.275 HD
HETATM   15  H           1     -31.667  -4.943 -11.352  0.00  0.00     0.275 HD
ENDBRANCH   5  12
ENDBRANCH   1   5
BRANCH   2  16
HETATM   16  C           1     -35.303  -1.029 -12.118  0.00  0.00     0.186 C 
BRANCH  16  17
HETATM   17  C           1     -35.941  -0.502 -13.396  0.00  0.00     0.046 C 
BRANCH  17  18
HETATM   18  C           1     -35.123   0.668 -13.927  0.00  0.00     0.076 C 
BRANCH  18  19
HETATM   19  S           1     -35.727   1.130 -15.575  0.00  0.00    -0.173 SA
HETATM   20  C           1     -35.985  -0.563 -16.175  0.00  0.00     0.089 C 
ENDBRANCH  18  19
ENDBRANCH  17  18
ENDBRANCH  16  17
BRANCH  16  21
HETATM   21  C           1     -36.242  -0.809 -10.957  0.00  0.00     0.196 C 
HETATM   22  O           1     -37.049  -1.705 -10.628  0.00  0.00    -0.646 OA
HETATM   23  O           1     -36.216   0.269 -10.326  0.00  0.00    -0.646 OA
ENDBRANCH  16  21
ENDBRANCH   2  16
TORSDOF 9
ENDMDL
MODEL 3
REMARK VINA RESULT:      -5.8      3.524      7.236
REMARK  9 active torsions:
REMARK  status: ('A' for Active; 'I' for Inactive)
REMARK    1  A    between atoms: C_1  and  C_16 
REMARK    2  A    between atoms: C_1  and  C_8 
REMARK    3  A    between atoms: C_4  and  C_8 
REMARK    4  A    between atoms: C_5  and  C_6 
REMARK    5  A    between atoms: C_5  and  C_14 
REMARK    6  A    between atoms: C_5  and  N_11 
REMARK       I    between atoms: C_6  and  N_7 
REMARK    7  A    between atoms: N_7  and  C_8 
REMARK       I    between atoms: N_9  and  C_13 
REMARK    8  A    between atoms: C_13  and  C_14 
REMARK    9  A    between atoms: S_15  and  C_16 
ROOT
HETATM    1  C           1     -22.436  -4.237  -7.987  0.00  0.00     0.249 C 
HETATM    2  N           1     -22.248  -5.378  -7.254  0.00  0.00    -0.345 N 
HETATM    3  O           1     -21.838  -3.228  -7.697  0.00  0.00    -0.271 OA
HETATM    4  H           1     -22.749  -6.223  -7.497  0.00  0.00     0.163 HD
ENDROOT
BRANCH   1   5
HETATM    5  C           1     -23.389  -4.240  -9.157  0.00  0.00     0.283 C 
BRANCH   5   6
HETATM    6  C           1     -22.688  -3.673 -10.385  0.00  0.00     0.145 C 
BRANCH   6   7
HETATM    7  C           1     -23.622  -3.729 -11.569  0.00  0.00     0.217 C 
HETATM    8  N           1     -23.495  -4.729 -12.494  0.00  0.00    -0.370 N 
HETATM    9  H           1     -24.121  -4.768 -13.288  0.00  0.00     0.159 HD
HETATM   10  H           1     -22.775  -5.432 -12.384  0.00  0.00     0.159 HD
HETATM   11  O           1     -24.482  -2.891 -11.699  0.00  0.00    -0.274 OA
ENDBRANCH   6   7
ENDBRANCH   5   6
BRANCH   5  12
HETATM   12  N           1     -24.583  -3.395  -8.829  0.00  0.00    -0.066 N 
HETATM   13  H           1     -24.608  -3.210  -7.800  0.00  0.00     0.275 HD
HETATM   14  H           1     -24.520  -2.488  -9.343  0.00  0.00     0.275 HD
HETATM   15  H           1     -25.454  -3.897  -9.113  0.00  0.00     0.275 HD
ENDBRANCH   5  12
ENDBRANCH   1   5
BRANCH   2  16
HETATM   16  C           1     -21.333  -5.376  -6.129  0.00  0.00     0.186 C 
BRANCH  16  17
HETATM   17  C           1     -21.808  -6.378  -5.086  0.00  0.00     0.046 C 
BRANCH  17  18
HETATM   18  C           1     -21.243  -6.000  -3.724  0.00  0.00     0.076 C 
BRANCH  18  19
HETATM   19  S           1     -21.279  -7.448  -2.630  0.00  0.00    -0.173 SA
HETATM   20  C           1     -22.283  -6.686  -1.324  0.00  0.00     0.089 C 
ENDBRANCH  18  19
ENDBRANCH  17  18
ENDBRANCH  16  17
BRANCH  16  21
HETATM   21  C           1     -19.953  -5.760  -6.606  0.00  0.00     0.196 C 
HETATM   22  O           1     -19.655  -6.965  -6.748  0.00  0.00    -0.646 OA
HETATM   23  O           1     -19.108  -4.874  -6.856  0.00  0.00    -0.646 OA
ENDBRANCH  16  21
ENDBRANCH   2  16
TORSDOF 9
ENDMDL
MODEL 4
REMARK VINA RESULT:      -5.5      3.815      7.484
REMARK  9 active torsions:
REMARK  status: ('A' for Active; 'I' for Inactive)
REMARK    1  A    between atoms: C_1  and  C_16 
REMARK    2  A    between atoms: C_1  and  C_8 
REMARK    3  A    between atoms: C_4  and  C_8 
REMARK    4  A    between atoms: C_5  and  C_6 
REMARK    5  A    between atoms: C_5  and  C_14 
REMARK    6  A    between atoms: C_5  and  N_11 
REMARK       I    between atoms: C_6  and  N_7 
REMARK    7  A    between atoms: N_7  and  C_8 
REMARK       I    between atoms: N_9  and  C_13 
REMARK    8  A    between atoms: C_13  and  C_14 
REMARK    9  A    between atoms: S_15  and  C_16 
ROOT
HETATM    1  C           1     -21.152  -5.135  -6.991  0.00  0.00     0.249 C 
HETATM    2  N           1     -21.416  -6.378  -6.483  0.00  0.00    -0.345 N 
HETATM    3  O           1     -20.480  -4.355  -6.358  0.00  0.00    -0.271 OA
HETATM    4  H           1     -21.980  -7.031  -7.012  0.00  0.00     0.163 HD
ENDROOT
BRANCH   1   5
HETATM    5  C           1     -21.699  -4.738  -8.340  0.00  0.00     0.283 C 
BRANCH   5   6
HETATM    6  C           1     -20.554  -4.304  -9.245  0.00  0.00     0.145 C 
BRANCH   6   7
HETATM    7  C           1     -21.061  -4.143 -10.657  0.00  0.00     0.217 C 
HETATM    8  N           1     -20.322  -3.448 -11.575  0.00  0.00    -0.370 N 
HETATM    9  H           1     -20.662  -3.340 -12.523  0.00  0.00     0.159 HD
HETATM   10  H           1     -19.435  -3.042 -11.308  0.00  0.00     0.159 HD
HETATM   11  O           1     -22.121  -4.629 -10.978  0.00  0.00    -0.274 OA
ENDBRANCH   6   7
ENDBRANCH   5   6
BRANCH   5  12
HETATM   12  N           1     -22.662  -3.601  -8.172  0.00  0.00    -0.066 N 
HETATM   13  H           1     -22.656  -3.283  -7.176  0.00  0.00     0.275 HD
HETATM   14  H           1     -22.377  -2.809  -8.791  0.00  0.00     0.275 HD
HETATM   15  H           1     -23.623  -3.917  -8.430  0.00  0.00     0.275 HD
ENDBRANCH   5  12
ENDBRANCH   1   5
BRANCH   2  16
HETATM   16  C           1     -20.891  -6.760  -5.187  0.00  0.00     0.186 C 
BRANCH  16  17
HETATM   17  C           1     -21.976  -6.596  -4.131  0.00  0.00     0.046 C 
BRANCH  17  18
HETATM   18  C           1     -21.360  -6.051  -2.850  0.00  0.00     0.076 C 
BRANCH  18  19
HETATM   19  S           1     -22.127  -6.858  -1.417  0.00  0.00    -0.173 SA
HETATM   20  C           1     -20.926  -8.213  -1.286  0.00  0.00     0.089 C 
ENDBRANCH  18  19
ENDBRANCH  17  18
ENDBRANCH  16  17
BRANCH  16  21
HETATM   21  C           1     -20.445  -8.201  -5.232  0.00  0.00     0.196 C 
HETATM   22  O           1     -19.308  -8.490  -5.663  0.00  0.00    -0.646 OA
HETATM   23  O           1     -21.213  -9.106  -4.841  0.00  0.00    -0.646 OA
ENDBRANCH  16  21
ENDBRANCH   2  16
TORSDOF 9
ENDMDL
MODEL 5
REMARK VINA RESULT:      -5.5     12.130     14.090
REMARK  9 active torsions:
REMARK  status: ('A' for Active; 'I' for Inactive)
REMARK    1  A    between atoms: C_1  and  C_16 
REMARK    2  A    between atoms: C_1  and  C_8 
REMARK    3  A    between atoms: C_4  and  C_8 
REMARK    4  A    between atoms: C_5  and  C_6 
REMARK    5  A    between atoms: C_5  and  C_14 
REMARK    6  A    between atoms: C_5  and  N_11 
REMARK       I    between atoms: C_6  and  N_7 
REMARK    7  A    between atoms: N_7  and  C_8 
REMARK       I    between atoms: N_9  and  C_13 
REMARK    8  A    between atoms: C_13  and  C_14 
REMARK    9  A    between atoms: S_15  and  C_16 
ROOT
HETATM    1  C           1     -33.944  -2.402 -11.631  0.00  0.00     0.249 C 
HETATM    2  N           1     -35.096  -1.863 -12.138  0.00  0.00    -0.345 N 
HETATM    3  O           1     -33.326  -1.811 -10.778  0.00  0.00    -0.271 OA
HETATM    4  H           1     -35.614  -2.358 -12.853  0.00  0.00     0.163 HD
ENDROOT
BRANCH   1   5
HETATM    5  C           1     -33.447  -3.734 -12.136  0.00  0.00     0.283 C 
BRANCH   5   6
HETATM    6  C           1     -34.441  -4.299 -13.144  0.00  0.00     0.145 C 
BRANCH   6   7
HETATM    7  C           1     -34.121  -3.766 -14.519  0.00  0.00     0.217 C 
HETATM    8  N           1     -33.131  -4.346 -15.265  0.00  0.00    -0.370 N 
HETATM    9  H           1     -32.916  -3.990 -16.188  0.00  0.00     0.159 HD
HETATM   10  H           1     -32.612  -5.132 -14.894  0.00  0.00     0.159 HD
HETATM   11  O           1     -34.741  -2.828 -14.963  0.00  0.00    -0.274 OA
ENDBRANCH   6   7
ENDBRANCH   5   6
BRANCH   5  12
HETATM   12  N           1     -33.310  -4.685 -10.985  0.00  0.00    -0.066 N 
HETATM   13  H           1     -32.882  -5.578 -11.319  0.00  0.00     0.275 HD
HETATM   14  H           1     -32.697  -4.259 -10.253  0.00  0.00     0.275 HD
HETATM   15  H           1     -34.252  -4.881 -10.580  0.00  0.00     0.275 HD
ENDBRANCH   5  12
ENDBRANCH   1   5
BRANCH   2  16
HETATM   16  C           1     -35.574  -0.583 -11.653  0.00  0.00     0.186 C 
BRANCH  16  17
HETATM   17  C           1     -36.227   0.181 -12.797  0.00  0.00     0.046 C 
BRANCH  17  18
HETATM   18  C           1     -35.164   0.587 -13.809  0.00  0.00     0.076 C 
BRANCH  18  19
HETATM   19  S           1     -35.901   0.661 -15.465  0.00  0.00    -0.173 SA
HETATM   20  C           1     -37.516  -0.019 -14.995  0.00  0.00     0.089 C 
ENDBRANCH  18  19
ENDBRANCH  17  18
ENDBRANCH  16  17
BRANCH  16  21
HETATM   21  C           1     -36.584  -0.809 -10.555  0.00  0.00     0.196 C 
HETATM   22  O           1     -36.292  -0.534  -9.372  0.00  0.00    -0.646 OA
HETATM   23  O           1     -37.712  -1.273 -10.829  0.00  0.00    -0.646 OA
ENDBRANCH  16  21
ENDBRANCH   2  16
TORSDOF 9
ENDMDL
MODEL 6
REMARK VINA RESULT:      -5.2      4.011      7.463
REMARK  9 active torsions:
REMARK  status: ('A' for Active; 'I' for Inactive)
REMARK    1  A    between atoms: C_1  and  C_16 
REMARK    2  A    between atoms: C_1  and  C_8 
REMARK    3  A    between atoms: C_4  and  C_8 
REMARK    4  A    between atoms: C_5  and  C_6 
REMARK    5  A    between atoms: C_5  and  C_14 
REMARK    6  A    between atoms: C_5  and  N_11 
REMARK       I    between atoms: C_6  and  N_7 
REMARK    7  A    between atoms: N_7  and  C_8 
REMARK       I    between atoms: N_9  and  C_13 
REMARK    8  A    between atoms: C_13  and  C_14 
REMARK    9  A    between atoms: S_15  and  C_16 
ROOT
HETATM    1  C           1     -21.545  -5.765  -5.713  0.00  0.00     0.249 C 
HETATM    2  N           1     -20.964  -6.690  -4.888  0.00  0.00    -0.345 N 
HETATM    3  O           1     -22.736  -5.571  -5.659  0.00  0.00    -0.271 OA
HETATM    4  H           1     -19.967  -6.853  -4.933  0.00  0.00     0.163 HD
ENDROOT
BRANCH   1   5
HETATM    5  C           1     -20.697  -4.987  -6.690  0.00  0.00     0.283 C 
BRANCH   5   6
HETATM    6  C           1     -21.384  -3.668  -7.020  0.00  0.00     0.145 C 
BRANCH   6   7
HETATM    7  C           1     -22.276  -3.852  -8.223  0.00  0.00     0.217 C 
HETATM    8  N           1     -23.605  -4.130  -8.054  0.00  0.00    -0.370 N 
HETATM    9  H           1     -24.204  -4.253  -8.860  0.00  0.00     0.159 HD
HETATM   10  H           1     -23.990  -4.213  -7.122  0.00  0.00     0.159 HD
HETATM   11  O           1     -21.817  -3.751  -9.337  0.00  0.00    -0.274 OA
ENDBRANCH   6   7
ENDBRANCH   5   6
BRANCH   5  12
HETATM   12  N           1     -20.523  -5.787  -7.946  0.00  0.00    -0.066 N 
HETATM   13  H           1     -21.461  -6.034  -8.336  0.00  0.00     0.275 HD
HETATM   14  H           1     -19.993  -5.223  -8.648  0.00  0.00     0.275 HD
HETATM   15  H           1     -19.995  -6.663  -7.731  0.00  0.00     0.275 HD
ENDBRANCH   5  12
ENDBRANCH   1   5
BRANCH   2  16
HETATM   16  C           1     -21.778  -7.438  -3.949  0.00  0.00     0.186 C 
BRANCH  16  17
HETATM   17  C           1     -21.348  -8.899  -3.957  0.00  0.00     0.046 C 
BRANCH  17  18
HETATM   18  C           1     -20.051  -9.042  -4.742  0.00  0.00     0.076 C 
BRANCH  18  19
HETATM   19  S           1     -19.083 -10.421  -4.065  0.00  0.00    -0.173 SA
HETATM   20  C           1     -17.983  -9.407  -3.037  0.00  0.00     0.089 C 
ENDBRANCH  18  19
ENDBRANCH  17  18
ENDBRANCH  16  17
BRANCH  16  21
HETATM   21  C           1     -21.598  -6.866  -2.565  0.00  0.00     0.196 C 
HETATM   22  O           1     -20.781  -7.387  -1.776  0.00  0.00    -0.646 OA
HETATM   23  O           1     -22.268  -5.874  -2.205  0.00  0.00    -0.646 OA
ENDBRANCH  16  21
ENDBRANCH   2  16
TORSDOF 9
ENDMDL
MODEL 7
REMARK VINA RESULT:      -5.2      5.284      8.531
REMARK  9 active torsions:
REMARK  status: ('A' for Active; 'I' for Inactive)
REMARK    1  A    between atoms: C_1  and  C_16 
REMARK    2  A    between atoms: C_1  and  C_8 
REMARK    3  A    between atoms: C_4  and  C_8 
REMARK    4  A    between atoms: C_5  and  C_6 
REMARK    5  A    between atoms: C_5  and  C_14 
REMARK    6  A    between atoms: C_5  and  N_11 
REMARK       I    between atoms: C_6  and  N_7 
REMARK    7  A    between atoms: N_7  and  C_8 
REMARK       I    between atoms: N_9  and  C_13 
REMARK    8  A    between atoms: C_13  and  C_14 
REMARK    9  A    between atoms: S_15  and  C_16 
ROOT
HETATM    1  C           1     -21.188  -6.947  -4.709  0.00  0.00     0.249 C 
HETATM    2  N           1     -20.722  -7.132  -3.435  0.00  0.00    -0.345 N 
HETATM    3  O           1     -22.300  -7.316  -5.003  0.00  0.00    -0.271 OA
HETATM    4  H           1     -19.790  -6.824  -3.188  0.00  0.00     0.163 HD
ENDROOT
BRANCH   1   5
HETATM    5  C           1     -20.314  -6.283  -5.744  0.00  0.00     0.283 C 
BRANCH   5   6
HETATM    6  C           1     -20.381  -4.771  -5.573  0.00  0.00     0.145 C 
BRANCH   6   7
HETATM    7  C           1     -20.564  -4.119  -6.921  0.00  0.00     0.217 C 
HETATM    8  N           1     -21.737  -3.479  -7.218  0.00  0.00    -0.370 N 
HETATM    9  H           1     -21.860  -3.041  -8.122  0.00  0.00     0.159 HD
HETATM   10  H           1     -22.482  -3.444  -6.534  0.00  0.00     0.159 HD
HETATM   11  O           1     -19.674  -4.160  -7.738  0.00  0.00    -0.274 OA
ENDBRANCH   6   7
ENDBRANCH   5   6
BRANCH   5  12
HETATM   12  N           1     -20.797  -6.653  -7.115  0.00  0.00    -0.066 N 
HETATM   13  H           1     -21.509  -5.956  -7.433  0.00  0.00     0.275 HD
HETATM   14  H           1     -19.991  -6.653  -7.780  0.00  0.00     0.275 HD
HETATM   15  H           1     -21.229  -7.603  -7.088  0.00  0.00     0.275 HD
ENDBRANCH   5  12
ENDBRANCH   1   5
BRANCH   2  16
HETATM   16  C           1     -21.561  -7.770  -2.440  0.00  0.00     0.186 C 
BRANCH  16  17
HETATM   17  C           1     -20.710  -8.685  -1.570  0.00  0.00     0.046 C 
BRANCH  17  18
HETATM   18  C           1     -21.270 -10.100  -1.621  0.00  0.00     0.076 C 
BRANCH  18  19
HETATM   19  S           1     -21.819 -10.596   0.036  0.00  0.00    -0.173 SA
HETATM   20  C           1     -23.599 -10.496  -0.306  0.00  0.00     0.089 C 
ENDBRANCH  18  19
ENDBRANCH  17  18
ENDBRANCH  16  17
BRANCH  16  21
HETATM   21  C           1     -22.208  -6.713  -1.579  0.00  0.00     0.196 C 
HETATM   22  O           1     -22.124  -5.509  -1.900  0.00  0.00    -0.646 OA
HETATM   23  O           1     -22.826  -7.042  -0.543  0.00  0.00    -0.646 OA
ENDBRANCH  16  21
ENDBRANCH   2  16
TORSDOF 9
ENDMDL
MODEL 8
REMARK VINA RESULT:      -5.2      3.022      4.342
REMARK  9 active torsions:
REMARK  status: ('A' for Active; 'I' for Inactive)
REMARK    1  A    between atoms: C_1  and  C_16 
REMARK    2  A    between atoms: C_1  and  C_8 
REMARK    3  A    between atoms: C_4  and  C_8 
REMARK    4  A    between atoms: C_5  and  C_6 
REMARK    5  A    between atoms: C_5  and  C_14 
REMARK    6  A    between atoms: C_5  and  N_11 
REMARK       I    between atoms: C_6  and  N_7 
REMARK    7  A    between atoms: N_7  and  C_8 
REMARK       I    between atoms: N_9  and  C_13 
REMARK    8  A    between atoms: C_13  and  C_14 
REMARK    9  A    between atoms: S_15  and  C_16 
ROOT
HETATM    1  C           1     -21.358  -7.546  -5.251  0.00  0.00     0.249 C 
HETATM    2  N           1     -21.753  -6.261  -5.503  0.00  0.00    -0.345 N 
HETATM    3  O           1     -20.650  -8.126  -6.041  0.00  0.00    -0.271 OA
HETATM    4  H           1     -22.346  -5.775  -4.842  0.00  0.00     0.163 HD
ENDROOT
BRANCH   1   5
HETATM    5  C           1     -21.804  -8.240  -3.987  0.00  0.00     0.283 C 
BRANCH   5   6
HETATM    6  C           1     -21.037  -7.674  -2.799  0.00  0.00     0.145 C 
BRANCH   6   7
HETATM    7  C           1     -21.963  -6.832  -1.956  0.00  0.00     0.217 C 
HETATM    8  N           1     -22.245  -7.203  -0.670  0.00  0.00    -0.370 N 
HETATM    9  H           1     -22.865  -6.638  -0.104  0.00  0.00     0.159 HD
HETATM   10  H           1     -21.833  -8.043  -0.283  0.00  0.00     0.159 HD
HETATM   11  O           1     -22.454  -5.829  -2.417  0.00  0.00    -0.274 OA
ENDBRANCH   6   7
ENDBRANCH   5   6
BRANCH   5  12
HETATM   12  N           1     -21.532  -9.710  -4.103  0.00  0.00    -0.066 N 
HETATM   13  H           1     -22.431 -10.219  -4.262  0.00  0.00     0.275 HD
HETATM   14  H           1     -20.889  -9.883  -4.908  0.00  0.00     0.275 HD
HETATM   15  H           1     -21.089 -10.054  -3.222  0.00  0.00     0.275 HD
ENDBRANCH   5  12
ENDBRANCH   1   5
BRANCH   2  16
HETATM   16  C           1     -21.325  -5.594  -6.718  0.00  0.00     0.186 C 
BRANCH  16  17
HETATM   17  C           1     -22.390  -4.595  -7.150  0.00  0.00     0.046 C 
BRANCH  17  18
HETATM   18  C           1     -22.295  -4.371  -8.654  0.00  0.00     0.076 C 
BRANCH  18  19
HETATM   19  S           1     -23.916  -3.863  -9.294  0.00  0.00    -0.173 SA
HETATM   20  C           1     -23.439  -3.838 -11.045  0.00  0.00     0.089 C 
ENDBRANCH  18  19
ENDBRANCH  17  18
ENDBRANCH  16  17
BRANCH  16  21
HETATM   21  C           1     -20.028  -4.868  -6.460  0.00  0.00     0.196 C 
HETATM   22  O           1     -19.175  -4.771  -7.368  0.00  0.00    -0.646 OA
HETATM   23  O           1     -19.804  -4.366  -5.337  0.00  0.00    -0.646 OA
ENDBRANCH  16  21
ENDBRANCH   2  16
TORSDOF 9
ENDMDL
MODEL 9
REMARK VINA RESULT:      -5.1      4.577      7.904
REMARK  9 active torsions:
REMARK  status: ('A' for Active; 'I' for Inactive)
REMARK    1  A    between atoms: C_1  and  C_16 
REMARK    2  A    between atoms: C_1  and  C_8 
REMARK    3  A    between atoms: C_4  and  C_8 
REMARK    4  A    between atoms: C_5  and  C_6 
REMARK    5  A    between atoms: C_5  and  C_14 
REMARK    6  A    between atoms: C_5  and  N_11 
REMARK       I    between atoms: C_6  and  N_7 
REMARK    7  A    between atoms: N_7  and  C_8 
REMARK       I    between atoms: N_9  and  C_13 
REMARK    8  A    between atoms: C_13  and  C_14 
REMARK    9  A    between atoms: S_15  and  C_16 
ROOT
HETATM    1  C           1     -21.238  -6.859  -4.819  0.00  0.00     0.249 C 
HETATM    2  N           1     -20.901  -6.659  -3.508  0.00  0.00    -0.345 N 
HETATM    3  O           1     -21.900  -7.821  -5.132  0.00  0.00    -0.271 OA
HETATM    4  H           1     -20.346  -5.854  -3.246  0.00  0.00     0.163 HD
ENDROOT
BRANCH   1   5
HETATM    5  C           1     -20.784  -5.881  -5.874  0.00  0.00     0.283 C 
BRANCH   5   6
HETATM    6  C           1     -21.999  -5.294  -6.579  0.00  0.00     0.145 C 
BRANCH   6   7
HETATM    7  C           1     -21.583  -4.080  -7.374  0.00  0.00     0.217 C 
HETATM    8  N           1     -22.515  -3.378  -8.089  0.00  0.00    -0.370 N 
HETATM    9  H           1     -22.236  -2.563  -8.622  0.00  0.00     0.159 HD
HETATM   10  H           1     -23.483  -3.672  -8.086  0.00  0.00     0.159 HD
HETATM   11  O           1     -20.427  -3.728  -7.378  0.00  0.00    -0.274 OA
ENDBRANCH   6   7
ENDBRANCH   5   6
BRANCH   5  12
HETATM   12  N           1     -19.920  -6.590  -6.874  0.00  0.00    -0.066 N 
HETATM   13  H           1     -20.419  -7.439  -7.225  0.00  0.00     0.275 HD
HETATM   14  H           1     -19.717  -5.951  -7.674  0.00  0.00     0.275 HD
HETATM   15  H           1     -19.024  -6.877  -6.420  0.00  0.00     0.275 HD
ENDBRANCH   5  12
ENDBRANCH   1   5
BRANCH   2  16
HETATM   16  C           1     -21.336  -7.599  -2.494  0.00  0.00     0.186 C 
BRANCH  16  17
HETATM   17  C           1     -20.119  -8.228  -1.828  0.00  0.00     0.046 C 
BRANCH  17  18
HETATM   18  C           1     -19.804  -9.558  -2.499  0.00  0.00     0.076 C 
BRANCH  18  19
HETATM   19  S           1     -18.121  -9.511  -3.177  0.00  0.00    -0.173 SA
HETATM   20  C           1     -18.611  -9.457  -4.924  0.00  0.00     0.089 C 
ENDBRANCH  18  19
ENDBRANCH  17  18
ENDBRANCH  16  17
BRANCH  16  21
HETATM   21  C           1     -22.159  -6.873  -1.458  0.00  0.00     0.196 C 
HETATM   22  O           1     -22.547  -7.476  -0.434  0.00  0.00    -0.646 OA
HETATM   23  O           1     -22.454  -5.670  -1.624  0.00  0.00    -0.646 OA
ENDBRANCH  16  21
ENDBRANCH   2  16
TORSDOF 9
ENDMDL
