MODEL 1
REMARK VINA RESULT:      -5.4      0.000      0.000
REMARK  7 active torsions:
REMARK  status: ('A' for Active; 'I' for Inactive)
REMARK    1  A    between atoms: N_1  and  C_8 
REMARK    2  A    between atoms: C_3  and  C_4 
REMARK    3  A    between atoms: C_4  and  C_5 
REMARK    4  A    between atoms: C_4  and  N_9 
REMARK    5  A    between atoms: C_5  and  Se_6 
REMARK       I    between atoms: C_7  and  N_9 
REMARK    6  A    between atoms: C_7  and  C_8 
REMARK    7  A    between atoms: C_8  and  C_15 
ROOT
HETATM    1  C           1     -21.848  -4.658  -8.018  0.00  0.00     0.249 C 
HETATM    2  N           1     -22.288  -4.926  -9.286  0.00  0.00    -0.345 N 
HETATM    3  H           1     -22.217  -5.864  -9.660  0.00  0.00     0.163 HD
HETATM    4  O           1     -21.934  -3.539  -7.573  0.00  0.00    -0.271 OA
ENDROOT
BRANCH   1   5
HETATM    5  C           1     -21.252  -5.761  -7.178  0.00  0.00     0.278 C 
BRANCH   5   6
HETATM    6  N           1     -19.813  -5.954  -7.553  0.00  0.00    -0.066 N 
HETATM    7  H           1     -19.737  -6.720  -8.260  0.00  0.00     0.275 HD
HETATM    8  H           1     -19.438  -5.068  -7.960  0.00  0.00     0.275 HD
HETATM    9  H           1     -19.262  -6.208  -6.703  0.00  0.00     0.275 HD
ENDBRANCH   5   6
BRANCH   5  10
HETATM   10  C           1     -21.346  -5.384  -5.706  0.00  0.00     0.017 C 
HETATM   11  C           1     -21.651  -6.626  -4.880  0.00  0.00     0.012 C 
HETATM   12  C           1     -20.022  -4.785  -5.250  0.00  0.00     0.012 C 
ENDBRANCH   5  10
ENDBRANCH   1   5
BRANCH   2  13
HETATM   13  C           1     -22.861  -3.867 -10.095  0.00  0.00     0.185 C 
BRANCH  13  14
HETATM   14  C           1     -24.353  -3.825  -9.884  0.00  0.00     0.196 C 
HETATM   15  O           1     -25.030  -4.871  -9.988  0.00  0.00    -0.646 OA
HETATM   16  O           1     -24.916  -2.743  -9.606  0.00  0.00    -0.646 OA
ENDBRANCH  13  14
BRANCH  13  17
HETATM   17  C           1     -22.562  -4.132 -11.564  0.00  0.00     0.039 C 
BRANCH  17  18
HETATM   18 Se           1     -23.378  -2.739 -12.655  0.00  0.00     0.000 Se
HETATM   19  H           1     -23.818  -3.664 -13.713  0.00  0.00     0.000 HD
ENDBRANCH  17  18
ENDBRANCH  13  17
ENDBRANCH   2  13
TORSDOF 7
ENDMDL
MODEL 2
REMARK VINA RESULT:      -5.1      3.312      5.789
REMARK  7 active torsions:
REMARK  status: ('A' for Active; 'I' for Inactive)
REMARK    1  A    between atoms: N_1  and  C_8 
REMARK    2  A    between atoms: C_3  and  C_4 
REMARK    3  A    between atoms: C_4  and  C_5 
REMARK    4  A    between atoms: C_4  and  N_9 
REMARK    5  A    between atoms: C_5  and  Se_6 
REMARK       I    between atoms: C_7  and  N_9 
REMARK    6  A    between atoms: C_7  and  C_8 
REMARK    7  A    between atoms: C_8  and  C_15 
ROOT
HETATM    1  C           1     -22.369  -4.195  -7.991  0.00  0.00     0.249 C 
HETATM    2  N           1     -22.214  -5.393  -7.346  0.00  0.00    -0.345 N 
HETATM    3  H           1     -22.635  -6.231  -7.726  0.00  0.00     0.163 HD
HETATM    4  O           1     -21.867  -3.196  -7.536  0.00  0.00    -0.271 OA
ENDROOT
BRANCH   1   5
HETATM    5  C           1     -23.170  -4.124  -9.268  0.00  0.00     0.278 C 
BRANCH   5   6
HETATM    6  N           1     -24.433  -3.353  -9.023  0.00  0.00    -0.066 N 
HETATM    7  H           1     -24.243  -2.331  -9.124  0.00  0.00     0.275 HD
HETATM    8  H           1     -25.157  -3.642  -9.720  0.00  0.00     0.275 HD
HETATM    9  H           1     -24.780  -3.550  -8.057  0.00  0.00     0.275 HD
ENDBRANCH   5   6
BRANCH   5  10
HETATM   10  C           1     -22.350  -3.425 -10.343  0.00  0.00     0.017 C 
HETATM   11  C           1     -21.243  -4.354 -10.822  0.00  0.00     0.012 C 
HETATM   12  C           1     -23.252  -3.064 -11.516  0.00  0.00     0.012 C 
ENDBRANCH   5  10
ENDBRANCH   1   5
BRANCH   2  13
HETATM   13  C           1     -21.445  -5.462  -6.119  0.00  0.00     0.185 C 
BRANCH  13  14
HETATM   14  C           1     -20.004  -5.766  -6.446  0.00  0.00     0.196 C 
HETATM   15  O           1     -19.170  -4.838  -6.523  0.00  0.00    -0.646 OA
HETATM   16  O           1     -19.642  -6.947  -6.640  0.00  0.00    -0.646 OA
ENDBRANCH  13  14
BRANCH  13  17
HETATM   17  C           1     -22.007  -6.562  -5.229  0.00  0.00     0.039 C 
BRANCH  17  18
HETATM   18 Se           1     -21.422  -6.275  -3.392  0.00  0.00     0.000 Se
HETATM   19  H           1     -22.470  -5.286  -3.089  0.00  0.00     0.000 HD
ENDBRANCH  17  18
ENDBRANCH  13  17
ENDBRANCH   2  13
TORSDOF 7
ENDMDL
MODEL 3
REMARK VINA RESULT:      -5.1     10.621     12.125
REMARK  7 active torsions:
REMARK  status: ('A' for Active; 'I' for Inactive)
REMARK    1  A    between atoms: N_1  and  C_8 
REMARK    2  A    between atoms: C_3  and  C_4 
REMARK    3  A    between atoms: C_4  and  C_5 
REMARK    4  A    between atoms: C_4  and  N_9 
REMARK    5  A    between atoms: C_5  and  Se_6 
REMARK       I    between atoms: C_7  and  N_9 
REMARK    6  A    between atoms: C_7  and  C_8 
REMARK    7  A    between atoms: C_8  and  C_15 
ROOT
HETATM    1  C           1     -28.374  -6.365 -18.582  0.00  0.00     0.249 C 
HETATM    2  N           1     -27.482  -7.234 -19.151  0.00  0.00    -0.345 N 
HETATM    3  H           1     -27.317  -8.139 -18.729  0.00  0.00     0.163 HD
HETATM    4  O           1     -28.570  -5.286 -19.087  0.00  0.00    -0.271 OA
ENDROOT
BRANCH   1   5
HETATM    5  C           1     -29.109  -6.755 -17.324  0.00  0.00     0.278 C 
BRANCH   5   6
HETATM    6  N           1     -29.221  -8.249 -17.253  0.00  0.00    -0.066 N 
HETATM    7  H           1     -29.804  -8.593 -18.050  0.00  0.00     0.275 HD
HETATM    8  H           1     -28.268  -8.672 -17.312  0.00  0.00     0.275 HD
HETATM    9  H           1     -29.670  -8.522 -16.350  0.00  0.00     0.275 HD
ENDBRANCH   5   6
BRANCH   5  10
HETATM   10  C           1     -28.343  -6.246 -16.110  0.00  0.00     0.017 C 
HETATM   11  C           1     -29.326  -5.795 -15.040  0.00  0.00     0.012 C 
HETATM   12  C           1     -27.468  -7.364 -15.557  0.00  0.00     0.012 C 
ENDBRANCH   5  10
ENDBRANCH   1   5
BRANCH   2  13
HETATM   13  C           1     -26.775  -6.860 -20.361  0.00  0.00     0.185 C 
BRANCH  13  14
HETATM   14  C           1     -26.557  -8.084 -21.215  0.00  0.00     0.196 C 
HETATM   15  O           1     -27.511  -8.855 -21.458  0.00  0.00    -0.646 OA
HETATM   16  O           1     -25.422  -8.329 -21.679  0.00  0.00    -0.646 OA
ENDBRANCH  13  14
BRANCH  13  17
HETATM   17  C           1     -25.429  -6.250 -19.993  0.00  0.00     0.039 C 
BRANCH  17  18
HETATM   18 Se           1     -24.757  -7.090 -18.368  0.00  0.00     0.000 Se
HETATM   19  H           1     -23.398  -7.297 -18.898  0.00  0.00     0.000 HD
ENDBRANCH  17  18
ENDBRANCH  13  17
ENDBRANCH   2  13
TORSDOF 7
ENDMDL
MODEL 4
REMARK VINA RESULT:      -5.0     10.750     12.096
REMARK  7 active torsions:
REMARK  status: ('A' for Active; 'I' for Inactive)
REMARK    1  A    between atoms: N_1  and  C_8 
REMARK    2  A    between atoms: C_3  and  C_4 
REMARK    3  A    between atoms: C_4  and  C_5 
REMARK    4  A    between atoms: C_4  and  N_9 
REMARK    5  A    between atoms: C_5  and  Se_6 
REMARK       I    between atoms: C_7  and  N_9 
REMARK    6  A    between atoms: C_7  and  C_8 
REMARK    7  A    between atoms: C_8  and  C_15 
ROOT
HETATM    1  C           1     -26.424  -6.337 -18.069  0.00  0.00     0.249 C 
HETATM    2  N           1     -27.628  -6.747 -18.575  0.00  0.00    -0.345 N 
HETATM    3  H           1     -27.675  -7.159 -19.498  0.00  0.00     0.163 HD
HETATM    4  O           1     -26.369  -5.845 -16.967  0.00  0.00    -0.271 OA
ENDROOT
BRANCH   1   5
HETATM    5  C           1     -25.167  -6.497 -18.888  0.00  0.00     0.278 C 
BRANCH   5   6
HETATM    6  N           1     -24.236  -7.446 -18.194  0.00  0.00    -0.066 N 
HETATM    7  H           1     -23.299  -7.416 -18.657  0.00  0.00     0.275 HD
HETATM    8  H           1     -24.137  -7.165 -17.193  0.00  0.00     0.275 HD
HETATM    9  H           1     -24.621  -8.415 -18.249  0.00  0.00     0.275 HD
ENDBRANCH   5   6
BRANCH   5  10
HETATM   10  C           1     -25.524  -7.049 -20.261  0.00  0.00     0.017 C 
HETATM   11  C           1     -25.549  -5.914 -21.276  0.00  0.00     0.012 C 
HETATM   12  C           1     -24.483  -8.080 -20.680  0.00  0.00     0.012 C 
ENDBRANCH   5  10
ENDBRANCH   1   5
BRANCH   2  13
HETATM   13  C           1     -28.836  -6.594 -17.789  0.00  0.00     0.185 C 
BRANCH  13  14
HETATM   14  C           1     -29.606  -7.891 -17.792  0.00  0.00     0.196 C 
HETATM   15  O           1     -30.285  -8.213 -18.791  0.00  0.00    -0.646 OA
HETATM   16  O           1     -29.567  -8.644 -16.795  0.00  0.00    -0.646 OA
ENDBRANCH  13  14
BRANCH  13  17
HETATM   17  C           1     -29.696  -5.491 -18.390  0.00  0.00     0.039 C 
BRANCH  17  18
HETATM   18 Se           1     -31.150  -5.058 -17.166  0.00  0.00     0.000 Se
HETATM   19  H           1     -32.199  -5.638 -18.021  0.00  0.00     0.000 HD
ENDBRANCH  17  18
ENDBRANCH  13  17
ENDBRANCH   2  13
TORSDOF 7
ENDMDL
MODEL 5
REMARK VINA RESULT:      -5.0      9.011     11.907
REMARK  7 active torsions:
REMARK  status: ('A' for Active; 'I' for Inactive)
REMARK    1  A    between atoms: N_1  and  C_8 
REMARK    2  A    between atoms: C_3  and  C_4 
REMARK    3  A    between atoms: C_4  and  C_5 
REMARK    4  A    between atoms: C_4  and  N_9 
REMARK    5  A    between atoms: C_5  and  Se_6 
REMARK       I    between atoms: C_7  and  N_9 
REMARK    6  A    between atoms: C_7  and  C_8 
REMARK    7  A    between atoms: C_8  and  C_15 
ROOT
HETATM    1  C           1     -27.110  -6.104 -19.057  0.00  0.00     0.249 C 
HETATM    2  N           1     -26.365  -6.593 -18.018  0.00  0.00    -0.345 N 
HETATM    3  H           1     -25.562  -7.181 -18.204  0.00  0.00     0.163 HD
HETATM    4  O           1     -28.067  -5.402 -18.835  0.00  0.00    -0.271 OA
ENDROOT
BRANCH   1   5
HETATM    5  C           1     -26.737  -6.445 -20.479  0.00  0.00     0.278 C 
BRANCH   5   6
HETATM    6  N           1     -25.565  -5.610 -20.902  0.00  0.00    -0.066 N 
HETATM    7  H           1     -25.463  -4.797 -20.253  0.00  0.00     0.275 HD
HETATM    8  H           1     -24.696  -6.190 -20.871  0.00  0.00     0.275 HD
HETATM    9  H           1     -25.718  -5.262 -21.875  0.00  0.00     0.275 HD
ENDBRANCH   5   6
BRANCH   5  10
HETATM   10  C           1     -26.368  -7.919 -20.567  0.00  0.00     0.017 C 
HETATM   11  C           1     -27.500  -8.689 -21.232  0.00  0.00     0.012 C 
HETATM   12  C           1     -25.096  -8.076 -21.391  0.00  0.00     0.012 C 
ENDBRANCH   5  10
ENDBRANCH   1   5
BRANCH   2  13
HETATM   13  C           1     -26.723  -6.266 -16.652  0.00  0.00     0.185 C 
BRANCH  13  14
HETATM   14  C           1     -25.521  -6.450 -15.759  0.00  0.00     0.196 C 
HETATM   15  O           1     -25.093  -7.600 -15.516  0.00  0.00    -0.646 OA
HETATM   16  O           1     -24.952  -5.454 -15.262  0.00  0.00    -0.646 OA
ENDBRANCH  13  14
BRANCH  13  17
HETATM   17  C           1     -27.845  -7.183 -16.188  0.00  0.00     0.039 C 
BRANCH  17  18
HETATM   18 Se           1     -29.230  -6.126 -15.314  0.00  0.00     0.000 Se
HETATM   19  H           1     -28.298  -5.099 -14.820  0.00  0.00     0.000 HD
ENDBRANCH  17  18
ENDBRANCH  13  17
ENDBRANCH   2  13
TORSDOF 7
ENDMDL
MODEL 6
REMARK VINA RESULT:      -4.9     18.242     19.835
REMARK  7 active torsions:
REMARK  status: ('A' for Active; 'I' for Inactive)
REMARK    1  A    between atoms: N_1  and  C_8 
REMARK    2  A    between atoms: C_3  and  C_4 
REMARK    3  A    between atoms: C_4  and  C_5 
REMARK    4  A    between atoms: C_4  and  N_9 
REMARK    5  A    between atoms: C_5  and  Se_6 
REMARK       I    between atoms: C_7  and  N_9 
REMARK    6  A    between atoms: C_7  and  C_8 
REMARK    7  A    between atoms: C_8  and  C_15 
ROOT
HETATM    1  C           1     -12.412   6.056 -20.396  0.00  0.00     0.249 C 
HETATM    2  N           1     -11.233   6.561 -19.916  0.00  0.00    -0.345 N 
HETATM    3  H           1     -10.657   6.002 -19.300  0.00  0.00     0.163 HD
HETATM    4  O           1     -13.099   6.724 -21.131  0.00  0.00    -0.271 OA
ENDROOT
BRANCH   1   5
HETATM    5  C           1     -12.854   4.668 -20.004  0.00  0.00     0.278 C 
BRANCH   5   6
HETATM    6  N           1     -14.351   4.591 -20.039  0.00  0.00    -0.066 N 
HETATM    7  H           1     -14.645   3.615 -20.271  0.00  0.00     0.275 HD
HETATM    8  H           1     -14.735   4.855 -19.103  0.00  0.00     0.275 HD
HETATM    9  H           1     -14.717   5.247 -20.765  0.00  0.00     0.275 HD
ENDBRANCH   5   6
BRANCH   5  10
HETATM   10  C           1     -12.271   3.655 -20.980  0.00  0.00     0.017 C 
HETATM   11  C           1     -11.102   2.932 -20.326  0.00  0.00     0.012 C 
HETATM   12  C           1     -13.343   2.643 -21.363  0.00  0.00     0.012 C 
ENDBRANCH   5  10
ENDBRANCH   1   5
BRANCH   2  13
HETATM   13  C           1     -10.808   7.895 -20.293  0.00  0.00     0.185 C 
BRANCH  13  14
HETATM   14  C           1      -9.378   7.851 -20.768  0.00  0.00     0.196 C 
HETATM   15  O           1      -8.720   6.791 -20.677  0.00  0.00    -0.646 OA
HETATM   16  O           1      -8.848   8.874 -21.254  0.00  0.00    -0.646 OA
ENDBRANCH  13  14
BRANCH  13  17
HETATM   17  C           1     -10.916   8.820 -19.089  0.00  0.00     0.039 C 
BRANCH  17  18
HETATM   18 Se           1     -12.708   9.581 -19.011  0.00  0.00     0.000 Se
HETATM   19  H           1     -12.292  10.909 -19.491  0.00  0.00     0.000 HD
ENDBRANCH  17  18
ENDBRANCH  13  17
ENDBRANCH   2  13
TORSDOF 7
ENDMDL
MODEL 7
REMARK VINA RESULT:      -4.8     10.131     12.009
REMARK  7 active torsions:
REMARK  status: ('A' for Active; 'I' for Inactive)
REMARK    1  A    between atoms: N_1  and  C_8 
REMARK    2  A    between atoms: C_3  and  C_4 
REMARK    3  A    between atoms: C_4  and  C_5 
REMARK    4  A    between atoms: C_4  and  N_9 
REMARK    5  A    between atoms: C_5  and  Se_6 
REMARK       I    between atoms: C_7  and  N_9 
REMARK    6  A    between atoms: C_7  and  C_8 
REMARK    7  A    between atoms: C_8  and  C_15 
ROOT
HETATM    1  C           1     -26.746  -6.317 -19.031  0.00  0.00     0.249 C 
HETATM    2  N           1     -27.033  -6.706 -17.750  0.00  0.00    -0.345 N 
HETATM    3  H           1     -26.328  -7.168 -17.191  0.00  0.00     0.163 HD
HETATM    4  O           1     -27.589  -5.765 -19.697  0.00  0.00    -0.271 OA
ENDROOT
BRANCH   1   5
HETATM    5  C           1     -25.378  -6.579 -19.610  0.00  0.00     0.278 C 
BRANCH   5   6
HETATM    6  N           1     -24.622  -7.507 -18.706  0.00  0.00    -0.066 N 
HETATM    7  H           1     -24.491  -7.055 -17.773  0.00  0.00     0.275 HD
HETATM    8  H           1     -25.162  -8.395 -18.589  0.00  0.00     0.275 HD
HETATM    9  H           1     -23.689  -7.719 -19.126  0.00  0.00     0.275 HD
ENDBRANCH   5   6
BRANCH   5  10
HETATM   10  C           1     -25.523  -7.217 -20.985  0.00  0.00     0.017 C 
HETATM   11  C           1     -24.222  -7.910 -21.365  0.00  0.00     0.012 C 
HETATM   12  C           1     -26.651  -8.240 -20.954  0.00  0.00     0.012 C 
ENDBRANCH   5  10
ENDBRANCH   1   5
BRANCH   2  13
HETATM   13  C           1     -28.348  -6.454 -17.193  0.00  0.00     0.185 C 
BRANCH  13  14
HETATM   14  C           1     -28.272  -6.493 -15.687  0.00  0.00     0.196 C 
HETATM   15  O           1     -27.807  -7.501 -15.110  0.00  0.00    -0.646 OA
HETATM   16  O           1     -28.673  -5.519 -15.014  0.00  0.00    -0.646 OA
ENDBRANCH  13  14
BRANCH  13  17
HETATM   17  C           1     -29.319  -7.520 -17.681  0.00  0.00     0.039 C 
BRANCH  17  18
HETATM   18 Se           1     -31.145  -6.857 -17.528  0.00  0.00     0.000 Se
HETATM   19  H           1     -31.760  -8.193 -17.594  0.00  0.00     0.000 HD
ENDBRANCH  17  18
ENDBRANCH  13  17
ENDBRANCH   2  13
TORSDOF 7
ENDMDL
MODEL 8
REMARK VINA RESULT:      -4.8      4.018      6.218
REMARK  7 active torsions:
REMARK  status: ('A' for Active; 'I' for Inactive)
REMARK    1  A    between atoms: N_1  and  C_8 
REMARK    2  A    between atoms: C_3  and  C_4 
REMARK    3  A    between atoms: C_4  and  C_5 
REMARK    4  A    between atoms: C_4  and  N_9 
REMARK    5  A    between atoms: C_5  and  Se_6 
REMARK       I    between atoms: C_7  and  N_9 
REMARK    6  A    between atoms: C_7  and  C_8 
REMARK    7  A    between atoms: C_8  and  C_15 
ROOT
HETATM    1  C           1     -21.723  -5.526  -5.820  0.00  0.00     0.249 C 
HETATM    2  N           1     -21.047  -6.396  -5.007  0.00  0.00    -0.345 N 
HETATM    3  H           1     -20.035  -6.408  -5.009  0.00  0.00     0.163 HD
HETATM    4  O           1     -22.930  -5.513  -5.817  0.00  0.00    -0.271 OA
ENDROOT
BRANCH   1   5
HETATM    5  C           1     -20.959  -4.587  -6.721  0.00  0.00     0.278 C 
BRANCH   5   6
HETATM    6  N           1     -19.487  -4.814  -6.546  0.00  0.00    -0.066 N 
HETATM    7  H           1     -19.331  -5.559  -5.830  0.00  0.00     0.275 HD
HETATM    8  H           1     -19.072  -5.115  -7.457  0.00  0.00     0.275 HD
HETATM    9  H           1     -19.033  -3.927  -6.232  0.00  0.00     0.275 HD
ENDBRANCH   5   6
BRANCH   5  10
HETATM   10  C           1     -21.344  -4.849  -8.170  0.00  0.00     0.017 C 
HETATM   11  C           1     -22.347  -3.798  -8.628  0.00  0.00     0.012 C 
HETATM   12  C           1     -20.101  -4.779  -9.047  0.00  0.00     0.012 C 
ENDBRANCH   5  10
ENDBRANCH   1   5
BRANCH   2  13
HETATM   13  C           1     -21.780  -7.299  -4.142  0.00  0.00     0.185 C 
BRANCH  13  14
HETATM   14  C           1     -21.661  -6.833  -2.713  0.00  0.00     0.196 C 
HETATM   15  O           1     -20.828  -7.367  -1.947  0.00  0.00    -0.646 OA
HETATM   16  O           1     -22.395  -5.913  -2.291  0.00  0.00    -0.646 OA
ENDBRANCH  13  14
BRANCH  13  17
HETATM   17  C           1     -21.203  -8.703  -4.268  0.00  0.00     0.039 C 
BRANCH  17  18
HETATM   18 Se           1     -19.422  -8.606  -5.053  0.00  0.00     0.000 Se
HETATM   19  H           1     -18.939  -9.832  -4.397  0.00  0.00     0.000 HD
ENDBRANCH  17  18
ENDBRANCH  13  17
ENDBRANCH   2  13
TORSDOF 7
ENDMDL
MODEL 9
REMARK VINA RESULT:      -4.8     18.365     19.724
REMARK  7 active torsions:
REMARK  status: ('A' for Active; 'I' for Inactive)
REMARK    1  A    between atoms: N_1  and  C_8 
REMARK    2  A    between atoms: C_3  and  C_4 
REMARK    3  A    between atoms: C_4  and  C_5 
REMARK    4  A    between atoms: C_4  and  N_9 
REMARK    5  A    between atoms: C_5  and  Se_6 
REMARK       I    between atoms: C_7  and  N_9 
REMARK    6  A    between atoms: C_7  and  C_8 
REMARK    7  A    between atoms: C_8  and  C_15 
ROOT
HETATM    1  C           1     -11.368   5.613 -19.679  0.00  0.00     0.249 C 
HETATM    2  N           1     -11.377   6.736 -20.463  0.00  0.00    -0.345 N 
HETATM    3  H           1     -12.083   6.848 -21.179  0.00  0.00     0.163 HD
HETATM    4  O           1     -10.525   5.480 -18.825  0.00  0.00    -0.271 OA
ENDROOT
BRANCH   1   5
HETATM    5  C           1     -12.410   4.542 -19.885  0.00  0.00     0.278 C 
BRANCH   5   6
HETATM    6  N           1     -13.732   5.182 -20.188  0.00  0.00    -0.066 N 
HETATM    7  H           1     -14.279   4.566 -20.831  0.00  0.00     0.275 HD
HETATM    8  H           1     -14.265   5.316 -19.299  0.00  0.00     0.275 HD
HETATM    9  H           1     -13.574   6.109 -20.643  0.00  0.00     0.275 HD
ENDBRANCH   5   6
BRANCH   5  10
HETATM   10  C           1     -11.999   3.652 -21.050  0.00  0.00     0.017 C 
HETATM   11  C           1     -11.011   2.601 -20.563  0.00  0.00     0.012 C 
HETATM   12  C           1     -13.231   2.962 -21.621  0.00  0.00     0.012 C 
ENDBRANCH   5  10
ENDBRANCH   1   5
BRANCH   2  13
HETATM   13  C           1     -10.375   7.766 -20.265  0.00  0.00     0.185 C 
BRANCH  13  14
HETATM   14  C           1     -10.865   8.753 -19.235  0.00  0.00     0.196 C 
HETATM   15  O           1     -11.976   9.308 -19.379  0.00  0.00    -0.646 OA
HETATM   16  O           1     -10.161   9.016 -18.236  0.00  0.00    -0.646 OA
ENDBRANCH  13  14
BRANCH  13  17
HETATM   17  C           1     -10.125   8.489 -21.582  0.00  0.00     0.039 C 
BRANCH  17  18
HETATM   18 Se           1     -11.445   7.919 -22.898  0.00  0.00     0.000 Se
HETATM   19  H           1     -12.085   6.939 -22.003  0.00  0.00     0.000 HD
ENDBRANCH  17  18
ENDBRANCH  13  17
ENDBRANCH   2  13
TORSDOF 7
ENDMDL
