MODEL 1
REMARK VINA RESULT:      -7.8      0.000      0.000
REMARK  8 active torsions:
REMARK  status: ('A' for Active; 'I' for Inactive)
REMARK    1  A    between atoms: C_2  and  C_3 
REMARK    2  A    between atoms: C_2  and  C_22 
REMARK    3  A    between atoms: C_2  and  N_23 
REMARK    4  A    between atoms: C_3  and  O_26 
REMARK    5  A    between atoms: C_4  and  C_5 
REMARK    6  A    between atoms: C_5  and  C_18 
REMARK    7  A    between atoms: N_11  and  C_18 
REMARK    8  A    between atoms: C_18  and  C_21 
REMARK       I    between atoms: C_21  and  N_23 
ROOT
HETATM    1  C           1     -21.118  -5.826  -6.860  0.00  0.00     0.278 C 
ENDROOT
BRANCH   1   2
HETATM    2  C           1     -21.076  -5.568  -5.360  0.00  0.00     0.083 C 
BRANCH   2   3
HETATM    3  C           1     -21.149  -6.870  -4.626  0.00  0.00    -0.028 A 
HETATM    4  C           1     -20.850  -8.111  -5.143  0.00  0.00     0.096 A 
HETATM    5  N           1     -21.044  -9.035  -4.151  0.00  0.00    -0.365 N 
HETATM    6  C           1     -21.463  -8.414  -2.996  0.00  0.00     0.042 A 
HETATM    7  H           1     -20.893 -10.069  -4.256  0.00  0.00     0.165 HD
HETATM    8  C           1     -21.780  -8.952  -1.742  0.00  0.00     0.030 A 
HETATM    9  C           1     -21.537  -7.048  -3.269  0.00  0.00    -0.002 A 
HETATM   10  C           1     -22.184  -8.064  -0.741  0.00  0.00     0.002 A 
HETATM   11  C           1     -22.267  -6.695  -0.986  0.00  0.00     0.001 A 
HETATM   12  C           1     -21.947  -6.173  -2.245  0.00  0.00     0.014 A 
ENDBRANCH   2   3
ENDBRANCH   1   2
BRANCH   1  13
HETATM   13  N           1     -19.731  -6.108  -7.357  0.00  0.00    -0.066 N 
HETATM   14  H           1     -19.469  -5.402  -8.081  0.00  0.00     0.275 HD
HETATM   15  H           1     -19.058  -6.056  -6.560  0.00  0.00     0.275 HD
HETATM   16  H           1     -19.699  -7.065  -7.777  0.00  0.00     0.275 HD
ENDBRANCH   1  13
BRANCH   1  17
HETATM   17  C           1     -21.667  -4.611  -7.565  0.00  0.00     0.249 C 
HETATM   18  O           1     -21.542  -3.516  -7.070  0.00  0.00    -0.271 OA
HETATM   19  N           1     -22.308  -4.748  -8.768  0.00  0.00    -0.343 N 
HETATM   20  H           1     -22.412  -5.665  -9.184  0.00  0.00     0.163 HD
BRANCH  19  21
HETATM   21  C           1     -22.835  -3.580  -9.446  0.00  0.00     0.209 C 
BRANCH  21  22
HETATM   22  C           1     -22.146  -3.420 -10.794  0.00  0.00     0.200 C 
BRANCH  22  23
HETATM   23  O           1     -23.108  -3.173 -11.785  0.00  0.00    -0.398 OA
HETATM   24  H           1     -23.374  -2.274 -11.689  0.00  0.00     0.209 HD
ENDBRANCH  22  23
ENDBRANCH  21  22
BRANCH  21  25
HETATM   25  C           1     -24.320  -3.750  -9.657  0.00  0.00     0.198 C 
HETATM   26  O           1     -24.787  -4.874  -9.937  0.00  0.00    -0.646 OA
HETATM   27  O           1     -25.082  -2.764  -9.553  0.00  0.00    -0.646 OA
ENDBRANCH  21  25
ENDBRANCH  19  21
ENDBRANCH   1  17
TORSDOF 8
ENDMDL
MODEL 2
REMARK VINA RESULT:      -7.6      3.117      7.840
REMARK  8 active torsions:
REMARK  status: ('A' for Active; 'I' for Inactive)
REMARK    1  A    between atoms: C_2  and  C_3 
REMARK    2  A    between atoms: C_2  and  C_22 
REMARK    3  A    between atoms: C_2  and  N_23 
REMARK    4  A    between atoms: C_3  and  O_26 
REMARK    5  A    between atoms: C_4  and  C_5 
REMARK    6  A    between atoms: C_5  and  C_18 
REMARK    7  A    between atoms: N_11  and  C_18 
REMARK    8  A    between atoms: C_18  and  C_21 
REMARK       I    between atoms: C_21  and  N_23 
ROOT
HETATM    1  C           1     -22.116  -5.145  -6.690  0.00  0.00     0.278 C 
ENDROOT
BRANCH   1   2
HETATM    2  C           1     -21.535  -3.863  -7.271  0.00  0.00     0.083 C 
BRANCH   2   3
HETATM    3  C           1     -21.315  -4.034  -8.741  0.00  0.00    -0.028 A 
HETATM    4  C           1     -20.139  -4.415  -9.346  0.00  0.00     0.096 A 
HETATM    5  N           1     -20.357  -4.452 -10.698  0.00  0.00    -0.365 N 
HETATM    6  C           1     -21.658  -4.101 -10.981  0.00  0.00     0.042 A 
HETATM    7  H           1     -19.635  -4.713 -11.415  0.00  0.00     0.165 HD
HETATM    8  C           1     -22.322  -4.001 -12.210  0.00  0.00     0.030 A 
HETATM    9  C           1     -22.283  -3.832  -9.763  0.00  0.00    -0.002 A 
HETATM   10  C           1     -23.665  -3.614 -12.189  0.00  0.00     0.002 A 
HETATM   11  C           1     -24.315  -3.339 -10.988  0.00  0.00     0.001 A 
HETATM   12  C           1     -23.636  -3.444  -9.767  0.00  0.00     0.014 A 
ENDBRANCH   2   3
ENDBRANCH   1   2
BRANCH   1  13
HETATM   13  N           1     -23.573  -4.944  -6.393  0.00  0.00    -0.066 N 
HETATM   14  H           1     -24.001  -4.348  -7.136  0.00  0.00     0.275 HD
HETATM   15  H           1     -24.054  -5.871  -6.368  0.00  0.00     0.275 HD
HETATM   16  H           1     -23.676  -4.472  -5.466  0.00  0.00     0.275 HD
ENDBRANCH   1  13
BRANCH   1  17
HETATM   17  C           1     -21.387  -5.497  -5.417  0.00  0.00     0.249 C 
HETATM   18  O           1     -20.231  -5.177  -5.273  0.00  0.00    -0.271 OA
HETATM   19  N           1     -22.036  -6.181  -4.424  0.00  0.00    -0.343 N 
HETATM   20  H           1     -23.004  -6.449  -4.543  0.00  0.00     0.163 HD
BRANCH  19  21
HETATM   21  C           1     -21.336  -6.519  -3.200  0.00  0.00     0.209 C 
BRANCH  21  22
HETATM   22  C           1     -22.213  -6.182  -2.001  0.00  0.00     0.200 C 
BRANCH  22  23
HETATM   23  O           1     -22.270  -7.286  -1.138  0.00  0.00    -0.398 OA
HETATM   24  H           1     -21.729  -7.958  -1.519  0.00  0.00     0.209 HD
ENDBRANCH  22  23
ENDBRANCH  21  22
BRANCH  21  25
HETATM   25  C           1     -21.021  -7.995  -3.193  0.00  0.00     0.198 C 
HETATM   26  O           1     -21.771  -8.797  -3.787  0.00  0.00    -0.646 OA
HETATM   27  O           1     -20.009  -8.414  -2.590  0.00  0.00    -0.646 OA
ENDBRANCH  21  25
ENDBRANCH  19  21
ENDBRANCH   1  17
TORSDOF 8
ENDMDL
MODEL 3
REMARK VINA RESULT:      -7.3      3.228      7.966
REMARK  8 active torsions:
REMARK  status: ('A' for Active; 'I' for Inactive)
REMARK    1  A    between atoms: C_2  and  C_3 
REMARK    2  A    between atoms: C_2  and  C_22 
REMARK    3  A    between atoms: C_2  and  N_23 
REMARK    4  A    between atoms: C_3  and  O_26 
REMARK    5  A    between atoms: C_4  and  C_5 
REMARK    6  A    between atoms: C_5  and  C_18 
REMARK    7  A    between atoms: N_11  and  C_18 
REMARK    8  A    between atoms: C_18  and  C_21 
REMARK       I    between atoms: C_21  and  N_23 
ROOT
HETATM    1  C           1     -21.094  -5.352  -6.033  0.00  0.00     0.278 C 
ENDROOT
BRANCH   1   2
HETATM    2  C           1     -20.860  -5.289  -7.537  0.00  0.00     0.083 C 
BRANCH   2   3
HETATM    3  C           1     -22.039  -4.649  -8.200  0.00  0.00    -0.028 A 
HETATM    4  C           1     -23.247  -4.360  -7.605  0.00  0.00     0.096 A 
HETATM    5  N           1     -24.051  -3.782  -8.551  0.00  0.00    -0.365 N 
HETATM    6  C           1     -23.385  -3.690  -9.752  0.00  0.00     0.042 A 
HETATM    7  H           1     -25.035  -3.455  -8.383  0.00  0.00     0.165 HD
HETATM    8  C           1     -23.807  -3.175 -10.984  0.00  0.00     0.030 A 
HETATM    9  C           1     -22.113  -4.230  -9.558  0.00  0.00    -0.002 A 
HETATM   10  C           1     -22.899  -3.216 -12.046  0.00  0.00     0.002 A 
HETATM   11  C           1     -21.622  -3.749 -11.881  0.00  0.00     0.001 A 
HETATM   12  C           1     -21.217  -4.260 -10.642  0.00  0.00     0.014 A 
ENDBRANCH   2   3
ENDBRANCH   1   2
BRANCH   1  13
HETATM   13  N           1     -20.010  -4.593  -5.327  0.00  0.00    -0.066 N 
HETATM   14  H           1     -19.106  -5.109  -5.417  0.00  0.00     0.275 HD
HETATM   15  H           1     -19.914  -3.644  -5.755  0.00  0.00     0.275 HD
HETATM   16  H           1     -20.256  -4.496  -4.316  0.00  0.00     0.275 HD
ENDBRANCH   1  13
BRANCH   1  17
HETATM   17  C           1     -21.075  -6.792  -5.581  0.00  0.00     0.249 C 
HETATM   18  O           1     -21.245  -7.679  -6.383  0.00  0.00    -0.271 OA
HETATM   19  N           1     -20.866  -7.092  -4.261  0.00  0.00    -0.343 N 
HETATM   20  H           1     -20.723  -6.349  -3.590  0.00  0.00     0.163 HD
BRANCH  19  21
HETATM   21  C           1     -20.848  -8.475  -3.827  0.00  0.00     0.209 C 
BRANCH  21  22
HETATM   22  C           1     -19.413  -8.983  -3.805  0.00  0.00     0.200 C 
BRANCH  22  23
HETATM   23  O           1     -18.934  -8.979  -2.488  0.00  0.00    -0.398 OA
HETATM   24  H           1     -19.653  -9.239  -1.935  0.00  0.00     0.209 HD
ENDBRANCH  22  23
ENDBRANCH  21  22
BRANCH  21  25
HETATM   25  C           1     -21.437  -8.574  -2.441  0.00  0.00     0.198 C 
HETATM   26  O           1     -21.554  -7.549  -1.737  0.00  0.00    -0.646 OA
HETATM   27  O           1     -21.806  -9.683  -1.997  0.00  0.00    -0.646 OA
ENDBRANCH  21  25
ENDBRANCH  19  21
ENDBRANCH   1  17
TORSDOF 8
ENDMDL
MODEL 4
REMARK VINA RESULT:      -7.1      3.702      7.755
REMARK  8 active torsions:
REMARK  status: ('A' for Active; 'I' for Inactive)
REMARK    1  A    between atoms: C_2  and  C_3 
REMARK    2  A    between atoms: C_2  and  C_22 
REMARK    3  A    between atoms: C_2  and  N_23 
REMARK    4  A    between atoms: C_3  and  O_26 
REMARK    5  A    between atoms: C_4  and  C_5 
REMARK    6  A    between atoms: C_5  and  C_18 
REMARK    7  A    between atoms: N_11  and  C_18 
REMARK    8  A    between atoms: C_18  and  C_21 
REMARK       I    between atoms: C_21  and  N_23 
ROOT
HETATM    1  C           1     -21.242  -6.032  -5.548  0.00  0.00     0.278 C 
ENDROOT
BRANCH   1   2
HETATM    2  C           1     -20.825  -4.770  -6.290  0.00  0.00     0.083 C 
BRANCH   2   3
HETATM    3  C           1     -21.830  -4.460  -7.355  0.00  0.00    -0.028 A 
HETATM    4  C           1     -23.194  -4.376  -7.183  0.00  0.00     0.096 A 
HETATM    5  N           1     -23.750  -4.074  -8.398  0.00  0.00    -0.365 N 
HETATM    6  C           1     -22.769  -3.960  -9.357  0.00  0.00     0.042 A 
HETATM    7  H           1     -24.778  -3.946  -8.572  0.00  0.00     0.165 HD
HETATM    8  C           1     -22.867  -3.667 -10.723  0.00  0.00     0.030 A 
HETATM    9  C           1     -21.548  -4.199  -8.725  0.00  0.00    -0.002 A 
HETATM   10  C           1     -21.681  -3.617 -11.460  0.00  0.00     0.002 A 
HETATM   11  C           1     -20.448  -3.852 -10.855  0.00  0.00     0.001 A 
HETATM   12  C           1     -20.367  -4.144  -9.488  0.00  0.00     0.014 A 
ENDBRANCH   2   3
ENDBRANCH   1   2
BRANCH   1  13
HETATM   13  N           1     -21.368  -5.731  -4.083  0.00  0.00    -0.066 N 
HETATM   14  H           1     -20.969  -4.786  -3.885  0.00  0.00     0.275 HD
HETATM   15  H           1     -22.376  -5.749  -3.809  0.00  0.00     0.275 HD
HETATM   16  H           1     -20.845  -6.451  -3.534  0.00  0.00     0.275 HD
ENDBRANCH   1  13
BRANCH   1  17
HETATM   17  C           1     -20.202  -7.105  -5.753  0.00  0.00     0.249 C 
HETATM   18  O           1     -19.508  -7.093  -6.742  0.00  0.00    -0.271 OA
HETATM   19  N           1     -20.043  -8.092  -4.818  0.00  0.00    -0.343 N 
HETATM   20  H           1     -20.622  -8.102  -3.989  0.00  0.00     0.163 HD
BRANCH  19  21
HETATM   21  C           1     -19.042  -9.123  -5.015  0.00  0.00     0.209 C 
BRANCH  21  22
HETATM   22  C           1     -18.294  -9.363  -3.710  0.00  0.00     0.200 C 
BRANCH  22  23
HETATM   23  O           1     -17.951 -10.719  -3.611  0.00  0.00    -0.398 OA
HETATM   24  H           1     -17.726 -11.008  -4.480  0.00  0.00     0.209 HD
ENDBRANCH  22  23
ENDBRANCH  21  22
BRANCH  21  25
HETATM   25  C           1     -19.717 -10.401  -5.450  0.00  0.00     0.198 C 
HETATM   26  O           1     -19.316 -11.004  -6.468  0.00  0.00    -0.646 OA
HETATM   27  O           1     -20.678 -10.855  -4.791  0.00  0.00    -0.646 OA
ENDBRANCH  21  25
ENDBRANCH  19  21
ENDBRANCH   1  17
TORSDOF 8
ENDMDL
MODEL 5
REMARK VINA RESULT:      -7.0      2.790      7.561
REMARK  8 active torsions:
REMARK  status: ('A' for Active; 'I' for Inactive)
REMARK    1  A    between atoms: C_2  and  C_3 
REMARK    2  A    between atoms: C_2  and  C_22 
REMARK    3  A    between atoms: C_2  and  N_23 
REMARK    4  A    between atoms: C_3  and  O_26 
REMARK    5  A    between atoms: C_4  and  C_5 
REMARK    6  A    between atoms: C_5  and  C_18 
REMARK    7  A    between atoms: N_11  and  C_18 
REMARK    8  A    between atoms: C_18  and  C_21 
REMARK       I    between atoms: C_21  and  N_23 
ROOT
HETATM    1  C           1     -20.756  -4.713  -7.091  0.00  0.00     0.278 C 
ENDROOT
BRANCH   1   2
HETATM    2  C           1     -20.507  -5.497  -8.373  0.00  0.00     0.083 C 
BRANCH   2   3
HETATM    3  C           1     -20.811  -4.631  -9.555  0.00  0.00    -0.028 A 
HETATM    4  C           1     -19.889  -4.085 -10.419  0.00  0.00     0.096 A 
HETATM    5  N           1     -20.573  -3.363 -11.360  0.00  0.00    -0.365 N 
HETATM    6  C           1     -21.928  -3.432 -11.122  0.00  0.00     0.042 A 
HETATM    7  H           1     -20.129  -2.833 -12.151  0.00  0.00     0.165 HD
HETATM    8  C           1     -22.999  -2.857 -11.816  0.00  0.00     0.030 A 
HETATM    9  C           1     -22.104  -4.226  -9.989  0.00  0.00    -0.002 A 
HETATM   10  C           1     -24.288  -3.104 -11.334  0.00  0.00     0.002 A 
HETATM   11  C           1     -24.494  -3.894 -10.205  0.00  0.00     0.001 A 
HETATM   12  C           1     -23.411  -4.461  -9.522  0.00  0.00     0.014 A 
ENDBRANCH   2   3
ENDBRANCH   1   2
BRANCH   1  13
HETATM   13  N           1     -19.442  -4.385  -6.444  0.00  0.00    -0.066 N 
HETATM   14  H           1     -18.919  -5.268  -6.250  0.00  0.00     0.275 HD
HETATM   15  H           1     -18.880  -3.781  -7.085  0.00  0.00     0.275 HD
HETATM   16  H           1     -19.614  -3.877  -5.547  0.00  0.00     0.275 HD
ENDBRANCH   1  13
BRANCH   1  17
HETATM   17  C           1     -21.587  -5.544  -6.146  0.00  0.00     0.249 C 
HETATM   18  O           1     -22.769  -5.325  -6.028  0.00  0.00    -0.271 OA
HETATM   19  N           1     -21.002  -6.548  -5.421  0.00  0.00    -0.343 N 
HETATM   20  H           1     -20.012  -6.733  -5.520  0.00  0.00     0.163 HD
BRANCH  19  21
HETATM   21  C           1     -21.801  -7.347  -4.513  0.00  0.00     0.209 C 
BRANCH  21  22
HETATM   22  C           1     -21.349  -8.800  -4.579  0.00  0.00     0.200 C 
BRANCH  22  23
HETATM   23  O           1     -22.012  -9.542  -3.591  0.00  0.00    -0.398 OA
HETATM   24  H           1     -21.960 -10.447  -3.848  0.00  0.00     0.209 HD
ENDBRANCH  22  23
ENDBRANCH  21  22
BRANCH  21  25
HETATM   25  C           1     -21.628  -6.831  -3.105  0.00  0.00     0.198 C 
HETATM   26  O           1     -20.726  -7.294  -2.376  0.00  0.00    -0.646 OA
HETATM   27  O           1     -22.390  -5.940  -2.669  0.00  0.00    -0.646 OA
ENDBRANCH  21  25
ENDBRANCH  19  21
ENDBRANCH   1  17
TORSDOF 8
ENDMDL
MODEL 6
REMARK VINA RESULT:      -6.8      1.865      3.007
REMARK  8 active torsions:
REMARK  status: ('A' for Active; 'I' for Inactive)
REMARK    1  A    between atoms: C_2  and  C_3 
REMARK    2  A    between atoms: C_2  and  C_22 
REMARK    3  A    between atoms: C_2  and  N_23 
REMARK    4  A    between atoms: C_3  and  O_26 
REMARK    5  A    between atoms: C_4  and  C_5 
REMARK    6  A    between atoms: C_5  and  C_18 
REMARK    7  A    between atoms: N_11  and  C_18 
REMARK    8  A    between atoms: C_18  and  C_21 
REMARK       I    between atoms: C_21  and  N_23 
ROOT
HETATM    1  C           1     -21.429  -7.104  -5.142  0.00  0.00     0.278 C 
ENDROOT
BRANCH   1   2
HETATM    2  C           1     -20.433  -7.322  -4.012  0.00  0.00     0.083 C 
BRANCH   2   3
HETATM    3  C           1     -21.146  -7.267  -2.698  0.00  0.00    -0.028 A 
HETATM    4  C           1     -21.979  -6.259  -2.268  0.00  0.00     0.096 A 
HETATM    5  N           1     -22.427  -6.590  -1.017  0.00  0.00    -0.365 N 
HETATM    6  C           1     -21.899  -7.801  -0.627  0.00  0.00     0.042 A 
HETATM    7  H           1     -23.081  -6.006  -0.439  0.00  0.00     0.165 HD
HETATM    8  C           1     -22.076  -8.525   0.559  0.00  0.00     0.030 A 
HETATM    9  C           1     -21.088  -8.249  -1.669  0.00  0.00    -0.002 A 
HETATM   10  C           1     -21.401  -9.744   0.677  0.00  0.00     0.002 A 
HETATM   11  C           1     -20.584 -10.216  -0.348  0.00  0.00     0.001 A 
HETATM   12  C           1     -20.418  -9.478  -1.526  0.00  0.00     0.014 A 
ENDBRANCH   2   3
ENDBRANCH   1   2
BRANCH   1  13
HETATM   13  N           1     -21.317  -8.228  -6.131  0.00  0.00    -0.066 N 
HETATM   14  H           1     -20.438  -8.118  -6.684  0.00  0.00     0.275 HD
HETATM   15  H           1     -21.297  -9.139  -5.620  0.00  0.00     0.275 HD
HETATM   16  H           1     -22.139  -8.207  -6.775  0.00  0.00     0.275 HD
ENDBRANCH   1  13
BRANCH   1  17
HETATM   17  C           1     -21.130  -5.796  -5.832  0.00  0.00     0.249 C 
HETATM   18  O           1     -20.537  -4.924  -5.244  0.00  0.00    -0.271 OA
HETATM   19  N           1     -21.533  -5.597  -7.126  0.00  0.00    -0.343 N 
HETATM   20  H           1     -22.029  -6.328  -7.620  0.00  0.00     0.163 HD
BRANCH  19  21
HETATM   21  C           1     -21.245  -4.341  -7.789  0.00  0.00     0.209 C 
BRANCH  21  22
HETATM   22  C           1     -19.960  -4.472  -8.596  0.00  0.00     0.200 C 
BRANCH  22  23
HETATM   23  O           1     -18.858  -4.229  -7.764  0.00  0.00    -0.398 OA
HETATM   24  H           1     -18.772  -4.978  -7.198  0.00  0.00     0.209 HD
ENDBRANCH  22  23
ENDBRANCH  21  22
BRANCH  21  25
HETATM   25  C           1     -22.385  -3.989  -8.714  0.00  0.00     0.198 C 
HETATM   26  O           1     -22.147  -3.567  -9.866  0.00  0.00    -0.646 OA
HETATM   27  O           1     -23.566  -4.119  -8.327  0.00  0.00    -0.646 OA
ENDBRANCH  21  25
ENDBRANCH  19  21
ENDBRANCH   1  17
TORSDOF 8
ENDMDL
MODEL 7
REMARK VINA RESULT:      -6.7      1.413      2.138
REMARK  8 active torsions:
REMARK  status: ('A' for Active; 'I' for Inactive)
REMARK    1  A    between atoms: C_2  and  C_3 
REMARK    2  A    between atoms: C_2  and  C_22 
REMARK    3  A    between atoms: C_2  and  N_23 
REMARK    4  A    between atoms: C_3  and  O_26 
REMARK    5  A    between atoms: C_4  and  C_5 
REMARK    6  A    between atoms: C_5  and  C_18 
REMARK    7  A    between atoms: N_11  and  C_18 
REMARK    8  A    between atoms: C_18  and  C_21 
REMARK       I    between atoms: C_21  and  N_23 
ROOT
HETATM    1  C           1     -21.698  -6.042  -5.724  0.00  0.00     0.278 C 
ENDROOT
BRANCH   1   2
HETATM    2  C           1     -20.783  -5.673  -4.564  0.00  0.00     0.083 C 
BRANCH   2   3
HETATM    3  C           1     -21.220  -6.402  -3.332  0.00  0.00    -0.028 A 
HETATM    4  C           1     -22.145  -5.962  -2.413  0.00  0.00     0.096 A 
HETATM    5  N           1     -22.258  -6.919  -1.440  0.00  0.00    -0.365 N 
HETATM    6  C           1     -21.419  -7.976  -1.713  0.00  0.00     0.042 A 
HETATM    7  H           1     -22.894  -6.856  -0.607  0.00  0.00     0.165 HD
HETATM    8  C           1     -21.201  -9.165  -1.005  0.00  0.00     0.030 A 
HETATM    9  C           1     -20.753  -7.675  -2.901  0.00  0.00    -0.002 A 
HETATM   10  C           1     -20.274 -10.069  -1.530  0.00  0.00     0.002 A 
HETATM   11  C           1     -19.594  -9.794  -2.715  0.00  0.00     0.001 A 
HETATM   12  C           1     -19.823  -8.601  -3.410  0.00  0.00     0.014 A 
ENDBRANCH   2   3
ENDBRANCH   1   2
BRANCH   1  13
HETATM   13  N           1     -21.149  -7.249  -6.428  0.00  0.00    -0.066 N 
HETATM   14  H           1     -20.420  -7.700  -5.830  0.00  0.00     0.275 HD
HETATM   15  H           1     -21.923  -7.928  -6.607  0.00  0.00     0.275 HD
HETATM   16  H           1     -20.723  -6.958  -7.336  0.00  0.00     0.275 HD
ENDBRANCH   1  13
BRANCH   1  17
HETATM   17  C           1     -21.773  -4.888  -6.693  0.00  0.00     0.249 C 
HETATM   18  O           1     -21.111  -3.895  -6.503  0.00  0.00    -0.271 OA
HETATM   19  N           1     -22.593  -4.965  -7.787  0.00  0.00    -0.343 N 
HETATM   20  H           1     -23.147  -5.797  -7.947  0.00  0.00     0.163 HD
BRANCH  19  21
HETATM   21  C           1     -22.665  -3.856  -8.718  0.00  0.00     0.209 C 
BRANCH  21  22
HETATM   22  C           1     -21.556  -3.986  -9.753  0.00  0.00     0.200 C 
BRANCH  22  23
HETATM   23  O           1     -22.037  -3.585 -11.008  0.00  0.00    -0.398 OA
HETATM   24  H           1     -21.369  -3.046 -11.397  0.00  0.00     0.209 HD
ENDBRANCH  22  23
ENDBRANCH  21  22
BRANCH  21  25
HETATM   25  C           1     -24.005  -3.870  -9.413  0.00  0.00     0.198 C 
HETATM   26  O           1     -24.689  -2.827  -9.474  0.00  0.00    -0.646 OA
HETATM   27  O           1     -24.430  -4.928  -9.928  0.00  0.00    -0.646 OA
ENDBRANCH  21  25
ENDBRANCH  19  21
ENDBRANCH   1  17
TORSDOF 8
ENDMDL
MODEL 8
REMARK VINA RESULT:      -6.6      2.086      3.024
REMARK  8 active torsions:
REMARK  status: ('A' for Active; 'I' for Inactive)
REMARK    1  A    between atoms: C_2  and  C_3 
REMARK    2  A    between atoms: C_2  and  C_22 
REMARK    3  A    between atoms: C_2  and  N_23 
REMARK    4  A    between atoms: C_3  and  O_26 
REMARK    5  A    between atoms: C_4  and  C_5 
REMARK    6  A    between atoms: C_5  and  C_18 
REMARK    7  A    between atoms: N_11  and  C_18 
REMARK    8  A    between atoms: C_18  and  C_21 
REMARK       I    between atoms: C_21  and  N_23 
ROOT
HETATM    1  C           1     -20.494  -7.944  -4.936  0.00  0.00     0.278 C 
ENDROOT
BRANCH   1   2
HETATM    2  C           1     -20.016  -8.111  -3.500  0.00  0.00     0.083 C 
BRANCH   2   3
HETATM    3  C           1     -20.915  -9.067  -2.781  0.00  0.00    -0.028 A 
HETATM    4  C           1     -21.107 -10.393  -3.096  0.00  0.00     0.096 A 
HETATM    5  N           1     -22.002 -10.912  -2.199  0.00  0.00    -0.365 N 
HETATM    6  C           1     -22.396  -9.942  -1.304  0.00  0.00     0.042 A 
HETATM    7  H           1     -22.339 -11.906  -2.193  0.00  0.00     0.165 HD
HETATM    8  C           1     -23.287 -10.013  -0.226  0.00  0.00     0.030 A 
HETATM    9  C           1     -21.725  -8.769  -1.650  0.00  0.00    -0.002 A 
HETATM   10  C           1     -23.495  -8.848   0.518  0.00  0.00     0.002 A 
HETATM   11  C           1     -22.838  -7.662   0.196  0.00  0.00     0.001 A 
HETATM   12  C           1     -21.950  -7.609  -0.886  0.00  0.00     0.014 A 
ENDBRANCH   2   3
ENDBRANCH   1   2
BRANCH   1  13
HETATM   13  N           1     -19.436  -8.443  -5.876  0.00  0.00    -0.066 N 
HETATM   14  H           1     -18.741  -9.016  -5.346  0.00  0.00     0.275 HD
HETATM   15  H           1     -19.879  -9.031  -6.617  0.00  0.00     0.275 HD
HETATM   16  H           1     -18.952  -7.630  -6.319  0.00  0.00     0.275 HD
ENDBRANCH   1  13
BRANCH   1  17
HETATM   17  C           1     -20.762  -6.485  -5.211  0.00  0.00     0.249 C 
HETATM   18  O           1     -20.994  -5.730  -4.297  0.00  0.00    -0.271 OA
HETATM   19  N           1     -20.744  -6.016  -6.498  0.00  0.00    -0.343 N 
HETATM   20  H           1     -20.549  -6.648  -7.264  0.00  0.00     0.163 HD
BRANCH  19  21
HETATM   21  C           1     -21.001  -4.614  -6.762  0.00  0.00     0.209 C 
BRANCH  21  22
HETATM   22  C           1     -20.019  -4.104  -7.809  0.00  0.00     0.200 C 
BRANCH  22  23
HETATM   23  O           1     -20.014  -4.973  -8.909  0.00  0.00    -0.398 OA
HETATM   24  H           1     -19.379  -4.637  -9.519  0.00  0.00     0.209 HD
ENDBRANCH  22  23
ENDBRANCH  21  22
BRANCH  21  25
HETATM   25  C           1     -22.411  -4.450  -7.275  0.00  0.00     0.198 C 
HETATM   26  O           1     -23.380  -4.742  -6.543  0.00  0.00    -0.646 OA
HETATM   27  O           1     -22.608  -4.023  -8.434  0.00  0.00    -0.646 OA
ENDBRANCH  21  25
ENDBRANCH  19  21
ENDBRANCH   1  17
TORSDOF 8
ENDMDL
MODEL 9
REMARK VINA RESULT:      -6.5      3.515      5.010
REMARK  8 active torsions:
REMARK  status: ('A' for Active; 'I' for Inactive)
REMARK    1  A    between atoms: C_2  and  C_3 
REMARK    2  A    between atoms: C_2  and  C_22 
REMARK    3  A    between atoms: C_2  and  N_23 
REMARK    4  A    between atoms: C_3  and  O_26 
REMARK    5  A    between atoms: C_4  and  C_5 
REMARK    6  A    between atoms: C_5  and  C_18 
REMARK    7  A    between atoms: N_11  and  C_18 
REMARK    8  A    between atoms: C_18  and  C_21 
REMARK       I    between atoms: C_21  and  N_23 
ROOT
HETATM    1  C           1     -18.888  -9.878  -4.063  0.00  0.00     0.278 C 
ENDROOT
BRANCH   1   2
HETATM    2  C           1     -18.978  -9.320  -2.649  0.00  0.00     0.083 C 
BRANCH   2   3
HETATM    3  C           1     -20.178  -9.890  -1.962  0.00  0.00    -0.028 A 
HETATM    4  C           1     -20.547 -11.216  -1.938  0.00  0.00     0.096 A 
HETATM    5  N           1     -21.700 -11.317  -1.205  0.00  0.00    -0.365 N 
HETATM    6  C           1     -22.086 -10.076  -0.751  0.00  0.00     0.042 A 
HETATM    7  H           1     -22.214 -12.213  -1.016  0.00  0.00     0.165 HD
HETATM    8  C           1     -23.189  -9.700   0.026  0.00  0.00     0.030 A 
HETATM    9  C           1     -21.144  -9.158  -1.215  0.00  0.00    -0.002 A 
HETATM   10  C           1     -23.327  -8.344   0.337  0.00  0.00     0.002 A 
HETATM   11  C           1     -22.401  -7.405  -0.112  0.00  0.00     0.001 A 
HETATM   12  C           1     -21.304  -7.798  -0.889  0.00  0.00     0.014 A 
ENDBRANCH   2   3
ENDBRANCH   1   2
BRANCH   1  13
HETATM   13  N           1     -17.505  -9.653  -4.602  0.00  0.00    -0.066 N 
HETATM   14  H           1     -17.566  -9.321  -5.590  0.00  0.00     0.275 HD
HETATM   15  H           1     -17.019  -8.934  -4.021  0.00  0.00     0.275 HD
HETATM   16  H           1     -16.969 -10.549  -4.568  0.00  0.00     0.275 HD
ENDBRANCH   1  13
BRANCH   1  17
HETATM   17  C           1     -19.891  -9.178  -4.946  0.00  0.00     0.249 C 
HETATM   18  O           1     -20.540  -9.812  -5.744  0.00  0.00    -0.271 OA
HETATM   19  N           1     -20.066  -7.824  -4.843  0.00  0.00    -0.343 N 
HETATM   20  H           1     -19.523  -7.293  -4.174  0.00  0.00     0.163 HD
BRANCH  19  21
HETATM   21  C           1     -21.030  -7.152  -5.691  0.00  0.00     0.209 C 
BRANCH  21  22
HETATM   22  C           1     -22.176  -6.620  -4.839  0.00  0.00     0.200 C 
BRANCH  22  23
HETATM   23  O           1     -21.657  -5.918  -3.743  0.00  0.00    -0.398 OA
HETATM   24  H           1     -20.747  -5.755  -3.928  0.00  0.00     0.209 HD
ENDBRANCH  22  23
ENDBRANCH  21  22
BRANCH  21  25
HETATM   25  C           1     -20.358  -6.002  -6.402  0.00  0.00     0.198 C 
HETATM   26  O           1     -20.114  -4.943  -5.786  0.00  0.00    -0.646 OA
HETATM   27  O           1     -20.048  -6.110  -7.609  0.00  0.00    -0.646 OA
ENDBRANCH  21  25
ENDBRANCH  19  21
ENDBRANCH   1  17
TORSDOF 8
ENDMDL
