MODEL 1
REMARK VINA RESULT:      -4.3      0.000      0.000
REMARK  5 active torsions:
REMARK  status: ('A' for Active; 'I' for Inactive)
REMARK    1  A    between atoms: N_3  and  C_6 
REMARK    2  A    between atoms: S_4  and  C_5 
REMARK    3  A    between atoms: C_5  and  C_6 
REMARK    4  A    between atoms: C_6  and  C_7 
REMARK       I    between atoms: C_7  and  N_8 
REMARK    5  A    between atoms: C_14  and  C_18 
ROOT
HETATM    1  C           1     -21.934  -9.844  -2.173  0.00  0.00     0.127 C 
HETATM    2  O           1     -20.834 -10.385   1.224  0.00  0.00    -0.271 OA
HETATM    3  C           1     -21.268 -10.666   0.133  0.00  0.00     0.252 C 
HETATM    4  N           1     -21.427  -9.690  -0.813  0.00  0.00    -0.336 N 
HETATM    5  C           1     -20.502  -7.904  -2.016  0.00  0.00     0.038 C 
HETATM    6  C           1     -21.037  -8.938  -3.000  0.00  0.00     0.022 C 
HETATM    7  C           1     -21.127  -8.267  -0.681  0.00  0.00     0.188 C 
ENDROOT
BRANCH   3   8
HETATM    8  C           1     -21.636 -12.094  -0.187  0.00  0.00     0.283 C 
BRANCH   8   9
HETATM    9  N           1     -20.610 -13.018   0.399  0.00  0.00    -0.066 N 
HETATM   10  H           1     -19.842 -13.170  -0.292  0.00  0.00     0.275 HD
HETATM   11  H           1     -20.216 -12.594   1.269  0.00  0.00     0.275 HD
HETATM   12  H           1     -21.059 -13.934   0.629  0.00  0.00     0.275 HD
ENDBRANCH   8   9
BRANCH   8  13
HETATM   13  C           1     -23.002 -12.413   0.404  0.00  0.00     0.113 C 
BRANCH  13  14
HETATM   14  S           1     -22.839 -13.750   1.620  0.00  0.00    -0.180 SA
HETATM   15  H           1     -23.296 -14.727   0.817  0.00  0.00     0.101 HD
ENDBRANCH  13  14
ENDBRANCH   8  13
ENDBRANCH   3   8
BRANCH   7  16
HETATM   16  C           1     -22.387  -7.472  -0.444  0.00  0.00     0.196 C 
HETATM   17  O           1     -22.617  -6.447  -1.122  0.00  0.00    -0.646 OA
HETATM   18  O           1     -23.202  -7.838   0.431  0.00  0.00    -0.646 OA
ENDBRANCH   7  16
TORSDOF 5
ENDMDL
MODEL 2
REMARK VINA RESULT:      -4.3      2.814      4.851
REMARK  5 active torsions:
REMARK  status: ('A' for Active; 'I' for Inactive)
REMARK    1  A    between atoms: N_3  and  C_6 
REMARK    2  A    between atoms: S_4  and  C_5 
REMARK    3  A    between atoms: C_5  and  C_6 
REMARK    4  A    between atoms: C_6  and  C_7 
REMARK       I    between atoms: C_7  and  N_8 
REMARK    5  A    between atoms: C_14  and  C_18 
ROOT
HETATM    1  C           1     -22.552 -10.381  -2.020  0.00  0.00     0.127 C 
HETATM    2  O           1     -22.066  -7.553   0.175  0.00  0.00    -0.271 OA
HETATM    3  C           1     -22.148  -8.156  -0.868  0.00  0.00     0.252 C 
HETATM    4  N           1     -22.418  -9.498  -0.865  0.00  0.00    -0.336 N 
HETATM    5  C           1     -23.781 -11.259  -0.134  0.00  0.00     0.038 C 
HETATM    6  C           1     -23.723 -11.279  -1.657  0.00  0.00     0.022 C 
HETATM    7  C           1     -22.638 -10.358   0.295  0.00  0.00     0.188 C 
ENDROOT
BRANCH   3   8
HETATM    8  C           1     -21.950  -7.429  -2.176  0.00  0.00     0.283 C 
BRANCH   8   9
HETATM    9  N           1     -22.317  -5.985  -2.006  0.00  0.00    -0.066 N 
HETATM   10  H           1     -21.808  -5.590  -1.184  0.00  0.00     0.275 HD
HETATM   11  H           1     -22.051  -5.455  -2.867  0.00  0.00     0.275 HD
HETATM   12  H           1     -23.348  -5.905  -1.851  0.00  0.00     0.275 HD
ENDBRANCH   8   9
BRANCH   8  13
HETATM   13  C           1     -20.491  -7.535  -2.601  0.00  0.00     0.113 C 
BRANCH  13  14
HETATM   14  S           1     -20.402  -8.135  -4.312  0.00  0.00    -0.180 SA
HETATM   15  H           1     -21.002  -9.315  -4.079  0.00  0.00     0.101 HD
ENDBRANCH  13  14
ENDBRANCH   8  13
ENDBRANCH   3   8
BRANCH   7  16
HETATM   16  C           1     -21.402 -11.167   0.604  0.00  0.00     0.196 C 
HETATM   17  O           1     -20.290 -10.604   0.684  0.00  0.00    -0.646 OA
HETATM   18  O           1     -21.492 -12.402   0.778  0.00  0.00    -0.646 OA
ENDBRANCH   7  16
TORSDOF 5
ENDMDL
MODEL 3
REMARK VINA RESULT:      -4.1      3.377      4.313
REMARK  5 active torsions:
REMARK  status: ('A' for Active; 'I' for Inactive)
REMARK    1  A    between atoms: N_3  and  C_6 
REMARK    2  A    between atoms: S_4  and  C_5 
REMARK    3  A    between atoms: C_5  and  C_6 
REMARK    4  A    between atoms: C_6  and  C_7 
REMARK       I    between atoms: C_7  and  N_8 
REMARK    5  A    between atoms: C_14  and  C_18 
ROOT
HETATM    1  C           1     -21.786  -7.944  -1.613  0.00  0.00     0.127 C 
HETATM    2  O           1     -19.515 -10.734  -1.287  0.00  0.00    -0.271 OA
HETATM    3  C           1     -19.965  -9.707  -1.735  0.00  0.00     0.252 C 
HETATM    4  N           1     -21.105  -9.168  -1.202  0.00  0.00    -0.336 N 
HETATM    5  C           1     -22.279  -8.454   0.697  0.00  0.00     0.038 C 
HETATM    6  C           1     -22.207  -7.304  -0.301  0.00  0.00     0.022 C 
HETATM    7  C           1     -21.904  -9.692  -0.097  0.00  0.00     0.188 C 
ENDROOT
BRANCH   3   8
HETATM    8  C           1     -19.270  -9.018  -2.884  0.00  0.00     0.283 C 
BRANCH   8   9
HETATM    9  N           1     -17.810  -9.358  -2.862  0.00  0.00    -0.066 N 
HETATM   10  H           1     -17.529  -9.627  -1.892  0.00  0.00     0.275 HD
HETATM   11  H           1     -17.629 -10.157  -3.510  0.00  0.00     0.275 HD
HETATM   12  H           1     -17.255  -8.527  -3.168  0.00  0.00     0.275 HD
ENDBRANCH   8   9
BRANCH   8  13
HETATM   13  C           1     -19.880  -9.483  -4.199  0.00  0.00     0.113 C 
BRANCH  13  14
HETATM   14  S           1     -20.391  -8.040  -5.173  0.00  0.00    -0.180 SA
HETATM   15  H           1     -19.153  -7.682  -5.556  0.00  0.00     0.101 HD
ENDBRANCH  13  14
ENDBRANCH   8  13
ENDBRANCH   3   8
BRANCH   7  16
HETATM   16  C           1     -23.136 -10.394  -0.612  0.00  0.00     0.196 C 
HETATM   17  O           1     -23.091 -11.028  -1.689  0.00  0.00    -0.646 OA
HETATM   18  O           1     -24.203 -10.340   0.037  0.00  0.00    -0.646 OA
ENDBRANCH   7  16
TORSDOF 5
ENDMDL
MODEL 4
REMARK VINA RESULT:      -4.1      2.238      2.840
REMARK  5 active torsions:
REMARK  status: ('A' for Active; 'I' for Inactive)
REMARK    1  A    between atoms: N_3  and  C_6 
REMARK    2  A    between atoms: S_4  and  C_5 
REMARK    3  A    between atoms: C_5  and  C_6 
REMARK    4  A    between atoms: C_6  and  C_7 
REMARK       I    between atoms: C_7  and  N_8 
REMARK    5  A    between atoms: C_14  and  C_18 
ROOT
HETATM    1  C           1     -21.861  -9.390  -3.919  0.00  0.00     0.127 C 
HETATM    2  O           1     -20.470  -8.134  -0.831  0.00  0.00    -0.271 OA
HETATM    3  C           1     -21.038  -8.903  -1.568  0.00  0.00     0.252 C 
HETATM    4  N           1     -21.204  -8.588  -2.890  0.00  0.00    -0.336 N 
HETATM    5  C           1     -20.250  -7.889  -4.913  0.00  0.00     0.038 C 
HETATM    6  C           1     -20.975  -9.210  -5.140  0.00  0.00     0.022 C 
HETATM    7  C           1     -20.764  -7.379  -3.579  0.00  0.00     0.188 C 
ENDROOT
BRANCH   3   8
HETATM    8  C           1     -21.565 -10.211  -1.032  0.00  0.00     0.283 C 
BRANCH   8   9
HETATM    9  N           1     -20.619 -10.746   0.002  0.00  0.00    -0.066 N 
HETATM   10  H           1     -21.160 -11.214   0.762  0.00  0.00     0.275 HD
HETATM   11  H           1     -19.973 -11.437  -0.442  0.00  0.00     0.275 HD
HETATM   12  H           1     -20.062  -9.957   0.404  0.00  0.00     0.275 HD
ENDBRANCH   8   9
BRANCH   8  13
HETATM   13  C           1     -22.932  -9.988  -0.399  0.00  0.00     0.113 C 
BRANCH  13  14
HETATM   14  S           1     -23.754 -11.587  -0.153  0.00  0.00    -0.180 SA
HETATM   15  H           1     -22.695 -12.207   0.397  0.00  0.00     0.101 HD
ENDBRANCH  13  14
ENDBRANCH   8  13
ENDBRANCH   3   8
BRANCH   7  16
HETATM   16  C           1     -21.915  -6.424  -3.776  0.00  0.00     0.196 C 
HETATM   17  O           1     -22.233  -6.057  -4.928  0.00  0.00    -0.646 OA
HETATM   18  O           1     -22.551  -5.998  -2.787  0.00  0.00    -0.646 OA
ENDBRANCH   7  16
TORSDOF 5
ENDMDL
MODEL 5
REMARK VINA RESULT:      -4.0      2.760      4.801
REMARK  5 active torsions:
REMARK  status: ('A' for Active; 'I' for Inactive)
REMARK    1  A    between atoms: N_3  and  C_6 
REMARK    2  A    between atoms: S_4  and  C_5 
REMARK    3  A    between atoms: C_5  and  C_6 
REMARK    4  A    between atoms: C_6  and  C_7 
REMARK       I    between atoms: C_7  and  N_8 
REMARK    5  A    between atoms: C_14  and  C_18 
ROOT
HETATM    1  C           1     -22.578 -10.873  -2.173  0.00  0.00     0.127 C 
HETATM    2  O           1     -21.261  -7.774  -0.868  0.00  0.00    -0.271 OA
HETATM    3  C           1     -21.578  -8.590  -1.699  0.00  0.00     0.252 C 
HETATM    4  N           1     -22.138  -9.778  -1.314  0.00  0.00    -0.336 N 
HETATM    5  C           1     -23.776 -10.906  -0.075  0.00  0.00     0.038 C 
HETATM    6  C           1     -23.877 -11.337  -1.533  0.00  0.00     0.022 C 
HETATM    7  C           1     -22.424 -10.227   0.046  0.00  0.00     0.188 C 
ENDROOT
BRANCH   3   8
HETATM    8  C           1     -21.357  -8.300  -3.163  0.00  0.00     0.283 C 
BRANCH   8   9
HETATM    9  N           1     -21.570  -6.837  -3.421  0.00  0.00    -0.066 N 
HETATM   10  H           1     -20.814  -6.288  -2.957  0.00  0.00     0.275 HD
HETATM   11  H           1     -21.548  -6.659  -4.451  0.00  0.00     0.275 HD
HETATM   12  H           1     -22.498  -6.549  -3.036  0.00  0.00     0.275 HD
ENDBRANCH   8   9
BRANCH   8  13
HETATM   13  C           1     -19.934  -8.680  -3.548  0.00  0.00     0.113 C 
BRANCH  13  14
HETATM   14  S           1     -19.975  -9.886  -4.904  0.00  0.00    -0.180 SA
HETATM   15  H           1     -21.308 -10.065  -4.893  0.00  0.00     0.101 HD
ENDBRANCH  13  14
ENDBRANCH   8  13
ENDBRANCH   3   8
BRANCH   7  16
HETATM   16  C           1     -21.374 -11.200   0.522  0.00  0.00     0.196 C 
HETATM   17  O           1     -21.715 -12.303   1.002  0.00  0.00    -0.646 OA
HETATM   18  O           1     -20.162 -10.903   0.438  0.00  0.00    -0.646 OA
ENDBRANCH   7  16
TORSDOF 5
ENDMDL
MODEL 6
REMARK VINA RESULT:      -4.0      3.838      4.523
REMARK  5 active torsions:
REMARK  status: ('A' for Active; 'I' for Inactive)
REMARK    1  A    between atoms: N_3  and  C_6 
REMARK    2  A    between atoms: S_4  and  C_5 
REMARK    3  A    between atoms: C_5  and  C_6 
REMARK    4  A    between atoms: C_6  and  C_7 
REMARK       I    between atoms: C_7  and  N_8 
REMARK    5  A    between atoms: C_14  and  C_18 
ROOT
HETATM    1  C           1     -21.777  -8.094  -4.284  0.00  0.00     0.127 C 
HETATM    2  O           1     -18.735  -9.131  -2.635  0.00  0.00    -0.271 OA
HETATM    3  C           1     -19.603  -9.122  -3.475  0.00  0.00     0.252 C 
HETATM    4  N           1     -20.648  -8.244  -3.371  0.00  0.00    -0.336 N 
HETATM    5  C           1     -21.383  -6.038  -3.078  0.00  0.00     0.038 C 
HETATM    6  C           1     -21.980  -6.590  -4.367  0.00  0.00     0.022 C 
HETATM    7  C           1     -20.876  -7.253  -2.322  0.00  0.00     0.188 C 
ENDROOT
BRANCH   3   8
HETATM    8  C           1     -19.535 -10.080  -4.639  0.00  0.00     0.283 C 
BRANCH   8   9
HETATM    9  N           1     -18.757  -9.454  -5.757  0.00  0.00    -0.066 N 
HETATM   10  H           1     -19.180  -8.531  -6.002  0.00  0.00     0.275 HD
HETATM   11  H           1     -17.766  -9.313  -5.456  0.00  0.00     0.275 HD
HETATM   12  H           1     -18.783 -10.082  -6.593  0.00  0.00     0.275 HD
ENDBRANCH   8   9
BRANCH   8  13
HETATM   13  C           1     -18.847 -11.366  -4.200  0.00  0.00     0.113 C 
BRANCH  13  14
HETATM   14  S           1     -17.260 -11.528  -5.065  0.00  0.00    -0.180 SA
HETATM   15  H           1     -16.489 -11.400  -3.971  0.00  0.00     0.101 HD
ENDBRANCH  13  14
ENDBRANCH   8  13
ENDBRANCH   3   8
BRANCH   7  16
HETATM   16  C           1     -21.909  -7.742  -1.337  0.00  0.00     0.196 C 
HETATM   17  O           1     -21.938  -8.948  -1.009  0.00  0.00    -0.646 OA
HETATM   18  O           1     -22.736  -6.942  -0.850  0.00  0.00    -0.646 OA
ENDBRANCH   7  16
TORSDOF 5
ENDMDL
MODEL 7
REMARK VINA RESULT:      -4.0      3.159      4.187
REMARK  5 active torsions:
REMARK  status: ('A' for Active; 'I' for Inactive)
REMARK    1  A    between atoms: N_3  and  C_6 
REMARK    2  A    between atoms: S_4  and  C_5 
REMARK    3  A    between atoms: C_5  and  C_6 
REMARK    4  A    between atoms: C_6  and  C_7 
REMARK       I    between atoms: C_7  and  N_8 
REMARK    5  A    between atoms: C_14  and  C_18 
ROOT
HETATM    1  C           1     -20.694 -10.577   0.092  0.00  0.00     0.127 C 
HETATM    2  O           1     -20.698  -9.311  -3.291  0.00  0.00    -0.271 OA
HETATM    3  C           1     -20.256  -9.826  -2.292  0.00  0.00     0.252 C 
HETATM    4  N           1     -21.056  -9.983  -1.192  0.00  0.00    -0.336 N 
HETATM    5  C           1     -23.075 -10.749  -0.283  0.00  0.00     0.038 C 
HETATM    6  C           1     -21.918 -11.394   0.471  0.00  0.00     0.022 C 
HETATM    7  C           1     -22.455  -9.593  -1.047  0.00  0.00     0.188 C 
ENDROOT
BRANCH   3   8
HETATM    8  C           1     -18.822 -10.294  -2.256  0.00  0.00     0.283 C 
BRANCH   8   9
HETATM    9  N           1     -18.742 -11.698  -2.778  0.00  0.00    -0.066 N 
HETATM   10  H           1     -18.312 -12.315  -2.053  0.00  0.00     0.275 HD
HETATM   11  H           1     -19.703 -12.042  -3.002  0.00  0.00     0.275 HD
HETATM   12  H           1     -18.155 -11.714  -3.643  0.00  0.00     0.275 HD
ENDBRANCH   8   9
BRANCH   8  13
HETATM   13  C           1     -17.967  -9.381  -3.124  0.00  0.00     0.113 C 
BRANCH  13  14
HETATM   14  S           1     -16.215  -9.799  -2.898  0.00  0.00    -0.180 SA
HETATM   15  H           1     -16.050  -9.105  -1.759  0.00  0.00     0.101 HD
ENDBRANCH  13  14
ENDBRANCH   8  13
ENDBRANCH   3   8
BRANCH   7  16
HETATM   16  C           1     -22.576  -8.307  -0.267  0.00  0.00     0.196 C 
HETATM   17  O           1     -23.398  -8.220   0.671  0.00  0.00    -0.646 OA
HETATM   18  O           1     -21.856  -7.328  -0.560  0.00  0.00    -0.646 OA
ENDBRANCH   7  16
TORSDOF 5
ENDMDL
MODEL 8
REMARK VINA RESULT:      -4.0      3.272      4.176
REMARK  5 active torsions:
REMARK  status: ('A' for Active; 'I' for Inactive)
REMARK    1  A    between atoms: N_3  and  C_6 
REMARK    2  A    between atoms: S_4  and  C_5 
REMARK    3  A    between atoms: C_5  and  C_6 
REMARK    4  A    between atoms: C_6  and  C_7 
REMARK       I    between atoms: C_7  and  N_8 
REMARK    5  A    between atoms: C_14  and  C_18 
ROOT
HETATM    1  C           1     -20.941  -7.468  -2.343  0.00  0.00     0.127 C 
HETATM    2  O           1     -22.338 -10.625  -3.406  0.00  0.00    -0.271 OA
HETATM    3  C           1     -21.894  -9.801  -2.643  0.00  0.00     0.252 C 
HETATM    4  N           1     -21.498  -8.578  -3.113  0.00  0.00    -0.336 N 
HETATM    5  C           1     -22.000  -6.657  -4.358  0.00  0.00     0.038 C 
HETATM    6  C           1     -21.602  -6.240  -2.947  0.00  0.00     0.022 C 
HETATM    7  C           1     -21.539  -8.097  -4.491  0.00  0.00     0.188 C 
ENDROOT
BRANCH   3   8
HETATM    8  C           1     -21.775 -10.120  -1.173  0.00  0.00     0.283 C 
BRANCH   8   9
HETATM    9  N           1     -23.145 -10.269  -0.582  0.00  0.00    -0.066 N 
HETATM   10  H           1     -23.680 -10.988  -1.118  0.00  0.00     0.275 HD
HETATM   11  H           1     -23.062 -10.570   0.416  0.00  0.00     0.275 HD
HETATM   12  H           1     -23.646  -9.353  -0.630  0.00  0.00     0.275 HD
ENDBRANCH   8   9
BRANCH   8  13
HETATM   13  C           1     -21.002 -11.420  -0.996  0.00  0.00     0.113 C 
BRANCH  13  14
HETATM   14  S           1     -19.273 -11.168  -1.487  0.00  0.00    -0.180 SA
HETATM   15  H           1     -18.943 -12.471  -1.516  0.00  0.00     0.101 HD
ENDBRANCH  13  14
ENDBRANCH   8  13
ENDBRANCH   3   8
BRANCH   7  16
HETATM   16  C           1     -20.172  -8.168  -5.126  0.00  0.00     0.196 C 
HETATM   17  O           1     -19.372  -9.067  -4.788  0.00  0.00    -0.646 OA
HETATM   18  O           1     -19.839  -7.328  -5.989  0.00  0.00    -0.646 OA
ENDBRANCH   7  16
TORSDOF 5
ENDMDL
MODEL 9
REMARK VINA RESULT:      -3.9      6.749      8.426
REMARK  5 active torsions:
REMARK  status: ('A' for Active; 'I' for Inactive)
REMARK    1  A    between atoms: N_3  and  C_6 
REMARK    2  A    between atoms: S_4  and  C_5 
REMARK    3  A    between atoms: C_5  and  C_6 
REMARK    4  A    between atoms: C_6  and  C_7 
REMARK       I    between atoms: C_7  and  N_8 
REMARK    5  A    between atoms: C_14  and  C_18 
ROOT
HETATM    1  C           1     -19.971  -5.775  -7.306  0.00  0.00     0.127 C 
HETATM    2  O           1     -23.293  -4.843  -6.238  0.00  0.00    -0.271 OA
HETATM    3  C           1     -22.262  -5.471  -6.258  0.00  0.00     0.252 C 
HETATM    4  N           1     -21.272  -5.133  -7.141  0.00  0.00    -0.336 N 
HETATM    5  C           1     -19.884  -3.478  -8.050  0.00  0.00     0.038 C 
HETATM    6  C           1     -19.016  -4.611  -7.517  0.00  0.00     0.022 C 
HETATM    7  C           1     -21.287  -4.054  -8.124  0.00  0.00     0.188 C 
ENDROOT
BRANCH   3   8
HETATM    8  C           1     -22.064  -6.628  -5.309  0.00  0.00     0.283 C 
BRANCH   8   9
HETATM    9  N           1     -21.331  -7.731  -6.013  0.00  0.00    -0.066 N 
HETATM   10  H           1     -22.013  -8.332  -6.526  0.00  0.00     0.275 HD
HETATM   11  H           1     -20.651  -7.319  -6.692  0.00  0.00     0.275 HD
HETATM   12  H           1     -20.816  -8.309  -5.310  0.00  0.00     0.275 HD
ENDBRANCH   8   9
BRANCH   8  13
HETATM   13  C           1     -21.254  -6.167  -4.106  0.00  0.00     0.113 C 
BRANCH  13  14
HETATM   14  S           1     -21.132  -7.520  -2.903  0.00  0.00    -0.180 SA
HETATM   15  H           1     -20.102  -8.147  -3.500  0.00  0.00     0.101 HD
ENDBRANCH  13  14
ENDBRANCH   8  13
ENDBRANCH   3   8
BRANCH   7  16
HETATM   16  C           1     -21.577  -4.589  -9.505  0.00  0.00     0.196 C 
HETATM   17  O           1     -22.704  -5.060  -9.769  0.00  0.00    -0.646 OA
HETATM   18  O           1     -20.689  -4.561 -10.385  0.00  0.00    -0.646 OA
ENDBRANCH   7  16
TORSDOF 5
ENDMDL
