MODEL 1
REMARK VINA RESULT:      -9.3      0.000      0.000
REMARK  11 active torsions:
REMARK  status: ('A' for Active; 'I' for Inactive)
REMARK    1  A    between atoms: C_4  and  C_6 
REMARK    2  A    between atoms: C_6  and  C_7 
REMARK    3  A    between atoms: C_6  and  N_14 
REMARK    4  A    between atoms: C_7  and  C_8 
REMARK       I    between atoms: N_14  and  C_15 
REMARK    5  A    between atoms: C_15  and  C_16 
REMARK    6  A    between atoms: C_16  and  C_17 
REMARK    7  A    between atoms: C_16  and  N_27 
REMARK    8  A    between atoms: C_17  and  C_18 
REMARK    9  A    between atoms: C_21  and  O_22 
REMARK   10  A    between atoms: O_22  and  P_23 
REMARK   11  A    between atoms: P_23  and  O_24 
ROOT
HETATM    1  C           1     -20.858  -5.069  -6.379  0.00  0.00     0.278 C 
ENDROOT
BRANCH   1   2
HETATM    2  C           1     -20.212  -6.400  -6.679  0.00  0.00     0.249 C 
HETATM    3  N           1     -20.745  -7.551  -6.165  0.00  0.00    -0.344 N 
HETATM    4  H           1     -21.447  -8.061  -6.686  0.00  0.00     0.163 HD
HETATM    5  O           1     -19.224  -6.449  -7.374  0.00  0.00    -0.271 OA
BRANCH   3   6
HETATM    6  C           1     -20.305  -8.039  -4.872  0.00  0.00     0.189 C 
BRANCH   6   7
HETATM    7  C           1     -19.098  -8.927  -5.056  0.00  0.00     0.197 C 
HETATM    8  O           1     -18.293  -9.091  -4.114  0.00  0.00    -0.646 OA
HETATM    9  O           1     -18.903  -9.498  -6.151  0.00  0.00    -0.646 OA
ENDBRANCH   6   7
BRANCH   6  10
HETATM   10  C           1     -21.427  -8.835  -4.221  0.00  0.00     0.074 C 
BRANCH  10  11
HETATM   11  C           1     -21.734  -8.256  -2.874  0.00  0.00    -0.056 A 
HETATM   12  C           1     -21.893  -6.878  -2.728  0.00  0.00     0.007 A 
HETATM   13  C           1     -22.179  -6.338  -1.473  0.00  0.00     0.001 A 
HETATM   14  C           1     -22.306  -7.177  -0.366  0.00  0.00     0.000 A 
HETATM   15  C           1     -22.146  -8.555  -0.513  0.00  0.00     0.001 A 
HETATM   16  C           1     -21.860  -9.095  -1.767  0.00  0.00     0.007 A 
ENDBRANCH  10  11
ENDBRANCH   6  10
ENDBRANCH   3   6
ENDBRANCH   1   2
BRANCH   1  17
HETATM   17  C           1     -20.424  -4.047  -7.423  0.00  0.00     0.081 C 
BRANCH  17  18
HETATM   18  C           1     -21.262  -4.207  -8.654  0.00  0.00    -0.056 A 
HETATM   19  C           1     -22.653  -4.203  -8.556  0.00  0.00     0.010 A 
HETATM   20  C           1     -23.434  -4.351  -9.702  0.00  0.00     0.038 A 
HETATM   21  C           1     -22.822  -4.502 -10.947  0.00  0.00     0.081 A 
HETATM   22  C           1     -21.431  -4.505 -11.045  0.00  0.00     0.038 A 
HETATM   23  C           1     -20.651  -4.357  -9.898  0.00  0.00     0.010 A 
BRANCH  21  24
HETATM   24  O           1     -23.580  -4.646 -12.061  0.00  0.00    -0.247 OA
BRANCH  24  25
HETATM   25  P           1     -23.940  -3.321 -12.911  0.00  0.00     0.411 P 
HETATM   26  O           1     -25.334  -2.916 -12.628  0.00  0.00    -0.624 OA
HETATM   27  O           1     -23.020  -2.226 -12.529  0.00  0.00    -0.624 OA
BRANCH  25  28
HETATM   28  O           1     -23.780  -3.632 -14.488  0.00  0.00    -0.300 OA
HETATM   29  H           1     -24.625  -3.941 -14.762  0.00  0.00     0.223 HD
ENDBRANCH  25  28
ENDBRANCH  24  25
ENDBRANCH  21  24
ENDBRANCH  17  18
ENDBRANCH   1  17
BRANCH   1  30
HETATM   30  N           1     -20.432  -4.604  -5.018  0.00  0.00    -0.066 N 
HETATM   31  H           1     -19.821  -3.762  -5.113  0.00  0.00     0.275 HD
HETATM   32  H           1     -21.277  -4.359  -4.454  0.00  0.00     0.275 HD
HETATM   33  H           1     -19.902  -5.367  -4.540  0.00  0.00     0.275 HD
ENDBRANCH   1  30
TORSDOF 11
ENDMDL
MODEL 2
REMARK VINA RESULT:      -8.6      1.386      1.910
REMARK  11 active torsions:
REMARK  status: ('A' for Active; 'I' for Inactive)
REMARK    1  A    between atoms: C_4  and  C_6 
REMARK    2  A    between atoms: C_6  and  C_7 
REMARK    3  A    between atoms: C_6  and  N_14 
REMARK    4  A    between atoms: C_7  and  C_8 
REMARK       I    between atoms: N_14  and  C_15 
REMARK    5  A    between atoms: C_15  and  C_16 
REMARK    6  A    between atoms: C_16  and  C_17 
REMARK    7  A    between atoms: C_16  and  N_27 
REMARK    8  A    between atoms: C_17  and  C_18 
REMARK    9  A    between atoms: C_21  and  O_22 
REMARK   10  A    between atoms: O_22  and  P_23 
REMARK   11  A    between atoms: P_23  and  O_24 
ROOT
HETATM    1  C           1     -21.298  -6.240  -5.572  0.00  0.00     0.278 C 
ENDROOT
BRANCH   1   2
HETATM    2  C           1     -20.526  -7.536  -5.632  0.00  0.00     0.249 C 
HETATM    3  N           1     -20.976  -8.633  -4.948  0.00  0.00    -0.344 N 
HETATM    4  H           1     -21.609  -9.284  -5.395  0.00  0.00     0.163 HD
HETATM    5  O           1     -19.511  -7.605  -6.284  0.00  0.00    -0.271 OA
BRANCH   3   6
HETATM    6  C           1     -20.546  -8.862  -3.582  0.00  0.00     0.189 C 
BRANCH   6   7
HETATM    7  C           1     -19.283  -9.688  -3.585  0.00  0.00     0.197 C 
HETATM    8  O           1     -19.284 -10.830  -4.093  0.00  0.00    -0.646 OA
HETATM    9  O           1     -18.235  -9.230  -3.080  0.00  0.00    -0.646 OA
ENDBRANCH   6   7
BRANCH   6  10
HETATM   10  C           1     -21.637  -9.604  -2.824  0.00  0.00     0.074 C 
BRANCH  10  11
HETATM   11  C           1     -21.599  -9.211  -1.379  0.00  0.00    -0.056 A 
HETATM   12  C           1     -22.120  -7.982  -0.977  0.00  0.00     0.007 A 
HETATM   13  C           1     -22.083  -7.615   0.369  0.00  0.00     0.001 A 
HETATM   14  C           1     -21.526  -8.478   1.312  0.00  0.00     0.000 A 
HETATM   15  C           1     -21.005  -9.708   0.909  0.00  0.00     0.001 A 
HETATM   16  C           1     -21.041 -10.074  -0.436  0.00  0.00     0.007 A 
ENDBRANCH  10  11
ENDBRANCH   6  10
ENDBRANCH   3   6
ENDBRANCH   1   2
BRANCH   1  17
HETATM   17  C           1     -20.417  -5.101  -6.066  0.00  0.00     0.081 C 
BRANCH  17  18
HETATM   18  C           1     -20.928  -4.612  -7.386  0.00  0.00    -0.056 A 
HETATM   19  C           1     -22.206  -4.059  -7.478  0.00  0.00     0.010 A 
HETATM   20  C           1     -22.682  -3.603  -8.706  0.00  0.00     0.038 A 
HETATM   21  C           1     -21.881  -3.699  -9.844  0.00  0.00     0.081 A 
HETATM   22  C           1     -20.603  -4.251  -9.752  0.00  0.00     0.038 A 
HETATM   23  C           1     -20.127  -4.707  -8.523  0.00  0.00     0.010 A 
BRANCH  21  24
HETATM   24  O           1     -22.344  -3.257 -11.038  0.00  0.00    -0.247 OA
BRANCH  24  25
HETATM   25  P           1     -23.673  -3.949 -11.639  0.00  0.00     0.411 P 
HETATM   26  O           1     -23.797  -5.324 -11.107  0.00  0.00    -0.624 OA
HETATM   27  O           1     -24.861  -3.159 -11.248  0.00  0.00    -0.624 OA
BRANCH  25  28
HETATM   28  O           1     -23.570  -4.004 -13.250  0.00  0.00    -0.300 OA
HETATM   29  H           1     -23.314  -3.136 -13.508  0.00  0.00     0.223 HD
ENDBRANCH  25  28
ENDBRANCH  24  25
ENDBRANCH  21  24
ENDBRANCH  17  18
ENDBRANCH   1  17
BRANCH   1  30
HETATM   30  N           1     -21.713  -5.972  -4.155  0.00  0.00    -0.066 N 
HETATM   31  H           1     -21.912  -6.878  -3.673  0.00  0.00     0.275 HD
HETATM   32  H           1     -20.944  -5.473  -3.656  0.00  0.00     0.275 HD
HETATM   33  H           1     -22.575  -5.380  -4.151  0.00  0.00     0.275 HD
ENDBRANCH   1  30
TORSDOF 11
ENDMDL
MODEL 3
REMARK VINA RESULT:      -8.5      1.617      2.450
REMARK  11 active torsions:
REMARK  status: ('A' for Active; 'I' for Inactive)
REMARK    1  A    between atoms: C_4  and  C_6 
REMARK    2  A    between atoms: C_6  and  C_7 
REMARK    3  A    between atoms: C_6  and  N_14 
REMARK    4  A    between atoms: C_7  and  C_8 
REMARK       I    between atoms: N_14  and  C_15 
REMARK    5  A    between atoms: C_15  and  C_16 
REMARK    6  A    between atoms: C_16  and  C_17 
REMARK    7  A    between atoms: C_16  and  N_27 
REMARK    8  A    between atoms: C_17  and  C_18 
REMARK    9  A    between atoms: C_21  and  O_22 
REMARK   10  A    between atoms: O_22  and  P_23 
REMARK   11  A    between atoms: P_23  and  O_24 
ROOT
HETATM    1  C           1     -21.569  -6.497  -5.063  0.00  0.00     0.278 C 
ENDROOT
BRANCH   1   2
HETATM    2  C           1     -21.444  -8.001  -5.098  0.00  0.00     0.249 C 
HETATM    3  N           1     -21.339  -8.706  -3.929  0.00  0.00    -0.344 N 
HETATM    4  H           1     -22.173  -9.040  -3.463  0.00  0.00     0.163 HD
HETATM    5  O           1     -21.437  -8.582  -6.157  0.00  0.00    -0.271 OA
BRANCH   3   6
HETATM    6  C           1     -20.033  -8.974  -3.359  0.00  0.00     0.189 C 
BRANCH   6   7
HETATM    7  C           1     -19.172  -9.673  -4.383  0.00  0.00     0.197 C 
HETATM    8  O           1     -18.223  -9.063  -4.922  0.00  0.00    -0.646 OA
HETATM    9  O           1     -19.408 -10.861  -4.691  0.00  0.00    -0.646 OA
ENDBRANCH   6   7
BRANCH   6  10
HETATM   10  C           1     -20.187  -9.862  -2.132  0.00  0.00     0.074 C 
BRANCH  10  11
HETATM   11  C           1     -21.256  -9.305  -1.243  0.00  0.00    -0.056 A 
HETATM   12  C           1     -22.353 -10.092  -0.896  0.00  0.00     0.007 A 
HETATM   13  C           1     -23.349  -9.572  -0.067  0.00  0.00     0.001 A 
HETATM   14  C           1     -23.245  -8.267   0.415  0.00  0.00     0.000 A 
HETATM   15  C           1     -22.147  -7.481   0.066  0.00  0.00     0.001 A 
HETATM   16  C           1     -21.152  -8.000  -0.762  0.00  0.00     0.007 A 
ENDBRANCH  10  11
ENDBRANCH   6  10
ENDBRANCH   3   6
ENDBRANCH   1   2
BRANCH   1  17
HETATM   17  C           1     -20.414  -5.873  -5.834  0.00  0.00     0.081 C 
BRANCH  17  18
HETATM   18  C           1     -20.941  -5.201  -7.065  0.00  0.00    -0.056 A 
HETATM   19  C           1     -20.154  -5.135  -8.214  0.00  0.00     0.010 A 
HETATM   20  C           1     -20.645  -4.511  -9.361  0.00  0.00     0.038 A 
HETATM   21  C           1     -21.923  -3.952  -9.357  0.00  0.00     0.081 A 
HETATM   22  C           1     -22.710  -4.018  -8.208  0.00  0.00     0.038 A 
HETATM   23  C           1     -22.219  -4.643  -7.062  0.00  0.00     0.010 A 
BRANCH  21  24
HETATM   24  O           1     -22.399  -3.344 -10.471  0.00  0.00    -0.247 OA
BRANCH  24  25
HETATM   25  P           1     -23.666  -4.012 -11.216  0.00  0.00     0.411 P 
HETATM   26  O           1     -23.862  -5.391 -10.717  0.00  0.00    -0.624 OA
HETATM   27  O           1     -24.879  -3.210 -10.942  0.00  0.00    -0.624 OA
BRANCH  25  28
HETATM   28  O           1     -23.396  -4.051 -12.808  0.00  0.00    -0.300 OA
HETATM   29  H           1     -23.054  -4.911 -12.977  0.00  0.00     0.223 HD
ENDBRANCH  25  28
ENDBRANCH  24  25
ENDBRANCH  21  24
ENDBRANCH  17  18
ENDBRANCH   1  17
BRANCH   1  30
HETATM   30  N           1     -21.531  -6.027  -3.639  0.00  0.00    -0.066 N 
HETATM   31  H           1     -22.007  -6.728  -3.028  0.00  0.00     0.275 HD
HETATM   32  H           1     -20.538  -5.917  -3.335  0.00  0.00     0.275 HD
HETATM   33  H           1     -22.024  -5.107  -3.563  0.00  0.00     0.275 HD
ENDBRANCH   1  30
TORSDOF 11
ENDMDL
MODEL 4
REMARK VINA RESULT:      -7.9      2.359      3.579
REMARK  11 active torsions:
REMARK  status: ('A' for Active; 'I' for Inactive)
REMARK    1  A    between atoms: C_4  and  C_6 
REMARK    2  A    between atoms: C_6  and  C_7 
REMARK    3  A    between atoms: C_6  and  N_14 
REMARK    4  A    between atoms: C_7  and  C_8 
REMARK       I    between atoms: N_14  and  C_15 
REMARK    5  A    between atoms: C_15  and  C_16 
REMARK    6  A    between atoms: C_16  and  C_17 
REMARK    7  A    between atoms: C_16  and  N_27 
REMARK    8  A    between atoms: C_17  and  C_18 
REMARK    9  A    between atoms: C_21  and  O_22 
REMARK   10  A    between atoms: O_22  and  P_23 
REMARK   11  A    between atoms: P_23  and  O_24 
ROOT
HETATM    1  C           1     -20.626  -6.092  -5.379  0.00  0.00     0.278 C 
ENDROOT
BRANCH   1   2
HETATM    2  C           1     -21.800  -6.240  -4.442  0.00  0.00     0.249 C 
HETATM    3  N           1     -21.590  -6.361  -3.095  0.00  0.00    -0.344 N 
HETATM    4  H           1     -21.553  -5.535  -2.512  0.00  0.00     0.163 HD
HETATM    5  O           1     -22.926  -6.249  -4.881  0.00  0.00    -0.271 OA
BRANCH   3   6
HETATM    6  C           1     -21.419  -7.675  -2.504  0.00  0.00     0.189 C 
BRANCH   6   7
HETATM    7  C           1     -22.168  -7.737  -1.195  0.00  0.00     0.197 C 
HETATM    8  O           1     -22.260  -8.820  -0.578  0.00  0.00    -0.646 OA
HETATM    9  O           1     -22.697  -6.705  -0.729  0.00  0.00    -0.646 OA
ENDBRANCH   6   7
BRANCH   6  10
HETATM   10  C           1     -19.939  -7.931  -2.256  0.00  0.00     0.074 C 
BRANCH  10  11
HETATM   11  C           1     -19.519  -9.173  -2.981  0.00  0.00    -0.056 A 
HETATM   12  C           1     -19.800 -10.426  -2.437  0.00  0.00     0.007 A 
HETATM   13  C           1     -19.408 -11.583  -3.112  0.00  0.00     0.001 A 
HETATM   14  C           1     -18.736 -11.485  -4.330  0.00  0.00     0.000 A 
HETATM   15  C           1     -18.456 -10.232  -4.873  0.00  0.00     0.001 A 
HETATM   16  C           1     -18.847  -9.075  -4.199  0.00  0.00     0.007 A 
ENDBRANCH  10  11
ENDBRANCH   6  10
ENDBRANCH   3   6
ENDBRANCH   1   2
BRANCH   1  17
HETATM   17  C           1     -20.574  -4.665  -5.907  0.00  0.00     0.081 C 
BRANCH  17  18
HETATM   18  C           1     -20.975  -4.651  -7.350  0.00  0.00    -0.056 A 
HETATM   19  C           1     -22.313  -4.471  -7.700  0.00  0.00     0.010 A 
HETATM   20  C           1     -22.687  -4.458  -9.043  0.00  0.00     0.038 A 
HETATM   21  C           1     -21.722  -4.625 -10.037  0.00  0.00     0.081 A 
HETATM   22  C           1     -20.384  -4.805  -9.687  0.00  0.00     0.038 A 
HETATM   23  C           1     -20.011  -4.818  -8.343  0.00  0.00     0.010 A 
BRANCH  21  24
HETATM   24  O           1     -22.085  -4.614 -11.342  0.00  0.00    -0.247 OA
BRANCH  24  25
HETATM   25  P           1     -22.337  -3.183 -12.047  0.00  0.00     0.411 P 
HETATM   26  O           1     -23.699  -2.705 -11.720  0.00  0.00    -0.624 OA
HETATM   27  O           1     -21.339  -2.208 -11.554  0.00  0.00    -0.624 OA
BRANCH  25  28
HETATM   28  O           1     -22.192  -3.337 -13.648  0.00  0.00    -0.300 OA
HETATM   29  H           1     -22.310  -2.468 -13.989  0.00  0.00     0.223 HD
ENDBRANCH  25  28
ENDBRANCH  24  25
ENDBRANCH  21  24
ENDBRANCH  17  18
ENDBRANCH   1  17
BRANCH   1  30
HETATM   30  N           1     -20.783  -7.044  -6.528  0.00  0.00    -0.066 N 
HETATM   31  H           1     -20.096  -7.825  -6.430  0.00  0.00     0.275 HD
HETATM   32  H           1     -21.753  -7.431  -6.529  0.00  0.00     0.275 HD
HETATM   33  H           1     -20.607  -6.538  -7.426  0.00  0.00     0.275 HD
ENDBRANCH   1  30
TORSDOF 11
ENDMDL
MODEL 5
REMARK VINA RESULT:      -7.8      6.016      8.101
REMARK  11 active torsions:
REMARK  status: ('A' for Active; 'I' for Inactive)
REMARK    1  A    between atoms: C_4  and  C_6 
REMARK    2  A    between atoms: C_6  and  C_7 
REMARK    3  A    between atoms: C_6  and  N_14 
REMARK    4  A    between atoms: C_7  and  C_8 
REMARK       I    between atoms: N_14  and  C_15 
REMARK    5  A    between atoms: C_15  and  C_16 
REMARK    6  A    between atoms: C_16  and  C_17 
REMARK    7  A    between atoms: C_16  and  N_27 
REMARK    8  A    between atoms: C_17  and  C_18 
REMARK    9  A    between atoms: C_21  and  O_22 
REMARK   10  A    between atoms: O_22  and  P_23 
REMARK   11  A    between atoms: P_23  and  O_24 
ROOT
HETATM    1  C           1     -18.701 -12.094  -0.981  0.00  0.00     0.278 C 
ENDROOT
BRANCH   1   2
HETATM    2  C           1     -19.262 -13.215  -0.141  0.00  0.00     0.249 C 
HETATM    3  N           1     -20.606 -13.479  -0.159  0.00  0.00    -0.344 N 
HETATM    4  H           1     -20.984 -14.133  -0.832  0.00  0.00     0.163 HD
HETATM    5  O           1     -18.525 -13.882   0.547  0.00  0.00    -0.271 OA
BRANCH   3   6
HETATM    6  C           1     -21.487 -12.819   0.785  0.00  0.00     0.189 C 
BRANCH   6   7
HETATM    7  C           1     -22.159 -13.855   1.653  0.00  0.00     0.197 C 
HETATM    8  O           1     -21.553 -14.905   1.956  0.00  0.00    -0.646 OA
HETATM    9  O           1     -23.322 -13.661   2.069  0.00  0.00    -0.646 OA
ENDBRANCH   6   7
BRANCH   6  10
HETATM   10  C           1     -22.543 -12.028   0.026  0.00  0.00     0.074 C 
BRANCH  10  11
HETATM   11  C           1     -22.345 -10.564   0.274  0.00  0.00    -0.056 A 
HETATM   12  C           1     -21.168 -10.110   0.866  0.00  0.00     0.007 A 
HETATM   13  C           1     -20.983  -8.746   1.097  0.00  0.00     0.001 A 
HETATM   14  C           1     -21.978  -7.837   0.735  0.00  0.00     0.000 A 
HETATM   15  C           1     -23.156  -8.292   0.143  0.00  0.00     0.001 A 
HETATM   16  C           1     -23.340  -9.655  -0.088  0.00  0.00     0.007 A 
ENDBRANCH  10  11
ENDBRANCH   6  10
ENDBRANCH   3   6
ENDBRANCH   1   2
BRANCH   1  17
HETATM   17  C           1     -19.337 -12.128  -2.364  0.00  0.00     0.081 C 
BRANCH  17  18
HETATM   18  C           1     -20.017 -10.821  -2.633  0.00  0.00    -0.056 A 
HETATM   19  C           1     -21.277 -10.801  -3.229  0.00  0.00     0.010 A 
HETATM   20  C           1     -21.911  -9.584  -3.480  0.00  0.00     0.038 A 
HETATM   21  C           1     -21.283  -8.387  -3.134  0.00  0.00     0.081 A 
HETATM   22  C           1     -20.022  -8.408  -2.538  0.00  0.00     0.038 A 
HETATM   23  C           1     -19.389  -9.625  -2.288  0.00  0.00     0.010 A 
BRANCH  21  24
HETATM   24  O           1     -21.898  -7.205  -3.378  0.00  0.00    -0.247 OA
BRANCH  24  25
HETATM   25  P           1     -21.702  -6.535  -4.834  0.00  0.00     0.411 P 
HETATM   26  O           1     -22.999  -6.007  -5.312  0.00  0.00    -0.624 OA
HETATM   27  O           1     -20.723  -5.429  -4.741  0.00  0.00    -0.624 OA
BRANCH  25  28
HETATM   28  O           1     -21.160  -7.647  -5.872  0.00  0.00    -0.300 OA
HETATM   29  H           1     -21.116  -7.206  -6.702  0.00  0.00     0.223 HD
ENDBRANCH  25  28
ENDBRANCH  24  25
ENDBRANCH  21  24
ENDBRANCH  17  18
ENDBRANCH   1  17
BRANCH   1  30
HETATM   30  N           1     -17.216 -12.262  -1.109  0.00  0.00    -0.066 N 
HETATM   31  H           1     -16.916 -13.115  -0.585  0.00  0.00     0.275 HD
HETATM   32  H           1     -16.964 -12.366  -2.117  0.00  0.00     0.275 HD
HETATM   33  H           1     -16.735 -11.422  -0.713  0.00  0.00     0.275 HD
ENDBRANCH   1  30
TORSDOF 11
ENDMDL
MODEL 6
REMARK VINA RESULT:      -7.6      4.201      6.174
REMARK  11 active torsions:
REMARK  status: ('A' for Active; 'I' for Inactive)
REMARK    1  A    between atoms: C_4  and  C_6 
REMARK    2  A    between atoms: C_6  and  C_7 
REMARK    3  A    between atoms: C_6  and  N_14 
REMARK    4  A    between atoms: C_7  and  C_8 
REMARK       I    between atoms: N_14  and  C_15 
REMARK    5  A    between atoms: C_15  and  C_16 
REMARK    6  A    between atoms: C_16  and  C_17 
REMARK    7  A    between atoms: C_16  and  N_27 
REMARK    8  A    between atoms: C_17  and  C_18 
REMARK    9  A    between atoms: C_21  and  O_22 
REMARK   10  A    between atoms: O_22  and  P_23 
REMARK   11  A    between atoms: P_23  and  O_24 
ROOT
HETATM    1  C           1     -20.016 -10.720  -3.366  0.00  0.00     0.278 C 
ENDROOT
BRANCH   1   2
HETATM    2  C           1     -19.014 -11.645  -2.718  0.00  0.00     0.249 C 
HETATM    3  N           1     -19.380 -12.400  -1.636  0.00  0.00    -0.344 N 
HETATM    4  H           1     -19.766 -13.326  -1.772  0.00  0.00     0.163 HD
HETATM    5  O           1     -17.890 -11.720  -3.155  0.00  0.00    -0.271 OA
BRANCH   3   6
HETATM    6  C           1     -19.214 -11.873  -0.295  0.00  0.00     0.189 C 
BRANCH   6   7
HETATM    7  C           1     -18.084 -12.599   0.393  0.00  0.00     0.197 C 
HETATM    8  O           1     -17.030 -11.989   0.677  0.00  0.00    -0.646 OA
HETATM    9  O           1     -18.202 -13.810   0.679  0.00  0.00    -0.646 OA
ENDBRANCH   6   7
BRANCH   6  10
HETATM   10  C           1     -20.501 -12.074   0.492  0.00  0.00     0.074 C 
BRANCH  10  11
HETATM   11  C           1     -21.312 -10.815   0.453  0.00  0.00    -0.056 A 
HETATM   12  C           1     -20.792  -9.635   0.983  0.00  0.00     0.007 A 
HETATM   13  C           1     -21.547  -8.462   0.948  0.00  0.00     0.001 A 
HETATM   14  C           1     -22.822  -8.470   0.382  0.00  0.00     0.000 A 
HETATM   15  C           1     -23.342  -9.652  -0.147  0.00  0.00     0.001 A 
HETATM   16  C           1     -22.587 -10.824  -0.111  0.00  0.00     0.007 A 
ENDBRANCH  10  11
ENDBRANCH   6  10
ENDBRANCH   3   6
ENDBRANCH   1   2
BRANCH   1  17
HETATM   17  C           1     -20.065  -9.406  -2.597  0.00  0.00     0.081 C 
BRANCH  17  18
HETATM   18  C           1     -20.647  -8.338  -3.471  0.00  0.00    -0.056 A 
HETATM   19  C           1     -20.684  -8.513  -4.854  0.00  0.00     0.010 A 
HETATM   20  C           1     -21.227  -7.519  -5.668  0.00  0.00     0.038 A 
HETATM   21  C           1     -21.731  -6.350  -5.099  0.00  0.00     0.081 A 
HETATM   22  C           1     -21.694  -6.175  -3.715  0.00  0.00     0.038 A 
HETATM   23  C           1     -21.151  -7.170  -2.901  0.00  0.00     0.010 A 
BRANCH  21  24
HETATM   24  O           1     -22.257  -5.384  -5.890  0.00  0.00    -0.247 OA
BRANCH  24  25
HETATM   25  P           1     -21.268  -4.617  -6.910  0.00  0.00     0.411 P 
HETATM   26  O           1     -19.927  -4.493  -6.297  0.00  0.00    -0.624 OA
HETATM   27  O           1     -21.166  -5.387  -8.170  0.00  0.00    -0.624 OA
BRANCH  25  28
HETATM   28  O           1     -21.854  -3.145  -7.225  0.00  0.00    -0.300 OA
HETATM   29  H           1     -21.253  -2.772  -7.846  0.00  0.00     0.223 HD
ENDBRANCH  25  28
ENDBRANCH  24  25
ENDBRANCH  21  24
ENDBRANCH  17  18
ENDBRANCH   1  17
BRANCH   1  30
HETATM   30  N           1     -21.372 -11.361  -3.346  0.00  0.00    -0.066 N 
HETATM   31  H           1     -21.524 -11.827  -2.424  0.00  0.00     0.275 HD
HETATM   32  H           1     -22.104 -10.631  -3.493  0.00  0.00     0.275 HD
HETATM   33  H           1     -21.430 -12.073  -4.110  0.00  0.00     0.275 HD
ENDBRANCH   1  30
TORSDOF 11
ENDMDL
MODEL 7
REMARK VINA RESULT:      -7.3      6.085      9.845
REMARK  11 active torsions:
REMARK  status: ('A' for Active; 'I' for Inactive)
REMARK    1  A    between atoms: C_4  and  C_6 
REMARK    2  A    between atoms: C_6  and  C_7 
REMARK    3  A    between atoms: C_6  and  N_14 
REMARK    4  A    between atoms: C_7  and  C_8 
REMARK       I    between atoms: N_14  and  C_15 
REMARK    5  A    between atoms: C_15  and  C_16 
REMARK    6  A    between atoms: C_16  and  C_17 
REMARK    7  A    between atoms: C_16  and  N_27 
REMARK    8  A    between atoms: C_17  and  C_18 
REMARK    9  A    between atoms: C_21  and  O_22 
REMARK   10  A    between atoms: O_22  and  P_23 
REMARK   11  A    between atoms: P_23  and  O_24 
ROOT
HETATM    1  C           1     -19.885  -9.835  -4.891  0.00  0.00     0.278 C 
ENDROOT
BRANCH   1   2
HETATM    2  C           1     -20.578  -8.494  -4.861  0.00  0.00     0.249 C 
HETATM    3  N           1     -20.564  -7.741  -3.717  0.00  0.00    -0.344 N 
HETATM    4  H           1     -19.819  -7.075  -3.558  0.00  0.00     0.163 HD
HETATM    5  O           1     -21.144  -8.084  -5.847  0.00  0.00    -0.271 OA
BRANCH   3   6
HETATM    6  C           1     -21.618  -7.900  -2.733  0.00  0.00     0.189 C 
BRANCH   6   7
HETATM    7  C           1     -21.981  -6.549  -2.165  0.00  0.00     0.197 C 
HETATM    8  O           1     -21.646  -5.507  -2.768  0.00  0.00    -0.646 OA
HETATM    9  O           1     -22.616  -6.474  -1.091  0.00  0.00    -0.646 OA
ENDBRANCH   6   7
BRANCH   6  10
HETATM   10  C           1     -21.133  -8.810  -1.613  0.00  0.00     0.074 C 
BRANCH  10  11
HETATM   11  C           1     -22.138  -9.895  -1.381  0.00  0.00    -0.056 A 
HETATM   12  C           1     -22.244 -10.952  -2.285  0.00  0.00     0.007 A 
HETATM   13  C           1     -23.181 -11.963  -2.069  0.00  0.00     0.001 A 
HETATM   14  C           1     -24.010 -11.918  -0.949  0.00  0.00     0.000 A 
HETATM   15  C           1     -23.904 -10.860  -0.045  0.00  0.00     0.001 A 
HETATM   16  C           1     -22.968  -9.849  -0.261  0.00  0.00     0.007 A 
ENDBRANCH  10  11
ENDBRANCH   6  10
ENDBRANCH   3   6
ENDBRANCH   1   2
BRANCH   1  17
HETATM   17  C           1     -18.378  -9.626  -4.964  0.00  0.00     0.081 C 
BRANCH  17  18
HETATM   18  C           1     -17.736 -10.191  -3.735  0.00  0.00    -0.056 A 
HETATM   19  C           1     -18.467 -11.023  -2.887  0.00  0.00     0.010 A 
HETATM   20  C           1     -17.870 -11.551  -1.742  0.00  0.00     0.038 A 
HETATM   21  C           1     -16.541 -11.246  -1.446  0.00  0.00     0.081 A 
HETATM   22  C           1     -15.810 -10.414  -2.294  0.00  0.00     0.038 A 
HETATM   23  C           1     -16.408  -9.887  -3.439  0.00  0.00     0.010 A 
BRANCH  21  24
HETATM   24  O           1     -15.961 -11.757  -0.334  0.00  0.00    -0.247 OA
BRANCH  24  25
HETATM   25  P           1     -15.459 -13.291  -0.377  0.00  0.00     0.411 P 
HETATM   26  O           1     -14.234 -13.433   0.441  0.00  0.00    -0.624 OA
HETATM   27  O           1     -16.518 -14.172   0.163  0.00  0.00    -0.624 OA
BRANCH  25  28
HETATM   28  O           1     -15.137 -13.711  -1.903  0.00  0.00    -0.300 OA
HETATM   29  H           1     -14.808 -12.927  -2.307  0.00  0.00     0.223 HD
ENDBRANCH  25  28
ENDBRANCH  24  25
ENDBRANCH  21  24
ENDBRANCH  17  18
ENDBRANCH   1  17
BRANCH   1  30
HETATM   30  N           1     -20.342 -10.605  -6.094  0.00  0.00    -0.066 N 
HETATM   31  H           1     -20.641 -11.562  -5.802  0.00  0.00     0.275 HD
HETATM   32  H           1     -21.146 -10.109  -6.540  0.00  0.00     0.275 HD
HETATM   33  H           1     -19.555 -10.680  -6.779  0.00  0.00     0.275 HD
ENDBRANCH   1  30
TORSDOF 11
ENDMDL
MODEL 8
REMARK VINA RESULT:      -7.2      6.098      9.834
REMARK  11 active torsions:
REMARK  status: ('A' for Active; 'I' for Inactive)
REMARK    1  A    between atoms: C_4  and  C_6 
REMARK    2  A    between atoms: C_6  and  C_7 
REMARK    3  A    between atoms: C_6  and  N_14 
REMARK    4  A    between atoms: C_7  and  C_8 
REMARK       I    between atoms: N_14  and  C_15 
REMARK    5  A    between atoms: C_15  and  C_16 
REMARK    6  A    between atoms: C_16  and  C_17 
REMARK    7  A    between atoms: C_16  and  N_27 
REMARK    8  A    between atoms: C_17  and  C_18 
REMARK    9  A    between atoms: C_21  and  O_22 
REMARK   10  A    between atoms: O_22  and  P_23 
REMARK   11  A    between atoms: P_23  and  O_24 
ROOT
HETATM    1  C           1     -19.734  -9.846  -4.911  0.00  0.00     0.278 C 
ENDROOT
BRANCH   1   2
HETATM    2  C           1     -20.278  -8.441  -4.816  0.00  0.00     0.249 C 
HETATM    3  N           1     -20.299  -7.795  -3.609  0.00  0.00    -0.344 N 
HETATM    4  H           1     -19.506  -7.236  -3.320  0.00  0.00     0.163 HD
HETATM    5  O           1     -20.693  -7.886  -5.806  0.00  0.00    -0.271 OA
BRANCH   3   6
HETATM    6  C           1     -21.457  -7.912  -2.744  0.00  0.00     0.189 C 
BRANCH   6   7
HETATM    7  C           1     -21.885  -6.538  -2.290  0.00  0.00     0.197 C 
HETATM    8  O           1     -21.567  -5.531  -2.958  0.00  0.00    -0.646 OA
HETATM    9  O           1     -22.559  -6.408  -1.244  0.00  0.00    -0.646 OA
ENDBRANCH   6   7
BRANCH   6  10
HETATM   10  C           1     -21.102  -8.762  -1.532  0.00  0.00     0.074 C 
BRANCH  10  11
HETATM   11  C           1     -22.139  -9.826  -1.347  0.00  0.00    -0.056 A 
HETATM   12  C           1     -22.984  -9.789  -0.239  0.00  0.00     0.007 A 
HETATM   13  C           1     -23.950 -10.782  -0.065  0.00  0.00     0.001 A 
HETATM   14  C           1     -24.070 -11.810  -1.001  0.00  0.00     0.000 A 
HETATM   15  C           1     -23.223 -11.846  -2.108  0.00  0.00     0.001 A 
HETATM   16  C           1     -22.257 -10.855  -2.282  0.00  0.00     0.007 A 
ENDBRANCH  10  11
ENDBRANCH   6  10
ENDBRANCH   3   6
ENDBRANCH   1   2
BRANCH   1  17
HETATM   17  C           1     -18.236  -9.793  -5.182  0.00  0.00     0.081 C 
BRANCH  17  18
HETATM   18  C           1     -17.509 -10.547  -4.112  0.00  0.00    -0.056 A 
HETATM   19  C           1     -16.825  -9.855  -3.112  0.00  0.00     0.010 A 
HETATM   20  C           1     -16.148 -10.556  -2.115  0.00  0.00     0.038 A 
HETATM   21  C           1     -16.155 -11.951  -2.118  0.00  0.00     0.081 A 
HETATM   22  C           1     -16.839 -12.644  -3.117  0.00  0.00     0.038 A 
HETATM   23  C           1     -17.516 -11.942  -4.114  0.00  0.00     0.010 A 
BRANCH  21  24
HETATM   24  O           1     -15.497 -12.633  -1.150  0.00  0.00    -0.247 OA
BRANCH  24  25
HETATM   25  P           1     -16.235 -12.835   0.272  0.00  0.00     0.411 P 
HETATM   26  O           1     -17.698 -12.910   0.062  0.00  0.00    -0.624 OA
HETATM   27  O           1     -15.762 -14.089   0.900  0.00  0.00    -0.624 OA
BRANCH  25  28
HETATM   28  O           1     -15.894 -11.588   1.239  0.00  0.00    -0.300 OA
HETATM   29  H           1     -15.622 -11.976   2.052  0.00  0.00     0.223 HD
ENDBRANCH  25  28
ENDBRANCH  24  25
ENDBRANCH  21  24
ENDBRANCH  17  18
ENDBRANCH   1  17
BRANCH   1  30
HETATM   30  N           1     -20.419 -10.571  -6.031  0.00  0.00    -0.066 N 
HETATM   31  H           1     -21.150  -9.953  -6.450  0.00  0.00     0.275 HD
HETATM   32  H           1     -19.718 -10.826  -6.761  0.00  0.00     0.275 HD
HETATM   33  H           1     -20.868 -11.439  -5.660  0.00  0.00     0.275 HD
ENDBRANCH   1  30
TORSDOF 11
ENDMDL
MODEL 9
REMARK VINA RESULT:      -7.2      5.138     10.115
REMARK  11 active torsions:
REMARK  status: ('A' for Active; 'I' for Inactive)
REMARK    1  A    between atoms: C_4  and  C_6 
REMARK    2  A    between atoms: C_6  and  C_7 
REMARK    3  A    between atoms: C_6  and  N_14 
REMARK    4  A    between atoms: C_7  and  C_8 
REMARK       I    between atoms: N_14  and  C_15 
REMARK    5  A    between atoms: C_15  and  C_16 
REMARK    6  A    between atoms: C_16  and  C_17 
REMARK    7  A    between atoms: C_16  and  N_27 
REMARK    8  A    between atoms: C_17  and  C_18 
REMARK    9  A    between atoms: C_21  and  O_22 
REMARK   10  A    between atoms: O_22  and  P_23 
REMARK   11  A    between atoms: P_23  and  O_24 
ROOT
HETATM    1  C           1     -21.520  -7.963  -2.047  0.00  0.00     0.278 C 
ENDROOT
BRANCH   1   2
HETATM    2  C           1     -21.978  -6.709  -2.752  0.00  0.00     0.249 C 
HETATM    3  N           1     -22.584  -6.794  -3.976  0.00  0.00    -0.344 N 
HETATM    4  H           1     -23.590  -6.891  -4.038  0.00  0.00     0.163 HD
HETATM    5  O           1     -21.810  -5.629  -2.234  0.00  0.00    -0.271 OA
BRANCH   3   6
HETATM    6  C           1     -21.785  -6.746  -5.186  0.00  0.00     0.189 C 
BRANCH   6   7
HETATM    7  C           1     -20.886  -7.957  -5.242  0.00  0.00     0.197 C 
HETATM    8  O           1     -21.354  -9.068  -5.573  0.00  0.00    -0.646 OA
HETATM    9  O           1     -19.674  -7.848  -4.958  0.00  0.00    -0.646 OA
ENDBRANCH   6   7
BRANCH   6  10
HETATM   10  C           1     -20.937  -5.482  -5.183  0.00  0.00     0.074 C 
BRANCH  10  11
HETATM   11  C           1     -20.881  -4.914  -6.568  0.00  0.00    -0.056 A 
HETATM   12  C           1     -22.052  -4.495  -7.197  0.00  0.00     0.007 A 
HETATM   13  C           1     -22.000  -3.966  -8.488  0.00  0.00     0.001 A 
HETATM   14  C           1     -20.775  -3.858  -9.148  0.00  0.00     0.000 A 
HETATM   15  C           1     -19.604  -4.279  -8.517  0.00  0.00     0.001 A 
HETATM   16  C           1     -19.656  -4.807  -7.228  0.00  0.00     0.007 A 
ENDBRANCH  10  11
ENDBRANCH   6  10
ENDBRANCH   3   6
ENDBRANCH   1   2
BRANCH   1  17
HETATM   17  C           1     -22.143  -8.021  -0.659  0.00  0.00     0.081 C 
BRANCH  17  18
HETATM   18  C           1     -22.300  -9.451  -0.243  0.00  0.00    -0.056 A 
HETATM   19  C           1     -23.533 -10.088  -0.390  0.00  0.00     0.010 A 
HETATM   20  C           1     -23.680 -11.419  -0.003  0.00  0.00     0.038 A 
HETATM   21  C           1     -22.594 -12.114   0.531  0.00  0.00     0.081 A 
HETATM   22  C           1     -21.362 -11.477   0.678  0.00  0.00     0.038 A 
HETATM   23  C           1     -21.216 -10.145   0.291  0.00  0.00     0.010 A 
BRANCH  21  24
HETATM   24  O           1     -22.738 -13.408   0.908  0.00  0.00    -0.247 OA
BRANCH  24  25
HETATM   25  P           1     -22.856 -14.527  -0.250  0.00  0.00     0.411 P 
HETATM   26  O           1     -22.087 -14.092  -1.437  0.00  0.00    -0.624 OA
HETATM   27  O           1     -22.313 -15.811   0.247  0.00  0.00    -0.624 OA
BRANCH  25  28
HETATM   28  O           1     -24.407 -14.720  -0.657  0.00  0.00    -0.300 OA
HETATM   29  H           1     -24.413 -14.732  -1.598  0.00  0.00     0.223 HD
ENDBRANCH  25  28
ENDBRANCH  24  25
ENDBRANCH  21  24
ENDBRANCH  17  18
ENDBRANCH   1  17
BRANCH   1  30
HETATM   30  N           1     -20.025  -7.948  -1.924  0.00  0.00    -0.066 N 
HETATM   31  H           1     -19.601  -8.397  -2.767  0.00  0.00     0.275 HD
HETATM   32  H           1     -19.692  -6.960  -1.852  0.00  0.00     0.275 HD
HETATM   33  H           1     -19.741  -8.476  -1.068  0.00  0.00     0.275 HD
ENDBRANCH   1  30
TORSDOF 11
ENDMDL
