MODEL 1
REMARK VINA RESULT:      -6.7      0.000      0.000
REMARK  6 active torsions:
REMARK  status: ('A' for Active; 'I' for Inactive)
REMARK    1  A    between atoms: O_3  and  C_14 
REMARK    2  A    between atoms: C_5  and  C_18 
REMARK    3  A    between atoms: C_5  and  C_9 
REMARK    4  A    between atoms: C_5  and  N_22 
REMARK    5  A    between atoms: C_9  and  C_15 
REMARK       I    between atoms: C_18  and  N_19 
REMARK    6  A    between atoms: C_21  and  C_23 
ROOT
HETATM    1  C           1     -20.589  -5.375  -6.320  0.00  0.00     0.279 C 
ENDROOT
BRANCH   1   2
HETATM    2  C           1     -19.948  -6.732  -6.160  0.00  0.00     0.251 C 
HETATM    3  O           1     -19.098  -7.094  -6.938  0.00  0.00    -0.271 OA
HETATM    4  N           1     -20.332  -7.554  -5.135  0.00  0.00    -0.336 N 
HETATM    5  C           1     -19.515  -8.539  -4.431  0.00  0.00     0.127 C 
HETATM    6  C           1     -21.647  -7.636  -4.505  0.00  0.00     0.188 C 
HETATM    7  C           1     -20.452  -9.719  -4.241  0.00  0.00     0.022 C 
HETATM    8  C           1     -21.854  -9.126  -4.295  0.00  0.00     0.038 C 
BRANCH   6   9
HETATM    9  C           1     -21.658  -6.901  -3.187  0.00  0.00     0.196 C 
HETATM   10  O           1     -21.504  -5.661  -3.161  0.00  0.00    -0.646 OA
HETATM   11  O           1     -21.821  -7.534  -2.121  0.00  0.00    -0.646 OA
ENDBRANCH   6   9
ENDBRANCH   1   2
BRANCH   1  12
HETATM   12  C           1     -20.239  -4.806  -7.689  0.00  0.00     0.081 C 
BRANCH  12  13
HETATM   13  C           1     -21.494  -4.403  -8.398  0.00  0.00    -0.056 A 
HETATM   14  C           1     -21.445  -4.009  -9.734  0.00  0.00     0.010 A 
HETATM   15  C           1     -22.614  -3.633 -10.396  0.00  0.00     0.037 A 
HETATM   16  C           1     -23.834  -3.652  -9.719  0.00  0.00     0.065 A 
HETATM   17  C           1     -23.884  -4.045  -8.382  0.00  0.00     0.037 A 
HETATM   18  C           1     -22.714  -4.421  -7.720  0.00  0.00     0.010 A 
BRANCH  16  19
HETATM   19  O           1     -24.970  -3.286 -10.360  0.00  0.00    -0.361 OA
HETATM   20  H           1     -25.724  -3.649  -9.866  0.00  0.00     0.217 HD
ENDBRANCH  16  19
ENDBRANCH  12  13
ENDBRANCH   1  12
BRANCH   1  21
HETATM   21  N           1     -20.081  -4.454  -5.252  0.00  0.00    -0.066 N 
HETATM   22  H           1     -20.888  -4.067  -4.713  0.00  0.00     0.275 HD
HETATM   23  H           1     -19.547  -3.670  -5.691  0.00  0.00     0.275 HD
HETATM   24  H           1     -19.452  -4.983  -4.606  0.00  0.00     0.275 HD
ENDBRANCH   1  21
TORSDOF 6
ENDMDL
MODEL 2
REMARK VINA RESULT:      -6.7      2.718      6.572
REMARK  6 active torsions:
REMARK  status: ('A' for Active; 'I' for Inactive)
REMARK    1  A    between atoms: O_3  and  C_14 
REMARK    2  A    between atoms: C_5  and  C_18 
REMARK    3  A    between atoms: C_5  and  C_9 
REMARK    4  A    between atoms: C_5  and  N_22 
REMARK    5  A    between atoms: C_9  and  C_15 
REMARK       I    between atoms: C_18  and  N_19 
REMARK    6  A    between atoms: C_21  and  C_23 
ROOT
HETATM    1  C           1     -20.697  -8.731  -4.502  0.00  0.00     0.279 C 
ENDROOT
BRANCH   1   2
HETATM    2  C           1     -19.830  -8.031  -5.520  0.00  0.00     0.251 C 
HETATM    3  O           1     -18.849  -8.581  -5.959  0.00  0.00    -0.271 OA
HETATM    4  N           1     -20.156  -6.771  -5.945  0.00  0.00    -0.336 N 
HETATM    5  C           1     -19.897  -6.179  -7.255  0.00  0.00     0.127 C 
HETATM    6  C           1     -20.839  -5.725  -5.188  0.00  0.00     0.188 C 
HETATM    7  C           1     -19.481  -4.754  -6.934  0.00  0.00     0.022 C 
HETATM    8  C           1     -20.096  -4.457  -5.572  0.00  0.00     0.038 C 
BRANCH   6   9
HETATM    9  C           1     -22.292  -5.637  -5.585  0.00  0.00     0.196 C 
HETATM   10  O           1     -22.652  -4.830  -6.469  0.00  0.00    -0.646 OA
HETATM   11  O           1     -23.137  -6.371  -5.027  0.00  0.00    -0.646 OA
ENDBRANCH   6   9
ENDBRANCH   1   2
BRANCH   1  12
HETATM   12  C           1     -19.979  -8.763  -3.159  0.00  0.00     0.081 C 
BRANCH  12  13
HETATM   13  C           1     -20.961  -8.498  -2.061  0.00  0.00    -0.056 A 
HETATM   14  C           1     -21.482  -7.216  -1.886  0.00  0.00     0.010 A 
HETATM   15  C           1     -22.397  -6.968  -0.862  0.00  0.00     0.037 A 
HETATM   16  C           1     -22.791  -8.003  -0.014  0.00  0.00     0.065 A 
HETATM   17  C           1     -22.268  -9.285  -0.188  0.00  0.00     0.037 A 
HETATM   18  C           1     -21.353  -9.533  -1.212  0.00  0.00     0.010 A 
BRANCH  16  19
HETATM   19  O           1     -23.679  -7.763   0.980  0.00  0.00    -0.361 OA
HETATM   20  H           1     -23.207  -7.319   1.704  0.00  0.00     0.217 HD
ENDBRANCH  16  19
ENDBRANCH  12  13
ENDBRANCH   1  12
BRANCH   1  21
HETATM   21  N           1     -20.967 -10.134  -4.957  0.00  0.00    -0.066 N 
HETATM   22  H           1     -20.980 -10.165  -6.001  0.00  0.00     0.275 HD
HETATM   23  H           1     -21.894 -10.448  -4.588  0.00  0.00     0.275 HD
HETATM   24  H           1     -20.217 -10.767  -4.598  0.00  0.00     0.275 HD
ENDBRANCH   1  21
TORSDOF 6
ENDMDL
MODEL 3
REMARK VINA RESULT:      -6.5      1.811      3.017
REMARK  6 active torsions:
REMARK  status: ('A' for Active; 'I' for Inactive)
REMARK    1  A    between atoms: O_3  and  C_14 
REMARK    2  A    between atoms: C_5  and  C_18 
REMARK    3  A    between atoms: C_5  and  C_9 
REMARK    4  A    between atoms: C_5  and  N_22 
REMARK    5  A    between atoms: C_9  and  C_15 
REMARK       I    between atoms: C_18  and  N_19 
REMARK    6  A    between atoms: C_21  and  C_23 
ROOT
HETATM    1  C           1     -20.387  -6.323  -5.654  0.00  0.00     0.279 C 
ENDROOT
BRANCH   1   2
HETATM    2  C           1     -20.936  -6.694  -4.299  0.00  0.00     0.251 C 
HETATM    3  O           1     -21.633  -5.914  -3.694  0.00  0.00    -0.271 OA
HETATM    4  N           1     -20.643  -7.915  -3.752  0.00  0.00    -0.336 N 
HETATM    5  C           1     -21.475  -8.709  -2.852  0.00  0.00     0.127 C 
HETATM    6  C           1     -19.432  -8.708  -3.943  0.00  0.00     0.188 C 
HETATM    7  C           1     -20.487  -9.269  -1.844  0.00  0.00     0.022 C 
HETATM    8  C           1     -19.142  -9.264  -2.560  0.00  0.00     0.038 C 
BRANCH   6   9
HETATM    9  C           1     -19.670  -9.823  -4.931  0.00  0.00     0.196 C 
HETATM   10  O           1     -20.561  -9.709  -5.801  0.00  0.00    -0.646 OA
HETATM   11  O           1     -18.977 -10.862  -4.879  0.00  0.00    -0.646 OA
ENDBRANCH   6   9
ENDBRANCH   1   2
BRANCH   1  12
HETATM   12  C           1     -20.452  -4.811  -5.833  0.00  0.00     0.081 C 
BRANCH  12  13
HETATM   13  C           1     -20.859  -4.491  -7.236  0.00  0.00    -0.056 A 
HETATM   14  C           1     -22.172  -4.113  -7.513  0.00  0.00     0.010 A 
HETATM   15  C           1     -22.552  -3.815  -8.822  0.00  0.00     0.037 A 
HETATM   16  C           1     -21.617  -3.895  -9.855  0.00  0.00     0.065 A 
HETATM   17  C           1     -20.304  -4.274  -9.578  0.00  0.00     0.037 A 
HETATM   18  C           1     -19.924  -4.572  -8.269  0.00  0.00     0.010 A 
BRANCH  16  19
HETATM   19  O           1     -21.986  -3.606 -11.125  0.00  0.00    -0.361 OA
HETATM   20  H           1     -21.511  -4.209 -11.721  0.00  0.00     0.217 HD
ENDBRANCH  16  19
ENDBRANCH  12  13
ENDBRANCH   1  12
BRANCH   1  21
HETATM   21  N           1     -21.202  -6.987  -6.722  0.00  0.00    -0.066 N 
HETATM   22  H           1     -21.850  -7.681  -6.285  0.00  0.00     0.275 HD
HETATM   23  H           1     -20.567  -7.478  -7.392  0.00  0.00     0.275 HD
HETATM   24  H           1     -21.758  -6.266  -7.235  0.00  0.00     0.275 HD
ENDBRANCH   1  21
TORSDOF 6
ENDMDL
MODEL 4
REMARK VINA RESULT:      -6.4      1.804      2.565
REMARK  6 active torsions:
REMARK  status: ('A' for Active; 'I' for Inactive)
REMARK    1  A    between atoms: O_3  and  C_14 
REMARK    2  A    between atoms: C_5  and  C_18 
REMARK    3  A    between atoms: C_5  and  C_9 
REMARK    4  A    between atoms: C_5  and  N_22 
REMARK    5  A    between atoms: C_9  and  C_15 
REMARK       I    between atoms: C_18  and  N_19 
REMARK    6  A    between atoms: C_21  and  C_23 
ROOT
HETATM    1  C           1     -21.367  -4.687  -8.157  0.00  0.00     0.279 C 
ENDROOT
BRANCH   1   2
HETATM    2  C           1     -20.293  -5.380  -7.356  0.00  0.00     0.251 C 
HETATM    3  O           1     -19.131  -5.244  -7.657  0.00  0.00    -0.271 OA
HETATM    4  N           1     -20.635  -6.167  -6.288  0.00  0.00    -0.336 N 
HETATM    5  C           1     -19.859  -6.405  -5.074  0.00  0.00     0.127 C 
HETATM    6  C           1     -21.856  -6.948  -6.114  0.00  0.00     0.188 C 
HETATM    7  C           1     -20.059  -7.886  -4.801  0.00  0.00     0.022 C 
HETATM    8  C           1     -21.370  -8.244  -5.489  0.00  0.00     0.038 C 
BRANCH   6   9
HETATM    9  C           1     -22.822  -6.239  -5.197  0.00  0.00     0.196 C 
HETATM   10  O           1     -22.696  -6.339  -3.957  0.00  0.00    -0.646 OA
HETATM   11  O           1     -23.750  -5.552  -5.678  0.00  0.00    -0.646 OA
ENDBRANCH   6   9
ENDBRANCH   1   2
BRANCH   1  12
HETATM   12  C           1     -20.782  -4.198  -9.476  0.00  0.00     0.081 C 
BRANCH  12  13
HETATM   13  C           1     -21.892  -3.852 -10.417  0.00  0.00    -0.056 A 
HETATM   14  C           1     -23.147  -4.442 -10.263  0.00  0.00     0.010 A 
HETATM   15  C           1     -24.182  -4.120 -11.142  0.00  0.00     0.037 A 
HETATM   16  C           1     -23.962  -3.208 -12.174  0.00  0.00     0.065 A 
HETATM   17  C           1     -22.707  -2.620 -12.329  0.00  0.00     0.037 A 
HETATM   18  C           1     -21.672  -2.941 -11.451  0.00  0.00     0.010 A 
BRANCH  16  19
HETATM   19  O           1     -24.967  -2.896 -13.027  0.00  0.00    -0.361 OA
HETATM   20  H           1     -24.894  -1.952 -13.245  0.00  0.00     0.217 HD
ENDBRANCH  16  19
ENDBRANCH  12  13
ENDBRANCH   1  12
BRANCH   1  21
HETATM   21  N           1     -21.894  -3.518  -7.380  0.00  0.00    -0.066 N 
HETATM   22  H           1     -22.865  -3.299  -7.696  0.00  0.00     0.275 HD
HETATM   23  H           1     -21.280  -2.687  -7.540  0.00  0.00     0.275 HD
HETATM   24  H           1     -21.903  -3.752  -6.362  0.00  0.00     0.275 HD
ENDBRANCH   1  21
TORSDOF 6
ENDMDL
MODEL 5
REMARK VINA RESULT:      -6.4      2.123      6.669
REMARK  6 active torsions:
REMARK  status: ('A' for Active; 'I' for Inactive)
REMARK    1  A    between atoms: O_3  and  C_14 
REMARK    2  A    between atoms: C_5  and  C_18 
REMARK    3  A    between atoms: C_5  and  C_9 
REMARK    4  A    between atoms: C_5  and  N_22 
REMARK    5  A    between atoms: C_9  and  C_15 
REMARK       I    between atoms: C_18  and  N_19 
REMARK    6  A    between atoms: C_21  and  C_23 
ROOT
HETATM    1  C           1     -21.132  -6.673  -4.897  0.00  0.00     0.279 C 
ENDROOT
BRANCH   1   2
HETATM    2  C           1     -20.311  -6.524  -6.154  0.00  0.00     0.251 C 
HETATM    3  O           1     -19.346  -7.228  -6.333  0.00  0.00    -0.271 OA
HETATM    4  N           1     -20.658  -5.589  -7.093  0.00  0.00    -0.336 N 
HETATM    5  C           1     -20.455  -5.660  -8.537  0.00  0.00     0.127 C 
HETATM    6  C           1     -21.314  -4.304  -6.868  0.00  0.00     0.188 C 
HETATM    7  C           1     -20.032  -4.251  -8.915  0.00  0.00     0.022 C 
HETATM    8  C           1     -20.592  -3.359  -7.814  0.00  0.00     0.038 C 
BRANCH   6   9
HETATM    9  C           1     -22.783  -4.383  -7.205  0.00  0.00     0.196 C 
HETATM   10  O           1     -23.590  -4.857  -6.376  0.00  0.00    -0.646 OA
HETATM   11  O           1     -23.191  -3.975  -8.313  0.00  0.00    -0.646 OA
ENDBRANCH   6   9
ENDBRANCH   1   2
BRANCH   1  12
HETATM   12  C           1     -20.387  -7.555  -3.904  0.00  0.00     0.081 C 
BRANCH  12  13
HETATM   13  C           1     -21.192  -7.685  -2.650  0.00  0.00    -0.056 A 
HETATM   14  C           1     -21.434  -8.946  -2.104  0.00  0.00     0.010 A 
HETATM   15  C           1     -22.185  -9.068  -0.934  0.00  0.00     0.037 A 
HETATM   16  C           1     -22.694  -7.928  -0.311  0.00  0.00     0.065 A 
HETATM   17  C           1     -22.453  -6.668  -0.857  0.00  0.00     0.037 A 
HETATM   18  C           1     -21.702  -6.546  -2.027  0.00  0.00     0.010 A 
BRANCH  16  19
HETATM   19  O           1     -23.423  -8.047   0.825  0.00  0.00    -0.361 OA
HETATM   20  H           1     -22.914  -8.583   1.454  0.00  0.00     0.217 HD
ENDBRANCH  16  19
ENDBRANCH  12  13
ENDBRANCH   1  12
BRANCH   1  21
HETATM   21  N           1     -22.450  -7.302  -5.234  0.00  0.00    -0.066 N 
HETATM   22  H           1     -22.726  -7.036  -6.206  0.00  0.00     0.275 HD
HETATM   23  H           1     -23.179  -6.970  -4.561  0.00  0.00     0.275 HD
HETATM   24  H           1     -22.367  -8.342  -5.168  0.00  0.00     0.275 HD
ENDBRANCH   1  21
TORSDOF 6
ENDMDL
MODEL 6
REMARK VINA RESULT:      -6.3      2.024      6.636
REMARK  6 active torsions:
REMARK  status: ('A' for Active; 'I' for Inactive)
REMARK    1  A    between atoms: O_3  and  C_14 
REMARK    2  A    between atoms: C_5  and  C_18 
REMARK    3  A    between atoms: C_5  and  C_9 
REMARK    4  A    between atoms: C_5  and  N_22 
REMARK    5  A    between atoms: C_9  and  C_15 
REMARK       I    between atoms: C_18  and  N_19 
REMARK    6  A    between atoms: C_21  and  C_23 
ROOT
HETATM    1  C           1     -21.636  -3.964  -7.738  0.00  0.00     0.279 C 
ENDROOT
BRANCH   1   2
HETATM    2  C           1     -21.218  -4.241  -9.161  0.00  0.00     0.251 C 
HETATM    3  O           1     -20.105  -4.647  -9.395  0.00  0.00    -0.271 OA
HETATM    4  N           1     -22.100  -4.031 -10.187  0.00  0.00    -0.336 N 
HETATM    5  C           1     -22.177  -4.751 -11.455  0.00  0.00     0.127 C 
HETATM    6  C           1     -23.170  -3.039 -10.252  0.00  0.00     0.188 C 
HETATM    7  C           1     -22.459  -3.662 -12.475  0.00  0.00     0.022 C 
HETATM    8  C           1     -23.107  -2.533 -11.683  0.00  0.00     0.038 C 
BRANCH   6   9
HETATM    9  C           1     -24.509  -3.673  -9.964  0.00  0.00     0.196 C 
HETATM   10  O           1     -25.527  -2.957  -9.846  0.00  0.00    -0.646 OA
HETATM   11  O           1     -24.599  -4.913  -9.842  0.00  0.00    -0.646 OA
ENDBRANCH   6   9
ENDBRANCH   1   2
BRANCH   1  12
HETATM   12  C           1     -20.473  -4.258  -6.799  0.00  0.00     0.081 C 
BRANCH  12  13
HETATM   13  C           1     -20.794  -5.459  -5.966  0.00  0.00    -0.056 A 
HETATM   14  C           1     -20.879  -6.718  -6.561  0.00  0.00     0.010 A 
HETATM   15  C           1     -21.179  -7.838  -5.785  0.00  0.00     0.037 A 
HETATM   16  C           1     -21.394  -7.698  -4.413  0.00  0.00     0.065 A 
HETATM   17  C           1     -21.310  -6.439  -3.819  0.00  0.00     0.037 A 
HETATM   18  C           1     -21.010  -5.319  -4.595  0.00  0.00     0.010 A 
BRANCH  16  19
HETATM   19  O           1     -21.686  -8.785  -3.660  0.00  0.00    -0.361 OA
HETATM   20  H           1     -22.500  -8.598  -3.164  0.00  0.00     0.217 HD
ENDBRANCH  16  19
ENDBRANCH  12  13
ENDBRANCH   1  12
BRANCH   1  21
HETATM   21  N           1     -22.800  -4.838  -7.380  0.00  0.00    -0.066 N 
HETATM   22  H           1     -23.479  -4.295  -6.799  0.00  0.00     0.275 HD
HETATM   23  H           1     -22.462  -5.665  -6.837  0.00  0.00     0.275 HD
HETATM   24  H           1     -23.272  -5.165  -8.253  0.00  0.00     0.275 HD
ENDBRANCH   1  21
TORSDOF 6
ENDMDL
MODEL 7
REMARK VINA RESULT:      -6.1      5.977      7.836
REMARK  6 active torsions:
REMARK  status: ('A' for Active; 'I' for Inactive)
REMARK    1  A    between atoms: O_3  and  C_14 
REMARK    2  A    between atoms: C_5  and  C_18 
REMARK    3  A    between atoms: C_5  and  C_9 
REMARK    4  A    between atoms: C_5  and  N_22 
REMARK    5  A    between atoms: C_9  and  C_15 
REMARK       I    between atoms: C_18  and  N_19 
REMARK    6  A    between atoms: C_21  and  C_23 
ROOT
HETATM    1  C           1     -20.101 -11.412  -0.915  0.00  0.00     0.279 C 
ENDROOT
BRANCH   1   2
HETATM    2  C           1     -18.625 -11.632  -0.696  0.00  0.00     0.251 C 
HETATM    3  O           1     -18.230 -12.086   0.351  0.00  0.00    -0.271 OA
HETATM    4  N           1     -17.731 -11.315  -1.684  0.00  0.00    -0.336 N 
HETATM    5  C           1     -16.450 -11.958  -1.964  0.00  0.00     0.127 C 
HETATM    6  C           1     -17.852 -10.262  -2.689  0.00  0.00     0.188 C 
HETATM    7  C           1     -15.528 -10.798  -2.302  0.00  0.00     0.022 C 
HETATM    8  C           1     -16.451  -9.681  -2.774  0.00  0.00     0.038 C 
BRANCH   6   9
HETATM    9  C           1     -18.277 -10.834  -4.019  0.00  0.00     0.196 C 
HETATM   10  O           1     -19.248 -11.619  -4.080  0.00  0.00    -0.646 OA
HETATM   11  O           1     -17.658 -10.523  -5.059  0.00  0.00    -0.646 OA
ENDBRANCH   6   9
ENDBRANCH   1   2
BRANCH   1  12
HETATM   12  C           1     -20.662 -10.558   0.215  0.00  0.00     0.081 C 
BRANCH  12  13
HETATM   13  C           1     -21.165  -9.263  -0.340  0.00  0.00    -0.056 A 
HETATM   14  C           1     -20.622  -8.750  -1.518  0.00  0.00     0.010 A 
HETATM   15  C           1     -21.090  -7.542  -2.035  0.00  0.00     0.037 A 
HETATM   16  C           1     -22.103  -6.846  -1.373  0.00  0.00     0.065 A 
HETATM   17  C           1     -22.645  -7.359  -0.195  0.00  0.00     0.037 A 
HETATM   18  C           1     -22.177  -8.567   0.322  0.00  0.00     0.010 A 
BRANCH  16  19
HETATM   19  O           1     -22.557  -5.673  -1.875  0.00  0.00    -0.361 OA
HETATM   20  H           1     -22.540  -5.014  -1.161  0.00  0.00     0.217 HD
ENDBRANCH  16  19
ENDBRANCH  12  13
ENDBRANCH   1  12
BRANCH   1  21
HETATM   21  N           1     -20.805 -12.735  -0.938  0.00  0.00    -0.066 N 
HETATM   22  H           1     -20.945 -13.039  -1.928  0.00  0.00     0.275 HD
HETATM   23  H           1     -21.734 -12.645  -0.467  0.00  0.00     0.275 HD
HETATM   24  H           1     -20.228 -13.446  -0.434  0.00  0.00     0.275 HD
ENDBRANCH   1  21
TORSDOF 6
ENDMDL
MODEL 8
REMARK VINA RESULT:      -6.1      2.353      3.774
REMARK  6 active torsions:
REMARK  status: ('A' for Active; 'I' for Inactive)
REMARK    1  A    between atoms: O_3  and  C_14 
REMARK    2  A    between atoms: C_5  and  C_18 
REMARK    3  A    between atoms: C_5  and  C_9 
REMARK    4  A    between atoms: C_5  and  N_22 
REMARK    5  A    between atoms: C_9  and  C_15 
REMARK       I    between atoms: C_18  and  N_19 
REMARK    6  A    between atoms: C_21  and  C_23 
ROOT
HETATM    1  C           1     -22.673  -3.873  -7.895  0.00  0.00     0.279 C 
ENDROOT
BRANCH   1   2
HETATM    2  C           1     -22.986  -4.790  -6.739  0.00  0.00     0.251 C 
HETATM    3  O           1     -24.132  -4.970  -6.403  0.00  0.00    -0.271 OA
HETATM    4  N           1     -21.970  -5.418  -6.068  0.00  0.00    -0.336 N 
HETATM    5  C           1     -22.012  -6.719  -5.407  0.00  0.00     0.127 C 
HETATM    6  C           1     -20.609  -4.933  -5.860  0.00  0.00     0.188 C 
HETATM    7  C           1     -21.221  -6.503  -4.128  0.00  0.00     0.022 C 
HETATM    8  C           1     -20.302  -5.324  -4.425  0.00  0.00     0.038 C 
BRANCH   6   9
HETATM    9  C           1     -19.649  -5.599  -6.815  0.00  0.00     0.196 C 
HETATM   10  O           1     -19.524  -6.843  -6.810  0.00  0.00    -0.646 OA
HETATM   11  O           1     -18.979  -4.906  -7.611  0.00  0.00    -0.646 OA
ENDBRANCH   6   9
ENDBRANCH   1   2
BRANCH   1  12
HETATM   12  C           1     -22.204  -4.698  -9.086  0.00  0.00     0.081 C 
BRANCH  12  13
HETATM   13  C           1     -22.685  -4.064 -10.353  0.00  0.00    -0.056 A 
HETATM   14  C           1     -24.039  -3.772 -10.517  0.00  0.00     0.010 A 
HETATM   15  C           1     -24.488  -3.182 -11.699  0.00  0.00     0.037 A 
HETATM   16  C           1     -23.583  -2.884 -12.717  0.00  0.00     0.065 A 
HETATM   17  C           1     -22.229  -3.177 -12.554  0.00  0.00     0.037 A 
HETATM   18  C           1     -21.779  -3.767 -11.373  0.00  0.00     0.010 A 
BRANCH  16  19
HETATM   19  O           1     -24.019  -2.311 -13.865  0.00  0.00    -0.361 OA
HETATM   20  H           1     -23.330  -2.427 -14.539  0.00  0.00     0.217 HD
ENDBRANCH  16  19
ENDBRANCH  12  13
ENDBRANCH   1  12
BRANCH   1  21
HETATM   21  N           1     -21.592  -2.915  -7.494  0.00  0.00    -0.066 N 
HETATM   22  H           1     -21.690  -2.030  -8.041  0.00  0.00     0.275 HD
HETATM   23  H           1     -20.657  -3.342  -7.688  0.00  0.00     0.275 HD
HETATM   24  H           1     -21.673  -2.705  -6.474  0.00  0.00     0.275 HD
ENDBRANCH   1  21
TORSDOF 6
ENDMDL
MODEL 9
REMARK VINA RESULT:      -5.9      3.201      4.809
REMARK  6 active torsions:
REMARK  status: ('A' for Active; 'I' for Inactive)
REMARK    1  A    between atoms: O_3  and  C_14 
REMARK    2  A    between atoms: C_5  and  C_18 
REMARK    3  A    between atoms: C_5  and  C_9 
REMARK    4  A    between atoms: C_5  and  N_22 
REMARK    5  A    between atoms: C_9  and  C_15 
REMARK       I    between atoms: C_18  and  N_19 
REMARK    6  A    between atoms: C_21  and  C_23 
ROOT
HETATM    1  C           1     -20.922  -8.667  -2.906  0.00  0.00     0.279 C 
ENDROOT
BRANCH   1   2
HETATM    2  C           1     -21.032 -10.071  -2.363  0.00  0.00     0.251 C 
HETATM    3  O           1     -20.494 -10.986  -2.941  0.00  0.00    -0.271 OA
HETATM    4  N           1     -21.743 -10.308  -1.217  0.00  0.00    -0.336 N 
HETATM    5  C           1     -21.500 -11.346  -0.219  0.00  0.00     0.127 C 
HETATM    6  C           1     -22.908  -9.578  -0.726  0.00  0.00     0.188 C 
HETATM    7  C           1     -22.892 -11.831   0.147  0.00  0.00     0.022 C 
HETATM    8  C           1     -23.819 -10.669  -0.191  0.00  0.00     0.038 C 
BRANCH   6   9
HETATM    9  C           1     -22.517  -8.619   0.372  0.00  0.00     0.196 C 
HETATM   10  O           1     -21.310  -8.437   0.643  0.00  0.00    -0.646 OA
HETATM   11  O           1     -23.401  -8.007   1.009  0.00  0.00    -0.646 OA
ENDBRANCH   6   9
ENDBRANCH   1   2
BRANCH   1  12
HETATM   12  C           1     -20.333  -8.710  -4.310  0.00  0.00     0.081 C 
BRANCH  12  13
HETATM   13  C           1     -20.798  -7.516  -5.083  0.00  0.00    -0.056 A 
HETATM   14  C           1     -22.101  -7.044  -4.921  0.00  0.00     0.010 A 
HETATM   15  C           1     -22.535  -5.931  -5.642  0.00  0.00     0.037 A 
HETATM   16  C           1     -21.666  -5.290  -6.525  0.00  0.00     0.065 A 
HETATM   17  C           1     -20.364  -5.763  -6.688  0.00  0.00     0.037 A 
HETATM   18  C           1     -19.929  -6.875  -5.967  0.00  0.00     0.010 A 
BRANCH  16  19
HETATM   19  O           1     -22.087  -4.210  -7.225  0.00  0.00    -0.361 OA
HETATM   20  H           1     -21.700  -4.259  -8.115  0.00  0.00     0.217 HD
ENDBRANCH  16  19
ENDBRANCH  12  13
ENDBRANCH   1  12
BRANCH   1  21
HETATM   21  N           1     -20.030  -7.856  -2.015  0.00  0.00    -0.066 N 
HETATM   22  H           1     -20.577  -7.071  -1.596  0.00  0.00     0.275 HD
HETATM   23  H           1     -19.236  -7.468  -2.574  0.00  0.00     0.275 HD
HETATM   24  H           1     -19.653  -8.464  -1.252  0.00  0.00     0.275 HD
ENDBRANCH   1  21
TORSDOF 6
ENDMDL
