MODEL 1
REMARK VINA RESULT:      -9.0      0.000      0.000
REMARK  9 active torsions:
REMARK  status: ('A' for Active; 'I' for Inactive)
REMARK    1  A    between atoms: C_1  and  C_25 
REMARK    2  A    between atoms: C_5  and  C_11 
REMARK    3  A    between atoms: N_6  and  C_25 
REMARK       I    between atoms: N_6  and  C_23 
REMARK    4  A    between atoms: N_10  and  C_12 
REMARK    5  A    between atoms: C_11  and  C_12 
REMARK    6  A    between atoms: C_12  and  C_23 
REMARK    7  A    between atoms: C_25  and  C_26 
REMARK    8  A    between atoms: C_26  and  C_29 
REMARK    9  A    between atoms: C_32  and  O_33 
ROOT
HETATM    1  H           1     -19.964  -7.224  -6.882  0.00  0.00     0.163 HD
HETATM    2  N           1     -20.056  -6.765  -5.984  0.00  0.00    -0.344 N 
HETATM    3  O           1     -20.274  -4.855  -4.848  0.00  0.00    -0.271 OA
HETATM    4  C           1     -20.165  -5.403  -5.919  0.00  0.00     0.249 C 
ENDROOT
BRANCH   4   5
HETATM    5  C           1     -20.149  -4.584  -7.187  0.00  0.00     0.278 C 
BRANCH   5   6
HETATM    6  N           1     -18.731  -4.274  -7.563  0.00  0.00    -0.066 N 
HETATM    7  H           1     -18.624  -3.243  -7.700  0.00  0.00     0.275 HD
HETATM    8  H           1     -18.092  -4.590  -6.800  0.00  0.00     0.275 HD
HETATM    9  H           1     -18.489  -4.770  -8.450  0.00  0.00     0.275 HD
ENDBRANCH   5   6
BRANCH   5  10
HETATM   10  C           1     -20.811  -5.372  -8.310  0.00  0.00     0.083 C 
BRANCH  10  11
HETATM   11  C           1     -22.077  -4.688  -8.722  0.00  0.00    -0.028 A 
HETATM   12  C           1     -23.154  -4.415  -7.909  0.00  0.00     0.096 A 
HETATM   13  N           1     -24.101  -3.782  -8.669  0.00  0.00    -0.365 N 
HETATM   14  C           1     -23.657  -3.639  -9.964  0.00  0.00     0.042 A 
HETATM   15  H           1     -25.033  -3.453  -8.314  0.00  0.00     0.165 HD
HETATM   16  C           1     -22.382  -4.203 -10.024  0.00  0.00    -0.002 A 
HETATM   17  C           1     -24.280  -3.060 -11.076  0.00  0.00     0.030 A 
HETATM   18  C           1     -21.691  -4.189 -11.251  0.00  0.00     0.014 A 
HETATM   19  C           1     -22.300  -3.614 -12.373  0.00  0.00     0.001 A 
HETATM   20  C           1     -23.575  -3.058 -12.283  0.00  0.00     0.002 A 
ENDBRANCH  10  11
ENDBRANCH   5  10
ENDBRANCH   4   5
BRANCH   2  21
HETATM   21  C           1     -20.072  -7.553  -4.766  0.00  0.00     0.189 C 
BRANCH  21  22
HETATM   22  C           1     -19.180  -8.757  -4.935  0.00  0.00     0.197 C 
HETATM   23  O           1     -19.122  -9.343  -6.039  0.00  0.00    -0.646 OA
HETATM   24  O           1     -18.499  -9.171  -3.972  0.00  0.00    -0.646 OA
ENDBRANCH  21  22
BRANCH  21  25
HETATM   25  C           1     -21.494  -8.012  -4.476  0.00  0.00     0.074 C 
BRANCH  25  26
HETATM   26  C           1     -21.740  -7.976  -2.999  0.00  0.00    -0.056 A 
HETATM   27  C           1     -22.004  -6.763  -2.367  0.00  0.00     0.010 A 
HETATM   28  C           1     -22.233  -6.729  -0.991  0.00  0.00     0.037 A 
HETATM   29  C           1     -22.198  -7.910  -0.249  0.00  0.00     0.065 A 
HETATM   30  C           1     -21.934  -9.124  -0.883  0.00  0.00     0.037 A 
HETATM   31  C           1     -21.704  -9.157  -2.258  0.00  0.00     0.010 A 
BRANCH  29  32
HETATM   32  O           1     -22.420  -7.877   1.087  0.00  0.00    -0.361 OA
HETATM   33  H           1     -22.683  -6.972   1.326  0.00  0.00     0.217 HD
ENDBRANCH  29  32
ENDBRANCH  25  26
ENDBRANCH  21  25
ENDBRANCH   2  21
TORSDOF 9
ENDMDL
MODEL 2
REMARK VINA RESULT:      -8.7      2.325      8.738
REMARK  9 active torsions:
REMARK  status: ('A' for Active; 'I' for Inactive)
REMARK    1  A    between atoms: C_1  and  C_25 
REMARK    2  A    between atoms: C_5  and  C_11 
REMARK    3  A    between atoms: N_6  and  C_25 
REMARK       I    between atoms: N_6  and  C_23 
REMARK    4  A    between atoms: N_10  and  C_12 
REMARK    5  A    between atoms: C_11  and  C_12 
REMARK    6  A    between atoms: C_12  and  C_23 
REMARK    7  A    between atoms: C_25  and  C_26 
REMARK    8  A    between atoms: C_26  and  C_29 
REMARK    9  A    between atoms: C_32  and  O_33 
ROOT
HETATM    1  H           1     -22.408  -6.315  -6.172  0.00  0.00     0.163 HD
HETATM    2  N           1     -21.451  -6.342  -6.503  0.00  0.00    -0.344 N 
HETATM    3  O           1     -19.475  -7.381  -6.493  0.00  0.00    -0.271 OA
HETATM    4  C           1     -20.617  -7.349  -6.100  0.00  0.00     0.249 C 
ENDROOT
BRANCH   4   5
HETATM    5  C           1     -21.123  -8.419  -5.164  0.00  0.00     0.278 C 
BRANCH   5   6
HETATM    6  N           1     -20.926  -9.766  -5.793  0.00  0.00    -0.066 N 
HETATM    7  H           1     -19.905  -9.935  -5.942  0.00  0.00     0.275 HD
HETATM    8  H           1     -21.311 -10.504  -5.161  0.00  0.00     0.275 HD
HETATM    9  H           1     -21.422  -9.798  -6.712  0.00  0.00     0.275 HD
ENDBRANCH   5   6
BRANCH   5  10
HETATM   10  C           1     -20.350  -8.354  -3.852  0.00  0.00     0.083 C 
BRANCH  10  11
HETATM   11  C           1     -21.154  -7.603  -2.836  0.00  0.00    -0.028 A 
HETATM   12  C           1     -21.523  -6.279  -2.910  0.00  0.00     0.096 A 
HETATM   13  N           1     -22.246  -5.983  -1.786  0.00  0.00    -0.365 N 
HETATM   14  C           1     -22.354  -7.095  -0.982  0.00  0.00     0.042 A 
HETATM   15  H           1     -22.659  -5.043  -1.568  0.00  0.00     0.165 HD
HETATM   16  C           1     -21.673  -8.131  -1.622  0.00  0.00    -0.002 A 
HETATM   17  C           1     -22.995  -7.262   0.252  0.00  0.00     0.030 A 
HETATM   18  C           1     -21.628  -9.396  -1.005  0.00  0.00     0.014 A 
HETATM   19  C           1     -22.264  -9.580   0.229  0.00  0.00     0.001 A 
HETATM   20  C           1     -22.937  -8.526   0.845  0.00  0.00     0.002 A 
ENDBRANCH  10  11
ENDBRANCH   5  10
ENDBRANCH   4   5
BRANCH   2  21
HETATM   21  C           1     -20.966  -5.313  -7.402  0.00  0.00     0.189 C 
BRANCH  21  22
HETATM   22  C           1     -19.884  -4.517  -6.718  0.00  0.00     0.197 C 
HETATM   23  O           1     -18.844  -4.210  -7.341  0.00  0.00    -0.646 OA
HETATM   24  O           1     -20.025  -4.164  -5.527  0.00  0.00    -0.646 OA
ENDBRANCH  21  22
BRANCH  21  25
HETATM   25  C           1     -22.114  -4.387  -7.782  0.00  0.00     0.074 C 
BRANCH  25  26
HETATM   26  C           1     -22.082  -4.129  -9.256  0.00  0.00    -0.056 A 
HETATM   27  C           1     -20.927  -4.406  -9.987  0.00  0.00     0.010 A 
HETATM   28  C           1     -20.897  -4.166 -11.361  0.00  0.00     0.037 A 
HETATM   29  C           1     -22.022  -3.648 -12.003  0.00  0.00     0.065 A 
HETATM   30  C           1     -23.177  -3.371 -11.272  0.00  0.00     0.037 A 
HETATM   31  C           1     -23.206  -3.611  -9.898  0.00  0.00     0.010 A 
BRANCH  29  32
HETATM   32  O           1     -21.993  -3.414 -13.337  0.00  0.00    -0.361 OA
HETATM   33  H           1     -22.903  -3.483 -13.674  0.00  0.00     0.217 HD
ENDBRANCH  29  32
ENDBRANCH  25  26
ENDBRANCH  21  25
ENDBRANCH   2  21
TORSDOF 9
ENDMDL
MODEL 3
REMARK VINA RESULT:      -8.5      1.739      2.227
REMARK  9 active torsions:
REMARK  status: ('A' for Active; 'I' for Inactive)
REMARK    1  A    between atoms: C_1  and  C_25 
REMARK    2  A    between atoms: C_5  and  C_11 
REMARK    3  A    between atoms: N_6  and  C_25 
REMARK       I    between atoms: N_6  and  C_23 
REMARK    4  A    between atoms: N_10  and  C_12 
REMARK    5  A    between atoms: C_11  and  C_12 
REMARK    6  A    between atoms: C_12  and  C_23 
REMARK    7  A    between atoms: C_25  and  C_26 
REMARK    8  A    between atoms: C_26  and  C_29 
REMARK    9  A    between atoms: C_32  and  O_33 
ROOT
HETATM    1  H           1     -21.714  -8.309  -3.793  0.00  0.00     0.163 HD
HETATM    2  N           1     -20.869  -8.407  -4.342  0.00  0.00    -0.344 N 
HETATM    3  O           1     -19.646  -7.705  -6.073  0.00  0.00    -0.271 OA
HETATM    4  C           1     -20.653  -7.587  -5.417  0.00  0.00     0.249 C 
ENDROOT
BRANCH   4   5
HETATM    5  C           1     -21.673  -6.536  -5.782  0.00  0.00     0.278 C 
BRANCH   5   6
HETATM    6  N           1     -22.355  -6.050  -4.538  0.00  0.00    -0.066 N 
HETATM    7  H           1     -22.134  -5.038  -4.392  0.00  0.00     0.275 HD
HETATM    8  H           1     -23.389  -6.168  -4.639  0.00  0.00     0.275 HD
HETATM    9  H           1     -22.019  -6.601  -3.717  0.00  0.00     0.275 HD
ENDBRANCH   5   6
BRANCH   5  10
HETATM   10  C           1     -20.976  -5.368  -6.468  0.00  0.00     0.083 C 
BRANCH  10  11
HETATM   11  C           1     -21.895  -4.767  -7.485  0.00  0.00    -0.028 A 
HETATM   12  C           1     -23.221  -4.449  -7.295  0.00  0.00     0.096 A 
HETATM   13  N           1     -23.698  -3.923  -8.466  0.00  0.00    -0.365 N 
HETATM   14  C           1     -22.702  -3.896  -9.416  0.00  0.00     0.042 A 
HETATM   15  H           1     -24.681  -3.590  -8.618  0.00  0.00     0.165 HD
HETATM   16  C           1     -21.555  -4.423  -8.823  0.00  0.00    -0.002 A 
HETATM   17  C           1     -22.729  -3.449 -10.743  0.00  0.00     0.030 A 
HETATM   18  C           1     -20.374  -4.509  -9.587  0.00  0.00     0.014 A 
HETATM   19  C           1     -20.385  -4.067 -10.915  0.00  0.00     0.001 A 
HETATM   20  C           1     -21.546  -3.545 -11.482  0.00  0.00     0.002 A 
ENDBRANCH  10  11
ENDBRANCH   5  10
ENDBRANCH   4   5
BRANCH   2  21
HETATM   21  C           1     -19.890  -9.416  -3.991  0.00  0.00     0.189 C 
BRANCH  21  22
HETATM   22  C           1     -20.514 -10.785  -4.108  0.00  0.00     0.197 C 
HETATM   23  O           1     -21.696 -10.902  -4.496  0.00  0.00    -0.646 OA
HETATM   24  O           1     -19.848 -11.802  -3.816  0.00  0.00    -0.646 OA
ENDBRANCH  21  22
BRANCH  21  25
HETATM   25  C           1     -19.422  -9.194  -2.559  0.00  0.00     0.074 C 
BRANCH  25  26
HETATM   26  C           1     -20.590  -8.812  -1.703  0.00  0.00    -0.056 A 
HETATM   27  C           1     -20.994  -7.480  -1.632  0.00  0.00     0.010 A 
HETATM   28  C           1     -22.083  -7.123  -0.835  0.00  0.00     0.037 A 
HETATM   29  C           1     -22.766  -8.100  -0.110  0.00  0.00     0.065 A 
HETATM   30  C           1     -22.361  -9.433  -0.182  0.00  0.00     0.037 A 
HETATM   31  C           1     -21.272  -9.789  -0.979  0.00  0.00     0.010 A 
BRANCH  29  32
HETATM   32  O           1     -23.822  -7.754   0.664  0.00  0.00    -0.361 OA
HETATM   33  H           1     -24.065  -8.526   1.203  0.00  0.00     0.217 HD
ENDBRANCH  29  32
ENDBRANCH  25  26
ENDBRANCH  21  25
ENDBRANCH   2  21
TORSDOF 9
ENDMDL
MODEL 4
REMARK VINA RESULT:      -8.3      2.211      4.158
REMARK  9 active torsions:
REMARK  status: ('A' for Active; 'I' for Inactive)
REMARK    1  A    between atoms: C_1  and  C_25 
REMARK    2  A    between atoms: C_5  and  C_11 
REMARK    3  A    between atoms: N_6  and  C_25 
REMARK       I    between atoms: N_6  and  C_23 
REMARK    4  A    between atoms: N_10  and  C_12 
REMARK    5  A    between atoms: C_11  and  C_12 
REMARK    6  A    between atoms: C_12  and  C_23 
REMARK    7  A    between atoms: C_25  and  C_26 
REMARK    8  A    between atoms: C_26  and  C_29 
REMARK    9  A    between atoms: C_32  and  O_33 
ROOT
HETATM    1  H           1     -20.710  -6.747  -3.315  0.00  0.00     0.163 HD
HETATM    2  N           1     -20.704  -7.482  -4.012  0.00  0.00    -0.344 N 
HETATM    3  O           1     -20.930  -8.055  -6.158  0.00  0.00    -0.271 OA
HETATM    4  C           1     -20.936  -7.179  -5.326  0.00  0.00     0.249 C 
ENDROOT
BRANCH   4   5
HETATM    5  C           1     -21.200  -5.751  -5.737  0.00  0.00     0.278 C 
BRANCH   5   6
HETATM    6  N           1     -20.398  -4.826  -4.870  0.00  0.00    -0.066 N 
HETATM    7  H           1     -20.856  -3.887  -4.845  0.00  0.00     0.275 HD
HETATM    8  H           1     -20.348  -5.214  -3.901  0.00  0.00     0.275 HD
HETATM    9  H           1     -19.433  -4.732  -5.259  0.00  0.00     0.275 HD
ENDBRANCH   5   6
BRANCH   5  10
HETATM   10  C           1     -20.796  -5.558  -7.193  0.00  0.00     0.083 C 
BRANCH  10  11
HETATM   11  C           1     -21.886  -4.837  -7.922  0.00  0.00    -0.028 A 
HETATM   12  C           1     -23.129  -4.523  -7.420  0.00  0.00     0.096 A 
HETATM   13  N           1     -23.824  -3.867  -8.402  0.00  0.00    -0.365 N 
HETATM   14  C           1     -23.051  -3.750  -9.535  0.00  0.00     0.042 A 
HETATM   15  H           1     -24.804  -3.507  -8.304  0.00  0.00     0.165 HD
HETATM   16  C           1     -21.824  -4.354  -9.259  0.00  0.00    -0.002 A 
HETATM   17  C           1     -23.342  -3.160 -10.771  0.00  0.00     0.030 A 
HETATM   18  C           1     -20.836  -4.372 -10.262  0.00  0.00     0.014 A 
HETATM   19  C           1     -21.110  -3.788 -11.504  0.00  0.00     0.001 A 
HETATM   20  C           1     -22.346  -3.191 -11.752  0.00  0.00     0.002 A 
ENDBRANCH  10  11
ENDBRANCH   5  10
ENDBRANCH   4   5
BRANCH   2  21
HETATM   21  C           1     -20.451  -8.853  -3.617  0.00  0.00     0.189 C 
BRANCH  21  22
HETATM   22  C           1     -21.657  -9.400  -2.896  0.00  0.00     0.197 C 
HETATM   23  O           1     -21.985  -8.933  -1.783  0.00  0.00    -0.646 OA
HETATM   24  O           1     -22.329 -10.320  -3.410  0.00  0.00    -0.646 OA
ENDBRANCH  21  22
BRANCH  21  25
HETATM   25  C           1     -19.242  -8.901  -2.691  0.00  0.00     0.074 C 
BRANCH  25  26
HETATM   26  C           1     -18.071  -9.475  -3.426  0.00  0.00    -0.056 A 
HETATM   27  C           1     -16.878  -9.725  -2.748  0.00  0.00     0.010 A 
HETATM   28  C           1     -15.786 -10.259  -3.432  0.00  0.00     0.037 A 
HETATM   29  C           1     -15.888 -10.544  -4.794  0.00  0.00     0.065 A 
HETATM   30  C           1     -17.082 -10.294  -5.472  0.00  0.00     0.037 A 
HETATM   31  C           1     -18.173  -9.759  -4.787  0.00  0.00     0.010 A 
BRANCH  29  32
HETATM   32  O           1     -14.828 -11.063  -5.459  0.00  0.00    -0.361 OA
HETATM   33  H           1     -14.058 -11.034  -4.866  0.00  0.00     0.217 HD
ENDBRANCH  29  32
ENDBRANCH  25  26
ENDBRANCH  21  25
ENDBRANCH   2  21
TORSDOF 9
ENDMDL
MODEL 5
REMARK VINA RESULT:      -8.2      1.371      2.100
REMARK  9 active torsions:
REMARK  status: ('A' for Active; 'I' for Inactive)
REMARK    1  A    between atoms: C_1  and  C_25 
REMARK    2  A    between atoms: C_5  and  C_11 
REMARK    3  A    between atoms: N_6  and  C_25 
REMARK       I    between atoms: N_6  and  C_23 
REMARK    4  A    between atoms: N_10  and  C_12 
REMARK    5  A    between atoms: C_11  and  C_12 
REMARK    6  A    between atoms: C_12  and  C_23 
REMARK    7  A    between atoms: C_25  and  C_26 
REMARK    8  A    between atoms: C_26  and  C_29 
REMARK    9  A    between atoms: C_32  and  O_33 
ROOT
HETATM    1  H           1     -20.821  -7.741  -6.597  0.00  0.00     0.163 HD
HETATM    2  N           1     -20.940  -7.353  -5.670  0.00  0.00    -0.344 N 
HETATM    3  O           1     -21.790  -5.730  -4.393  0.00  0.00    -0.271 OA
HETATM    4  C           1     -21.648  -6.194  -5.499  0.00  0.00     0.249 C 
ENDROOT
BRANCH   4   5
HETATM    5  C           1     -22.253  -5.496  -6.693  0.00  0.00     0.278 C 
BRANCH   5   6
HETATM    6  N           1     -23.628  -5.012  -6.344  0.00  0.00    -0.066 N 
HETATM    7  H           1     -23.556  -4.143  -5.768  0.00  0.00     0.275 HD
HETATM    8  H           1     -24.156  -4.803  -7.222  0.00  0.00     0.275 HD
HETATM    9  H           1     -24.131  -5.749  -5.801  0.00  0.00     0.275 HD
ENDBRANCH   5   6
BRANCH   5  10
HETATM   10  C           1     -21.381  -4.309  -7.083  0.00  0.00     0.083 C 
BRANCH  10  11
HETATM   11  C           1     -21.156  -4.320  -8.563  0.00  0.00    -0.028 A 
HETATM   12  C           1     -19.987  -4.663  -9.204  0.00  0.00     0.096 A 
HETATM   13  N           1     -20.198  -4.542 -10.552  0.00  0.00    -0.365 N 
HETATM   14  C           1     -21.487  -4.125 -10.796  0.00  0.00     0.042 A 
HETATM   15  H           1     -19.480  -4.738 -11.292  0.00  0.00     0.165 HD
HETATM   16  C           1     -22.112  -3.977  -9.558  0.00  0.00    -0.002 A 
HETATM   17  C           1     -22.141  -3.869 -12.008  0.00  0.00     0.030 A 
HETATM   18  C           1     -23.456  -3.555  -9.522  0.00  0.00     0.014 A 
HETATM   19  C           1     -24.124  -3.295 -10.725  0.00  0.00     0.001 A 
HETATM   20  C           1     -23.473  -3.451 -11.948  0.00  0.00     0.002 A 
ENDBRANCH  10  11
ENDBRANCH   5  10
ENDBRANCH   4   5
BRANCH   2  21
HETATM   21  C           1     -20.360  -8.024  -4.523  0.00  0.00     0.189 C 
BRANCH  21  22
HETATM   22  C           1     -19.092  -8.727  -4.940  0.00  0.00     0.197 C 
HETATM   23  O           1     -18.837  -8.889  -6.154  0.00  0.00    -0.646 OA
HETATM   24  O           1     -18.296  -9.148  -4.073  0.00  0.00    -0.646 OA
ENDBRANCH  21  22
BRANCH  21  25
HETATM   25  C           1     -21.349  -9.045  -3.977  0.00  0.00     0.074 C 
BRANCH  25  26
HETATM   26  C           1     -21.260  -9.078  -2.483  0.00  0.00    -0.056 A 
HETATM   27  C           1     -21.415  -7.902  -1.750  0.00  0.00     0.010 A 
HETATM   28  C           1     -21.333  -7.932  -0.358  0.00  0.00     0.037 A 
HETATM   29  C           1     -21.095  -9.139   0.301  0.00  0.00     0.065 A 
HETATM   30  C           1     -20.940 -10.315  -0.433  0.00  0.00     0.037 A 
HETATM   31  C           1     -21.022 -10.284  -1.825  0.00  0.00     0.010 A 
BRANCH  29  32
HETATM   32  O           1     -21.014  -9.168   1.653  0.00  0.00    -0.361 OA
HETATM   33  H           1     -21.893  -8.953   2.011  0.00  0.00     0.217 HD
ENDBRANCH  29  32
ENDBRANCH  25  26
ENDBRANCH  21  25
ENDBRANCH   2  21
TORSDOF 9
ENDMDL
MODEL 6
REMARK VINA RESULT:      -7.9      2.454      8.874
REMARK  9 active torsions:
REMARK  status: ('A' for Active; 'I' for Inactive)
REMARK    1  A    between atoms: C_1  and  C_25 
REMARK    2  A    between atoms: C_5  and  C_11 
REMARK    3  A    between atoms: N_6  and  C_25 
REMARK       I    between atoms: N_6  and  C_23 
REMARK    4  A    between atoms: N_10  and  C_12 
REMARK    5  A    between atoms: C_11  and  C_12 
REMARK    6  A    between atoms: C_12  and  C_23 
REMARK    7  A    between atoms: C_25  and  C_26 
REMARK    8  A    between atoms: C_26  and  C_29 
REMARK    9  A    between atoms: C_32  and  O_33 
ROOT
HETATM    1  H           1     -20.618  -7.408  -7.543  0.00  0.00     0.163 HD
HETATM    2  N           1     -21.021  -6.590  -7.103  0.00  0.00    -0.344 N 
HETATM    3  O           1     -21.937  -5.680  -5.282  0.00  0.00    -0.271 OA
HETATM    4  C           1     -21.454  -6.655  -5.806  0.00  0.00     0.249 C 
ENDROOT
BRANCH   4   5
HETATM    5  C           1     -21.328  -7.944  -5.032  0.00  0.00     0.278 C 
BRANCH   5   6
HETATM    6  N           1     -21.243  -9.095  -5.989  0.00  0.00    -0.066 N 
HETATM    7  H           1     -21.250  -8.735  -6.970  0.00  0.00     0.275 HD
HETATM    8  H           1     -20.358  -9.624  -5.820  0.00  0.00     0.275 HD
HETATM    9  H           1     -22.061  -9.729  -5.846  0.00  0.00     0.275 HD
ENDBRANCH   5   6
BRANCH   5  10
HETATM   10  C           1     -20.067  -7.902  -4.177  0.00  0.00     0.083 C 
BRANCH  10  11
HETATM   11  C           1     -20.285  -8.696  -2.927  0.00  0.00    -0.028 A 
HETATM   12  C           1     -19.748  -9.932  -2.646  0.00  0.00     0.096 A 
HETATM   13  N           1     -20.191 -10.309  -1.407  0.00  0.00    -0.365 N 
HETATM   14  C           1     -21.008  -9.336  -0.877  0.00  0.00     0.042 A 
HETATM   15  H           1     -19.944 -11.210  -0.929  0.00  0.00     0.165 HD
HETATM   16  C           1     -21.084  -8.308  -1.816  0.00  0.00    -0.002 A 
HETATM   17  C           1     -21.680  -9.288   0.351  0.00  0.00     0.030 A 
HETATM   18  C           1     -21.866  -7.174  -1.520  0.00  0.00     0.014 A 
HETATM   19  C           1     -22.544  -7.111  -0.297  0.00  0.00     0.001 A 
HETATM   20  C           1     -22.450  -8.154   0.623  0.00  0.00     0.002 A 
ENDBRANCH  10  11
ENDBRANCH   5  10
ENDBRANCH   4   5
BRANCH   2  21
HETATM   21  C           1     -21.143  -5.352  -7.848  0.00  0.00     0.189 C 
BRANCH  21  22
HETATM   22  C           1     -20.280  -4.294  -7.207  0.00  0.00     0.197 C 
HETATM   23  O           1     -19.044  -4.463  -7.119  0.00  0.00    -0.646 OA
HETATM   24  O           1     -20.800  -3.247  -6.764  0.00  0.00    -0.646 OA
ENDBRANCH  21  22
BRANCH  21  25
HETATM   25  C           1     -22.595  -4.895  -7.841  0.00  0.00     0.074 C 
BRANCH  25  26
HETATM   26  C           1     -22.920  -4.242  -9.148  0.00  0.00    -0.056 A 
HETATM   27  C           1     -24.230  -3.851  -9.424  0.00  0.00     0.010 A 
HETATM   28  C           1     -24.534  -3.242 -10.643  0.00  0.00     0.037 A 
HETATM   29  C           1     -23.527  -3.026 -11.584  0.00  0.00     0.065 A 
HETATM   30  C           1     -22.217  -3.417 -11.307  0.00  0.00     0.037 A 
HETATM   31  C           1     -21.914  -4.026 -10.089  0.00  0.00     0.010 A 
BRANCH  29  32
HETATM   32  O           1     -23.822  -2.435 -12.767  0.00  0.00    -0.361 OA
HETATM   33  H           1     -24.749  -2.143 -12.734  0.00  0.00     0.217 HD
ENDBRANCH  29  32
ENDBRANCH  25  26
ENDBRANCH  21  25
ENDBRANCH   2  21
TORSDOF 9
ENDMDL
MODEL 7
REMARK VINA RESULT:      -7.7      2.102      2.581
REMARK  9 active torsions:
REMARK  status: ('A' for Active; 'I' for Inactive)
REMARK    1  A    between atoms: C_1  and  C_25 
REMARK    2  A    between atoms: C_5  and  C_11 
REMARK    3  A    between atoms: N_6  and  C_25 
REMARK       I    between atoms: N_6  and  C_23 
REMARK    4  A    between atoms: N_10  and  C_12 
REMARK    5  A    between atoms: C_11  and  C_12 
REMARK    6  A    between atoms: C_12  and  C_23 
REMARK    7  A    between atoms: C_25  and  C_26 
REMARK    8  A    between atoms: C_26  and  C_29 
REMARK    9  A    between atoms: C_32  and  O_33 
ROOT
HETATM    1  H           1     -20.152  -5.798  -6.038  0.00  0.00     0.163 HD
HETATM    2  N           1     -21.120  -5.918  -5.767  0.00  0.00    -0.344 N 
HETATM    3  O           1     -23.257  -5.352  -6.080  0.00  0.00    -0.271 OA
HETATM    4  C           1     -22.102  -5.209  -6.404  0.00  0.00     0.249 C 
ENDROOT
BRANCH   4   5
HETATM    5  C           1     -21.743  -4.249  -7.511  0.00  0.00     0.278 C 
BRANCH   5   6
HETATM    6  N           1     -20.332  -3.778  -7.325  0.00  0.00    -0.066 N 
HETATM    7  H           1     -19.677  -4.444  -7.794  0.00  0.00     0.275 HD
HETATM    8  H           1     -20.223  -2.828  -7.748  0.00  0.00     0.275 HD
HETATM    9  H           1     -20.110  -3.733  -6.305  0.00  0.00     0.275 HD
ENDBRANCH   5   6
BRANCH   5  10
HETATM   10  C           1     -21.869  -4.954  -8.856  0.00  0.00     0.083 C 
BRANCH  10  11
HETATM   11  C           1     -23.003  -4.355  -9.629  0.00  0.00    -0.028 A 
HETATM   12  C           1     -24.286  -4.162  -9.169  0.00  0.00     0.096 A 
HETATM   13  N           1     -25.011  -3.591 -10.181  0.00  0.00    -0.365 N 
HETATM   14  C           1     -24.219  -3.411 -11.292  0.00  0.00     0.042 A 
HETATM   15  H           1     -26.026  -3.330 -10.118  0.00  0.00     0.165 HD
HETATM   16  C           1     -22.947  -3.885 -10.970  0.00  0.00    -0.002 A 
HETATM   17  C           1     -24.529  -2.870 -12.546  0.00  0.00     0.030 A 
HETATM   18  C           1     -21.931  -3.817 -11.943  0.00  0.00     0.014 A 
HETATM   19  C           1     -22.224  -3.279 -13.202  0.00  0.00     0.001 A 
HETATM   20  C           1     -23.505  -2.813 -13.496  0.00  0.00     0.002 A 
ENDBRANCH  10  11
ENDBRANCH   5  10
ENDBRANCH   4   5
BRANCH   2  21
HETATM   21  C           1     -21.465  -6.841  -4.704  0.00  0.00     0.189 C 
BRANCH  21  22
HETATM   22  C           1     -21.552  -6.093  -3.397  0.00  0.00     0.197 C 
HETATM   23  O           1     -22.578  -6.189  -2.688  0.00  0.00    -0.646 OA
HETATM   24  O           1     -20.599  -5.376  -3.022  0.00  0.00    -0.646 OA
ENDBRANCH  21  22
BRANCH  21  25
HETATM   25  C           1     -20.395  -7.920  -4.599  0.00  0.00     0.074 C 
BRANCH  25  26
HETATM   26  C           1     -20.831  -8.965  -3.619  0.00  0.00    -0.056 A 
HETATM   27  C           1     -20.134  -9.132  -2.424  0.00  0.00     0.010 A 
HETATM   28  C           1     -20.540 -10.106  -1.511  0.00  0.00     0.037 A 
HETATM   29  C           1     -21.643 -10.911  -1.795  0.00  0.00     0.065 A 
HETATM   30  C           1     -22.341 -10.742  -2.991  0.00  0.00     0.037 A 
HETATM   31  C           1     -21.934  -9.769  -3.904  0.00  0.00     0.010 A 
BRANCH  29  32
HETATM   32  O           1     -22.038 -11.857  -0.908  0.00  0.00    -0.361 OA
HETATM   33  H           1     -22.145 -11.430  -0.041  0.00  0.00     0.217 HD
ENDBRANCH  29  32
ENDBRANCH  25  26
ENDBRANCH  21  25
ENDBRANCH   2  21
TORSDOF 9
ENDMDL
MODEL 8
REMARK VINA RESULT:      -7.6      2.975      5.319
REMARK  9 active torsions:
REMARK  status: ('A' for Active; 'I' for Inactive)
REMARK    1  A    between atoms: C_1  and  C_25 
REMARK    2  A    between atoms: C_5  and  C_11 
REMARK    3  A    between atoms: N_6  and  C_25 
REMARK       I    between atoms: N_6  and  C_23 
REMARK    4  A    between atoms: N_10  and  C_12 
REMARK    5  A    between atoms: C_11  and  C_12 
REMARK    6  A    between atoms: C_12  and  C_23 
REMARK    7  A    between atoms: C_25  and  C_26 
REMARK    8  A    between atoms: C_26  and  C_29 
REMARK    9  A    between atoms: C_32  and  O_33 
ROOT
HETATM    1  H           1     -20.432  -7.597  -1.491  0.00  0.00     0.163 HD
HETATM    2  N           1     -20.965  -8.416  -1.755  0.00  0.00    -0.344 N 
HETATM    3  O           1     -21.332 -10.032  -3.251  0.00  0.00    -0.271 OA
HETATM    4  C           1     -20.696  -9.055  -2.935  0.00  0.00     0.249 C 
ENDROOT
BRANCH   4   5
HETATM    5  C           1     -19.606  -8.538  -3.842  0.00  0.00     0.278 C 
BRANCH   5   6
HETATM    6  N           1     -18.405  -9.430  -3.736  0.00  0.00    -0.066 N 
HETATM    7  H           1     -18.701 -10.376  -3.403  0.00  0.00     0.275 HD
HETATM    8  H           1     -17.954  -9.518  -4.674  0.00  0.00     0.275 HD
HETATM    9  H           1     -17.724  -9.020  -3.058  0.00  0.00     0.275 HD
ENDBRANCH   5   6
BRANCH   5  10
HETATM   10  C           1     -20.104  -8.527  -5.281  0.00  0.00     0.083 C 
BRANCH  10  11
HETATM   11  C           1     -20.947  -7.312  -5.508  0.00  0.00    -0.028 A 
HETATM   12  C           1     -22.189  -7.072  -4.965  0.00  0.00     0.096 A 
HETATM   13  N           1     -22.617  -5.853  -5.420  0.00  0.00    -0.365 N 
HETATM   14  C           1     -21.672  -5.297  -6.252  0.00  0.00     0.042 A 
HETATM   15  H           1     -23.534  -5.408  -5.171  0.00  0.00     0.165 HD
HETATM   16  C           1     -20.608  -6.197  -6.324  0.00  0.00    -0.002 A 
HETATM   17  C           1     -21.677  -4.077  -6.940  0.00  0.00     0.030 A 
HETATM   18  C           1     -19.493  -5.868  -7.119  0.00  0.00     0.014 A 
HETATM   19  C           1     -19.483  -4.652  -7.814  0.00  0.00     0.001 A 
HETATM   20  C           1     -20.560  -3.772  -7.723  0.00  0.00     0.002 A 
ENDBRANCH  10  11
ENDBRANCH   5  10
ENDBRANCH   4   5
BRANCH   2  21
HETATM   21  C           1     -22.012  -8.912  -0.884  0.00  0.00     0.189 C 
BRANCH  21  22
HETATM   22  C           1     -22.720  -7.748  -0.235  0.00  0.00     0.197 C 
HETATM   23  O           1     -22.650  -6.610  -0.748  0.00  0.00    -0.646 OA
HETATM   24  O           1     -23.375  -7.921   0.815  0.00  0.00    -0.646 OA
ENDBRANCH  21  22
BRANCH  21  25
HETATM   25  C           1     -21.401  -9.797   0.194  0.00  0.00     0.074 C 
BRANCH  25  26
HETATM   26  C           1     -22.084 -11.130   0.194  0.00  0.00    -0.056 A 
HETATM   27  C           1     -21.553 -12.184   0.935  0.00  0.00     0.010 A 
HETATM   28  C           1     -22.190 -13.426   0.936  0.00  0.00     0.037 A 
HETATM   29  C           1     -23.357 -13.612   0.194  0.00  0.00     0.065 A 
HETATM   30  C           1     -23.888 -12.556  -0.547  0.00  0.00     0.037 A 
HETATM   31  C           1     -23.251 -11.315  -0.547  0.00  0.00     0.010 A 
BRANCH  29  32
HETATM   32  O           1     -23.975 -14.817   0.194  0.00  0.00    -0.361 OA
HETATM   33  H           1     -23.290 -15.506   0.239  0.00  0.00     0.217 HD
ENDBRANCH  29  32
ENDBRANCH  25  26
ENDBRANCH  21  25
ENDBRANCH   2  21
TORSDOF 9
ENDMDL
MODEL 9
REMARK VINA RESULT:      -7.4      3.115      8.607
REMARK  9 active torsions:
REMARK  status: ('A' for Active; 'I' for Inactive)
REMARK    1  A    between atoms: C_1  and  C_25 
REMARK    2  A    between atoms: C_5  and  C_11 
REMARK    3  A    between atoms: N_6  and  C_25 
REMARK       I    between atoms: N_6  and  C_23 
REMARK    4  A    between atoms: N_10  and  C_12 
REMARK    5  A    between atoms: C_11  and  C_12 
REMARK    6  A    between atoms: C_12  and  C_23 
REMARK    7  A    between atoms: C_25  and  C_26 
REMARK    8  A    between atoms: C_26  and  C_29 
REMARK    9  A    between atoms: C_32  and  O_33 
ROOT
HETATM    1  H           1     -22.446  -9.080  -3.804  0.00  0.00     0.163 HD
HETATM    2  N           1     -21.666  -8.646  -4.282  0.00  0.00    -0.344 N 
HETATM    3  O           1     -19.921  -8.881  -5.654  0.00  0.00    -0.271 OA
HETATM    4  C           1     -20.852  -9.398  -5.084  0.00  0.00     0.249 C 
ENDROOT
BRANCH   4   5
HETATM    5  C           1     -21.117 -10.874  -5.258  0.00  0.00     0.278 C 
BRANCH   5   6
HETATM    6  N           1     -20.528 -11.337  -6.557  0.00  0.00    -0.066 N 
HETATM    7  H           1     -21.021 -10.868  -7.351  0.00  0.00     0.275 HD
HETATM    8  H           1     -19.513 -11.092  -6.586  0.00  0.00     0.275 HD
HETATM    9  H           1     -20.640 -12.373  -6.642  0.00  0.00     0.275 HD
ENDBRANCH   5   6
BRANCH   5  10
HETATM   10  C           1     -20.479 -11.644  -4.109  0.00  0.00     0.083 C 
BRANCH  10  11
HETATM   11  C           1     -21.546 -12.331  -3.315  0.00  0.00    -0.028 A 
HETATM   12  C           1     -22.004 -13.614  -3.511  0.00  0.00     0.096 A 
HETATM   13  N           1     -22.978 -13.858  -2.579  0.00  0.00    -0.365 N 
HETATM   14  C           1     -23.159 -12.752  -1.780  0.00  0.00     0.042 A 
HETATM   15  H           1     -23.509 -14.758  -2.487  0.00  0.00     0.165 HD
HETATM   16  C           1     -22.268 -11.774  -2.224  0.00  0.00    -0.002 A 
HETATM   17  C           1     -24.037 -12.544  -0.708  0.00  0.00     0.030 A 
HETATM   18  C           1     -22.248 -10.528  -1.569  0.00  0.00     0.014 A 
HETATM   19  C           1     -23.118 -10.303  -0.496  0.00  0.00     0.001 A 
HETATM   20  C           1     -23.998 -11.298  -0.074  0.00  0.00     0.002 A 
ENDBRANCH  10  11
ENDBRANCH   5  10
ENDBRANCH   4   5
BRANCH   2  21
HETATM   21  C           1     -21.412  -7.229  -4.115  0.00  0.00     0.189 C 
BRANCH  21  22
HETATM   22  C           1     -21.586  -6.854  -2.664  0.00  0.00     0.197 C 
HETATM   23  O           1     -20.898  -7.419  -1.786  0.00  0.00    -0.646 OA
HETATM   24  O           1     -22.419  -5.980  -2.340  0.00  0.00    -0.646 OA
ENDBRANCH  21  22
BRANCH  21  25
HETATM   25  C           1     -22.393  -6.433  -4.965  0.00  0.00     0.074 C 
BRANCH  25  26
HETATM   26  C           1     -21.638  -5.597  -5.951  0.00  0.00    -0.056 A 
HETATM   27  C           1     -20.246  -5.535  -5.890  0.00  0.00     0.010 A 
HETATM   28  C           1     -19.541  -4.757  -6.808  0.00  0.00     0.037 A 
HETATM   29  C           1     -20.229  -4.040  -7.788  0.00  0.00     0.065 A 
HETATM   30  C           1     -21.622  -4.103  -7.849  0.00  0.00     0.037 A 
HETATM   31  C           1     -22.326  -4.881  -6.930  0.00  0.00     0.010 A 
BRANCH  29  32
HETATM   32  O           1     -19.546  -3.284  -8.680  0.00  0.00    -0.361 OA
HETATM   33  H           1     -18.692  -3.045  -8.279  0.00  0.00     0.217 HD
ENDBRANCH  29  32
ENDBRANCH  25  26
ENDBRANCH  21  25
ENDBRANCH   2  21
TORSDOF 9
ENDMDL
