MODEL 1
REMARK VINA RESULT:      -7.2      0.000      0.000
REMARK  16 active torsions:
REMARK  status: ('A' for Active; 'I' for Inactive)
REMARK       I    between atoms: C_1  and  N_23 
REMARK    1  A    between atoms: C_1  and  C_21 
REMARK    2  A    between atoms: C_3  and  C_4 
REMARK    3  A    between atoms: C_4  and  C_5 
REMARK    4  A    between atoms: C_4  and  N_33 
REMARK    5  A    between atoms: C_5  and  C_6 
REMARK    6  A    between atoms: C_6  and  C_8 
REMARK    7  A    between atoms: C_13  and  C_30 
REMARK       I    between atoms: N_14  and  C_16 
REMARK       I    between atoms: N_15  and  C_16 
REMARK    8  A    between atoms: N_17  and  C_18 
REMARK    9  A    between atoms: C_18  and  C_19 
REMARK   10  A    between atoms: C_19  and  C_20 
REMARK   11  A    between atoms: C_20  and  C_21 
REMARK   12  A    between atoms: C_21  and  N_36 
REMARK   13  A    between atoms: N_23  and  C_30 
REMARK   14  A    between atoms: C_30  and  C_31 
REMARK   15  A    between atoms: C_31  and  C_32 
REMARK   16  A    between atoms: C_32  and  N_33 
ROOT
HETATM    1  C           1     -22.363  -4.128  -8.109  0.00  0.00     0.249 C 
HETATM    2  H           1     -22.503  -5.928  -7.095  0.00  0.00     0.163 HD
HETATM    3  N           1     -21.981  -5.065  -7.186  0.00  0.00    -0.345 N 
HETATM    4  O           1     -21.742  -3.099  -8.217  0.00  0.00    -0.271 OA
ENDROOT
BRANCH   1   5
HETATM    5  C           1     -23.561  -4.383  -8.990  0.00  0.00     0.274 C 
BRANCH   5   6
HETATM    6  C           1     -23.112  -4.484 -10.442  0.00  0.00     0.044 C 
BRANCH   6   7
HETATM    7  C           1     -23.468  -3.198 -11.175  0.00  0.00     0.023 C 
BRANCH   7   8
HETATM    8  C           1     -23.952  -3.530 -12.580  0.00  0.00     0.138 C 
BRANCH   8   9
HETATM    9  N           1     -24.220  -2.285 -13.315  0.00  0.00    -0.227 N 
HETATM   10  C           1     -23.546  -2.003 -14.348  0.00  0.00     0.665 C 
HETATM   11  N           1     -22.616  -2.813 -14.760  0.00  0.00    -0.235 N 
HETATM   12  N           1     -23.776  -0.930 -14.981  0.00  0.00    -0.235 N 
HETATM   13  H           1     -22.060  -2.580 -15.613  0.00  0.00     0.174 HD
HETATM   14  H           1     -22.427  -3.698 -14.238  0.00  0.00     0.174 HD
HETATM   15  H           1     -23.217  -0.696 -15.838  0.00  0.00     0.174 HD
HETATM   16  H           1     -24.527  -0.276 -14.648  0.00  0.00     0.174 HD
HETATM   17  H           1     -24.970  -1.630 -12.982  0.00  0.00     0.177 HD
ENDBRANCH   8   9
ENDBRANCH   7   8
ENDBRANCH   6   7
ENDBRANCH   5   6
BRANCH   5  18
HETATM   18  N           1     -24.536  -3.252  -8.847  0.00  0.00    -0.067 N 
HETATM   19  H           1     -24.913  -3.238  -7.872  0.00  0.00     0.275 HD
HETATM   20  H           1     -25.323  -3.384  -9.522  0.00  0.00     0.275 HD
HETATM   21  H           1     -24.054  -2.348  -9.049  0.00  0.00     0.275 HD
ENDBRANCH   5  18
ENDBRANCH   1   5
BRANCH   3  22
HETATM   22  C           1     -20.830  -4.821  -6.338  0.00  0.00     0.187 C 
BRANCH  22  23
HETATM   23  C           1     -19.586  -5.333  -7.023  0.00  0.00     0.196 C 
HETATM   24  O           1     -18.686  -4.535  -7.361  0.00  0.00    -0.646 OA
HETATM   25  O           1     -19.456  -6.555  -7.250  0.00  0.00    -0.646 OA
ENDBRANCH  22  23
BRANCH  22  26
HETATM   26  C           1     -21.015  -5.545  -5.011  0.00  0.00     0.066 C 
BRANCH  26  27
HETATM   27  C           1     -22.117  -6.586  -5.150  0.00  0.00     0.273 C 
BRANCH  27  28
HETATM   28  N           1     -21.530  -7.885  -5.339  0.00  0.00     0.098 N 
HETATM   29  H           1     -21.049  -7.914  -6.238  0.00  0.00     0.317 HD
BRANCH  28  30
HETATM   30  C           1     -20.580  -8.093  -4.280  0.00  0.00     0.320 C 
BRANCH  30  31
HETATM   31  C           1     -19.521  -9.066  -4.739  0.00  0.00     0.207 C 
HETATM   32  O           1     -18.379  -9.031  -4.232  0.00  0.00    -0.646 OA
HETATM   33  O           1     -19.786  -9.906  -5.626  0.00  0.00    -0.646 OA
ENDBRANCH  30  31
BRANCH  30  34
HETATM   34  C           1     -21.297  -8.661  -3.062  0.00  0.00     0.057 C 
BRANCH  34  35
HETATM   35  C           1     -20.866  -7.896  -1.817  0.00  0.00     0.116 C 
BRANCH  35  36
HETATM   36  C           1     -22.058  -7.685  -0.917  0.00  0.00     0.172 C 
HETATM   37  O           1     -22.721  -6.628  -0.993  0.00  0.00    -0.648 OA
HETATM   38  O           1     -22.384  -8.569  -0.094  0.00  0.00    -0.648 OA
ENDBRANCH  35  36
ENDBRANCH  34  35
ENDBRANCH  30  34
ENDBRANCH  28  30
ENDBRANCH  27  28
ENDBRANCH  26  27
ENDBRANCH  22  26
ENDBRANCH   3  22
TORSDOF 16
ENDMDL
MODEL 2
REMARK VINA RESULT:      -7.2      2.803      9.271
REMARK  16 active torsions:
REMARK  status: ('A' for Active; 'I' for Inactive)
REMARK       I    between atoms: C_1  and  N_23 
REMARK    1  A    between atoms: C_1  and  C_21 
REMARK    2  A    between atoms: C_3  and  C_4 
REMARK    3  A    between atoms: C_4  and  C_5 
REMARK    4  A    between atoms: C_4  and  N_33 
REMARK    5  A    between atoms: C_5  and  C_6 
REMARK    6  A    between atoms: C_6  and  C_8 
REMARK    7  A    between atoms: C_13  and  C_30 
REMARK       I    between atoms: N_14  and  C_16 
REMARK       I    between atoms: N_15  and  C_16 
REMARK    8  A    between atoms: N_17  and  C_18 
REMARK    9  A    between atoms: C_18  and  C_19 
REMARK   10  A    between atoms: C_19  and  C_20 
REMARK   11  A    between atoms: C_20  and  C_21 
REMARK   12  A    between atoms: C_21  and  N_36 
REMARK   13  A    between atoms: N_23  and  C_30 
REMARK   14  A    between atoms: C_30  and  C_31 
REMARK   15  A    between atoms: C_31  and  C_32 
REMARK   16  A    between atoms: C_32  and  N_33 
ROOT
HETATM    1  C           1     -21.584  -6.472  -4.390  0.00  0.00     0.249 C 
HETATM    2  H           1     -20.422  -4.777  -4.640  0.00  0.00     0.163 HD
HETATM    3  N           1     -21.002  -5.462  -5.109  0.00  0.00    -0.345 N 
HETATM    4  O           1     -22.276  -7.289  -4.948  0.00  0.00    -0.271 OA
ENDROOT
BRANCH   1   5
HETATM    5  C           1     -21.362  -6.563  -2.900  0.00  0.00     0.274 C 
BRANCH   5   6
HETATM    6  C           1     -21.357  -8.025  -2.476  0.00  0.00     0.044 C 
BRANCH   6   7
HETATM    7  C           1     -19.931  -8.459  -2.164  0.00  0.00     0.023 C 
BRANCH   7   8
HETATM    8  C           1     -19.535  -9.605  -3.086  0.00  0.00     0.138 C 
BRANCH   8   9
HETATM    9  N           1     -18.977  -9.062  -4.334  0.00  0.00    -0.227 N 
HETATM   10  C           1     -18.565  -9.846  -5.237  0.00  0.00     0.665 C 
HETATM   11  N           1     -18.636 -11.134  -5.063  0.00  0.00    -0.235 N 
HETATM   12  N           1     -18.084  -9.379  -6.311  0.00  0.00    -0.235 N 
HETATM   13  H           1     -18.296 -11.781  -5.810  0.00  0.00     0.174 HD
HETATM   14  H           1     -19.033 -11.519  -4.178  0.00  0.00     0.174 HD
HETATM   15  H           1     -17.742 -10.030  -7.061  0.00  0.00     0.174 HD
HETATM   16  H           1     -18.027  -8.340  -6.452  0.00  0.00     0.174 HD
HETATM   17  H           1     -18.919  -8.023  -4.474  0.00  0.00     0.177 HD
ENDBRANCH   8   9
ENDBRANCH   7   8
ENDBRANCH   6   7
ENDBRANCH   5   6
BRANCH   5  18
HETATM   18  N           1     -22.465  -5.840  -2.185  0.00  0.00    -0.067 N 
HETATM   19  H           1     -22.435  -6.079  -1.168  0.00  0.00     0.275 HD
HETATM   20  H           1     -23.386  -6.129  -2.585  0.00  0.00     0.275 HD
HETATM   21  H           1     -22.341  -4.810  -2.304  0.00  0.00     0.275 HD
ENDBRANCH   5  18
ENDBRANCH   1   5
BRANCH   3  22
HETATM   22  C           1     -21.215  -5.374  -6.540  0.00  0.00     0.187 C 
BRANCH  22  23
HETATM   23  C           1     -20.007  -5.919  -7.262  0.00  0.00     0.196 C 
HETATM   24  O           1     -19.392  -6.902  -6.797  0.00  0.00    -0.646 OA
HETATM   25  O           1     -19.622  -5.386  -8.325  0.00  0.00    -0.646 OA
ENDBRANCH  22  23
BRANCH  22  26
HETATM   26  C           1     -21.429  -3.917  -6.932  0.00  0.00     0.066 C 
BRANCH  26  27
HETATM   27  C           1     -22.641  -3.810  -7.847  0.00  0.00     0.273 C 
BRANCH  27  28
HETATM   28  N           1     -22.288  -4.256  -9.168  0.00  0.00     0.098 N 
HETATM   29  H           1     -22.498  -5.249  -9.259  0.00  0.00     0.317 HD
BRANCH  28  30
HETATM   30  C           1     -23.081  -3.509 -10.107  0.00  0.00     0.320 C 
BRANCH  30  31
HETATM   31  C           1     -24.535  -3.879  -9.941  0.00  0.00     0.207 C 
HETATM   32  O           1     -25.401  -2.982  -9.844  0.00  0.00    -0.646 OA
HETATM   33  O           1     -24.874  -5.081  -9.899  0.00  0.00    -0.646 OA
ENDBRANCH  30  31
BRANCH  30  34
HETATM   34  C           1     -22.632  -3.840 -11.524  0.00  0.00     0.057 C 
BRANCH  34  35
HETATM   35  C           1     -22.740  -2.595 -12.394  0.00  0.00     0.116 C 
BRANCH  35  36
HETATM   36  C           1     -23.775  -2.820 -13.469  0.00  0.00     0.172 C 
HETATM   37  O           1     -24.986  -2.895 -13.167  0.00  0.00    -0.648 OA
HETATM   38  O           1     -23.421  -2.931 -14.663  0.00  0.00    -0.648 OA
ENDBRANCH  35  36
ENDBRANCH  34  35
ENDBRANCH  30  34
ENDBRANCH  28  30
ENDBRANCH  27  28
ENDBRANCH  26  27
ENDBRANCH  22  26
ENDBRANCH   3  22
TORSDOF 16
ENDMDL
MODEL 3
REMARK VINA RESULT:      -6.9      1.761      3.616
REMARK  16 active torsions:
REMARK  status: ('A' for Active; 'I' for Inactive)
REMARK       I    between atoms: C_1  and  N_23 
REMARK    1  A    between atoms: C_1  and  C_21 
REMARK    2  A    between atoms: C_3  and  C_4 
REMARK    3  A    between atoms: C_4  and  C_5 
REMARK    4  A    between atoms: C_4  and  N_33 
REMARK    5  A    between atoms: C_5  and  C_6 
REMARK    6  A    between atoms: C_6  and  C_8 
REMARK    7  A    between atoms: C_13  and  C_30 
REMARK       I    between atoms: N_14  and  C_16 
REMARK       I    between atoms: N_15  and  C_16 
REMARK    8  A    between atoms: N_17  and  C_18 
REMARK    9  A    between atoms: C_18  and  C_19 
REMARK   10  A    between atoms: C_19  and  C_20 
REMARK   11  A    between atoms: C_20  and  C_21 
REMARK   12  A    between atoms: C_21  and  N_36 
REMARK   13  A    between atoms: N_23  and  C_30 
REMARK   14  A    between atoms: C_30  and  C_31 
REMARK   15  A    between atoms: C_31  and  C_32 
REMARK   16  A    between atoms: C_32  and  N_33 
ROOT
HETATM    1  C           1     -20.918  -5.101  -7.148  0.00  0.00     0.249 C 
HETATM    2  H           1     -22.683  -5.926  -6.447  0.00  0.00     0.163 HD
HETATM    3  N           1     -21.697  -5.795  -6.260  0.00  0.00    -0.345 N 
HETATM    4  O           1     -19.742  -4.944  -6.926  0.00  0.00    -0.271 OA
ENDROOT
BRANCH   1   5
HETATM    5  C           1     -21.531  -4.532  -8.405  0.00  0.00     0.274 C 
BRANCH   5   6
HETATM    6  C           1     -20.445  -3.880  -9.249  0.00  0.00     0.044 C 
BRANCH   6   7
HETATM    7  C           1     -20.537  -4.393 -10.680  0.00  0.00     0.023 C 
BRANCH   7   8
HETATM    8  C           1     -21.948  -4.171 -11.210  0.00  0.00     0.138 C 
BRANCH   8   9
HETATM    9  N           1     -21.900  -3.978 -12.667  0.00  0.00    -0.227 N 
HETATM   10  C           1     -22.625  -3.095 -13.212  0.00  0.00     0.665 C 
HETATM   11  N           1     -23.412  -2.359 -12.484  0.00  0.00    -0.235 N 
HETATM   12  N           1     -22.585  -2.929 -14.466  0.00  0.00    -0.235 N 
HETATM   13  H           1     -24.010  -1.630 -12.934  0.00  0.00     0.174 HD
HETATM   14  H           1     -23.445  -2.496 -11.449  0.00  0.00     0.174 HD
HETATM   15  H           1     -23.186  -2.196 -14.919  0.00  0.00     0.174 HD
HETATM   16  H           1     -21.949  -3.523 -15.055  0.00  0.00     0.174 HD
HETATM   17  H           1     -21.265  -4.573 -13.255  0.00  0.00     0.177 HD
ENDBRANCH   8   9
ENDBRANCH   7   8
ENDBRANCH   6   7
ENDBRANCH   5   6
BRANCH   5  18
HETATM   18  N           1     -22.561  -3.506  -8.038  0.00  0.00    -0.067 N 
HETATM   19  H           1     -23.294  -3.948  -7.437  0.00  0.00     0.275 HD
HETATM   20  H           1     -23.003  -3.131  -8.907  0.00  0.00     0.275 HD
HETATM   21  H           1     -22.106  -2.726  -7.515  0.00  0.00     0.275 HD
ENDBRANCH   5  18
ENDBRANCH   1   5
BRANCH   3  22
HETATM   22  C           1     -21.108  -6.341  -5.053  0.00  0.00     0.187 C 
BRANCH  22  23
HETATM   23  C           1     -20.709  -7.776  -5.294  0.00  0.00     0.196 C 
HETATM   24  O           1     -19.559  -8.044  -5.704  0.00  0.00    -0.646 OA
HETATM   25  O           1     -21.527  -8.696  -5.084  0.00  0.00    -0.646 OA
ENDBRANCH  22  23
BRANCH  22  26
HETATM   26  C           1     -22.126  -6.280  -3.921  0.00  0.00     0.066 C 
BRANCH  26  27
HETATM   27  C           1     -21.398  -6.138  -2.591  0.00  0.00     0.273 C 
BRANCH  27  28
HETATM   28  N           1     -22.262  -6.562  -1.522  0.00  0.00     0.098 N 
HETATM   29  H           1     -23.235  -6.438  -1.801  0.00  0.00     0.317 HD
BRANCH  28  30
HETATM   30  C           1     -22.006  -7.957  -1.282  0.00  0.00     0.320 C 
BRANCH  30  31
HETATM   31  C           1     -22.512  -8.330   0.091  0.00  0.00     0.207 C 
HETATM   32  O           1     -23.468  -9.127   0.209  0.00  0.00    -0.646 OA
HETATM   33  O           1     -21.974  -7.843   1.109  0.00  0.00    -0.646 OA
ENDBRANCH  30  31
BRANCH  30  34
HETATM   34  C           1     -20.508  -8.217  -1.360  0.00  0.00     0.057 C 
BRANCH  34  35
HETATM   35  C           1     -20.260  -9.709  -1.534  0.00  0.00     0.116 C 
BRANCH  35  36
HETATM   36  C           1     -19.244  -9.927  -2.629  0.00  0.00     0.172 C 
HETATM   37  O           1     -18.181  -9.269  -2.635  0.00  0.00    -0.648 OA
HETATM   38  O           1     -19.466 -10.765  -3.530  0.00  0.00    -0.648 OA
ENDBRANCH  35  36
ENDBRANCH  34  35
ENDBRANCH  30  34
ENDBRANCH  28  30
ENDBRANCH  27  28
ENDBRANCH  26  27
ENDBRANCH  22  26
ENDBRANCH   3  22
TORSDOF 16
ENDMDL
MODEL 4
REMARK VINA RESULT:      -6.9      2.953      9.802
REMARK  16 active torsions:
REMARK  status: ('A' for Active; 'I' for Inactive)
REMARK       I    between atoms: C_1  and  N_23 
REMARK    1  A    between atoms: C_1  and  C_21 
REMARK    2  A    between atoms: C_3  and  C_4 
REMARK    3  A    between atoms: C_4  and  C_5 
REMARK    4  A    between atoms: C_4  and  N_33 
REMARK    5  A    between atoms: C_5  and  C_6 
REMARK    6  A    between atoms: C_6  and  C_8 
REMARK    7  A    between atoms: C_13  and  C_30 
REMARK       I    between atoms: N_14  and  C_16 
REMARK       I    between atoms: N_15  and  C_16 
REMARK    8  A    between atoms: N_17  and  C_18 
REMARK    9  A    between atoms: C_18  and  C_19 
REMARK   10  A    between atoms: C_19  and  C_20 
REMARK   11  A    between atoms: C_20  and  C_21 
REMARK   12  A    between atoms: C_21  and  N_36 
REMARK   13  A    between atoms: N_23  and  C_30 
REMARK   14  A    between atoms: C_30  and  C_31 
REMARK   15  A    between atoms: C_31  and  C_32 
REMARK   16  A    between atoms: C_32  and  N_33 
ROOT
HETATM    1  C           1     -21.480  -6.707  -4.088  0.00  0.00     0.249 C 
HETATM    2  H           1     -20.784  -4.783  -4.404  0.00  0.00     0.163 HD
HETATM    3  N           1     -21.134  -5.623  -4.849  0.00  0.00    -0.345 N 
HETATM    4  O           1     -21.898  -7.708  -4.618  0.00  0.00    -0.271 OA
ENDROOT
BRANCH   1   5
HETATM    5  C           1     -21.340  -6.651  -2.587  0.00  0.00     0.274 C 
BRANCH   5   6
HETATM    6  C           1     -21.570  -8.038  -2.002  0.00  0.00     0.044 C 
BRANCH   6   7
HETATM    7  C           1     -21.530  -7.962  -0.482  0.00  0.00     0.023 C 
BRANCH   7   8
HETATM    8  C           1     -22.326  -9.120   0.106  0.00  0.00     0.138 C 
BRANCH   8   9
HETATM    9  N           1     -22.112 -10.326  -0.707  0.00  0.00    -0.227 N 
HETATM   10  C           1     -23.032 -11.188  -0.816  0.00  0.00     0.665 C 
HETATM   11  N           1     -24.167 -11.007  -0.207  0.00  0.00    -0.235 N 
HETATM   12  N           1     -22.848 -12.227  -1.515  0.00  0.00    -0.235 N 
HETATM   13  H           1     -24.927 -11.719  -0.297  0.00  0.00     0.174 HD
HETATM   14  H           1     -24.319 -10.150   0.370  0.00  0.00     0.174 HD
HETATM   15  H           1     -23.612 -12.942  -1.605  0.00  0.00     0.174 HD
HETATM   16  H           1     -21.931 -12.373  -2.007  0.00  0.00     0.174 HD
HETATM   17  H           1     -21.195 -10.472  -1.198  0.00  0.00     0.177 HD
ENDBRANCH   8   9
ENDBRANCH   7   8
ENDBRANCH   6   7
ENDBRANCH   5   6
BRANCH   5  18
HETATM   18  N           1     -22.355  -5.699  -2.025  0.00  0.00    -0.067 N 
HETATM   19  H           1     -23.214  -6.228  -1.750  0.00  0.00     0.275 HD
HETATM   20  H           1     -22.602  -4.987  -2.750  0.00  0.00     0.275 HD
HETATM   21  H           1     -21.958  -5.219  -1.188  0.00  0.00     0.275 HD
ENDBRANCH   5  18
ENDBRANCH   1   5
BRANCH   3  22
HETATM   22  C           1     -21.269  -5.676  -6.292  0.00  0.00     0.187 C 
BRANCH  22  23
HETATM   23  C           1     -19.898  -5.737  -6.921  0.00  0.00     0.196 C 
HETATM   24  O           1     -19.357  -6.842  -7.136  0.00  0.00    -0.646 OA
HETATM   25  O           1     -19.305  -4.680  -7.229  0.00  0.00    -0.646 OA
ENDBRANCH  22  23
BRANCH  22  26
HETATM   26  C           1     -21.998  -4.432  -6.780  0.00  0.00     0.066 C 
BRANCH  26  27
HETATM   27  C           1     -22.676  -4.729  -8.110  0.00  0.00     0.273 C 
BRANCH  27  28
HETATM   28  N           1     -23.505  -3.616  -8.487  0.00  0.00     0.098 N 
HETATM   29  H           1     -23.159  -2.767  -8.041  0.00  0.00     0.317 HD
BRANCH  28  30
HETATM   30  C           1     -23.424  -3.475  -9.916  0.00  0.00     0.320 C 
BRANCH  30  31
HETATM   31  C           1     -24.803  -3.221 -10.475  0.00  0.00     0.207 C 
HETATM   32  O           1     -24.957  -3.048 -11.703  0.00  0.00    -0.646 OA
HETATM   33  O           1     -25.791  -3.186  -9.709  0.00  0.00    -0.646 OA
ENDBRANCH  30  31
BRANCH  30  34
HETATM   34  C           1     -22.858  -4.754 -10.519  0.00  0.00     0.057 C 
BRANCH  34  35
HETATM   35  C           1     -21.925  -4.403 -11.670  0.00  0.00     0.116 C 
BRANCH  35  36
HETATM   36  C           1     -20.585  -3.977 -11.121  0.00  0.00     0.172 C 
HETATM   37  O           1     -20.205  -2.792 -11.248  0.00  0.00    -0.648 OA
HETATM   38  O           1     -19.855  -4.808 -10.540  0.00  0.00    -0.648 OA
ENDBRANCH  35  36
ENDBRANCH  34  35
ENDBRANCH  30  34
ENDBRANCH  28  30
ENDBRANCH  27  28
ENDBRANCH  26  27
ENDBRANCH  22  26
ENDBRANCH   3  22
TORSDOF 16
ENDMDL
MODEL 5
REMARK VINA RESULT:      -6.8      3.281      9.196
REMARK  16 active torsions:
REMARK  status: ('A' for Active; 'I' for Inactive)
REMARK       I    between atoms: C_1  and  N_23 
REMARK    1  A    between atoms: C_1  and  C_21 
REMARK    2  A    between atoms: C_3  and  C_4 
REMARK    3  A    between atoms: C_4  and  C_5 
REMARK    4  A    between atoms: C_4  and  N_33 
REMARK    5  A    between atoms: C_5  and  C_6 
REMARK    6  A    between atoms: C_6  and  C_8 
REMARK    7  A    between atoms: C_13  and  C_30 
REMARK       I    between atoms: N_14  and  C_16 
REMARK       I    between atoms: N_15  and  C_16 
REMARK    8  A    between atoms: N_17  and  C_18 
REMARK    9  A    between atoms: C_18  and  C_19 
REMARK   10  A    between atoms: C_19  and  C_20 
REMARK   11  A    between atoms: C_20  and  C_21 
REMARK   12  A    between atoms: C_21  and  N_36 
REMARK   13  A    between atoms: N_23  and  C_30 
REMARK   14  A    between atoms: C_30  and  C_31 
REMARK   15  A    between atoms: C_31  and  C_32 
REMARK   16  A    between atoms: C_32  and  N_33 
ROOT
HETATM    1  C           1     -20.400  -9.128  -4.989  0.00  0.00     0.249 C 
HETATM    2  H           1     -21.830  -8.588  -6.386  0.00  0.00     0.163 HD
HETATM    3  N           1     -21.112  -8.247  -5.759  0.00  0.00    -0.345 N 
HETATM    4  O           1     -19.543  -8.722  -4.242  0.00  0.00    -0.271 OA
ENDROOT
BRANCH   1   5
HETATM    5  C           1     -20.688 -10.607  -5.074  0.00  0.00     0.274 C 
BRANCH   5   6
HETATM    6  C           1     -20.556 -11.231  -3.691  0.00  0.00     0.044 C 
BRANCH   6   7
HETATM    7  C           1     -21.813 -10.944  -2.882  0.00  0.00     0.023 C 
BRANCH   7   8
HETATM    8  C           1     -21.423 -10.435  -1.500  0.00  0.00     0.138 C 
BRANCH   8   9
HETATM    9  N           1     -22.220  -9.244  -1.173  0.00  0.00    -0.227 N 
HETATM   10  C           1     -21.695  -8.094  -1.237  0.00  0.00     0.665 C 
HETATM   11  N           1     -20.451  -7.966  -1.593  0.00  0.00    -0.235 N 
HETATM   12  N           1     -22.381  -7.068  -0.955  0.00  0.00    -0.235 N 
HETATM   13  H           1     -20.018  -7.017  -1.647  0.00  0.00     0.174 HD
HETATM   14  H           1     -19.885  -8.813  -1.826  0.00  0.00     0.174 HD
HETATM   15  H           1     -21.946  -6.113  -1.009  0.00  0.00     0.174 HD
HETATM   16  H           1     -23.386  -7.171  -0.668  0.00  0.00     0.174 HD
HETATM   17  H           1     -23.224  -9.347  -0.884  0.00  0.00     0.177 HD
ENDBRANCH   8   9
ENDBRANCH   7   8
ENDBRANCH   6   7
ENDBRANCH   5   6
BRANCH   5  18
HETATM   18  N           1     -19.710 -11.254  -6.009  0.00  0.00    -0.067 N 
HETATM   19  H           1     -19.426 -12.184  -5.627  0.00  0.00     0.275 HD
HETATM   20  H           1     -18.866 -10.644  -6.105  0.00  0.00     0.275 HD
HETATM   21  H           1     -20.154 -11.382  -6.945  0.00  0.00     0.275 HD
ENDBRANCH   5  18
ENDBRANCH   1   5
BRANCH   3  22
HETATM   22  C           1     -20.835  -6.826  -5.678  0.00  0.00     0.187 C 
BRANCH  22  23
HETATM   23  C           1     -21.825  -6.175  -4.743  0.00  0.00     0.196 C 
HETATM   24  O           1     -23.027  -6.083  -5.071  0.00  0.00    -0.646 OA
HETATM   25  O           1     -21.442  -5.729  -3.640  0.00  0.00    -0.646 OA
ENDBRANCH  22  23
BRANCH  22  26
HETATM   26  C           1     -20.960  -6.205  -7.064  0.00  0.00     0.066 C 
BRANCH  26  27
HETATM   27  C           1     -19.934  -5.090  -7.215  0.00  0.00     0.273 C 
BRANCH  27  28
HETATM   28  N           1     -20.562  -3.935  -7.798  0.00  0.00     0.098 N 
HETATM   29  H           1     -19.846  -3.297  -8.143  0.00  0.00     0.317 HD
BRANCH  28  30
HETATM   30  C           1     -21.373  -4.386  -8.896  0.00  0.00     0.320 C 
BRANCH  30  31
HETATM   31  C           1     -20.656  -4.114 -10.195  0.00  0.00     0.207 C 
HETATM   32  O           1     -20.911  -3.076 -10.844  0.00  0.00    -0.646 OA
HETATM   33  O           1     -19.806  -4.926 -10.623  0.00  0.00    -0.646 OA
ENDBRANCH  30  31
BRANCH  30  34
HETATM   34  C           1     -22.702  -3.642  -8.883  0.00  0.00     0.057 C 
BRANCH  34  35
HETATM   35  C           1     -23.719  -4.404  -9.722  0.00  0.00     0.116 C 
BRANCH  35  36
HETATM   36  C           1     -24.633  -3.426 -10.418  0.00  0.00     0.172 C 
HETATM   37  O           1     -24.279  -2.897 -11.494  0.00  0.00    -0.648 OA
HETATM   38  O           1     -25.744  -3.145  -9.919  0.00  0.00    -0.648 OA
ENDBRANCH  35  36
ENDBRANCH  34  35
ENDBRANCH  30  34
ENDBRANCH  28  30
ENDBRANCH  27  28
ENDBRANCH  26  27
ENDBRANCH  22  26
ENDBRANCH   3  22
TORSDOF 16
ENDMDL
MODEL 6
REMARK VINA RESULT:      -6.8      2.659      4.737
REMARK  16 active torsions:
REMARK  status: ('A' for Active; 'I' for Inactive)
REMARK       I    between atoms: C_1  and  N_23 
REMARK    1  A    between atoms: C_1  and  C_21 
REMARK    2  A    between atoms: C_3  and  C_4 
REMARK    3  A    between atoms: C_4  and  C_5 
REMARK    4  A    between atoms: C_4  and  N_33 
REMARK    5  A    between atoms: C_5  and  C_6 
REMARK    6  A    between atoms: C_6  and  C_8 
REMARK    7  A    between atoms: C_13  and  C_30 
REMARK       I    between atoms: N_14  and  C_16 
REMARK       I    between atoms: N_15  and  C_16 
REMARK    8  A    between atoms: N_17  and  C_18 
REMARK    9  A    between atoms: C_18  and  C_19 
REMARK   10  A    between atoms: C_19  and  C_20 
REMARK   11  A    between atoms: C_20  and  C_21 
REMARK   12  A    between atoms: C_21  and  N_36 
REMARK   13  A    between atoms: N_23  and  C_30 
REMARK   14  A    between atoms: C_30  and  C_31 
REMARK   15  A    between atoms: C_31  and  C_32 
REMARK   16  A    between atoms: C_32  and  N_33 
ROOT
HETATM    1  C           1     -20.779  -7.335  -5.870  0.00  0.00     0.249 C 
HETATM    2  H           1     -22.294  -8.291  -4.831  0.00  0.00     0.163 HD
HETATM    3  N           1     -21.329  -8.349  -5.133  0.00  0.00    -0.345 N 
HETATM    4  O           1     -19.628  -7.403  -6.229  0.00  0.00    -0.271 OA
ENDROOT
BRANCH   1   5
HETATM    5  C           1     -21.613  -6.130  -6.234  0.00  0.00     0.274 C 
BRANCH   5   6
HETATM    6  C           1     -20.723  -4.896  -6.295  0.00  0.00     0.044 C 
BRANCH   6   7
HETATM    7  C           1     -21.452  -3.779  -7.030  0.00  0.00     0.023 C 
BRANCH   7   8
HETATM    8  C           1     -22.088  -4.335  -8.298  0.00  0.00     0.138 C 
BRANCH   8   9
HETATM    9  N           1     -23.413  -3.728  -8.489  0.00  0.00    -0.227 N 
HETATM   10  C           1     -24.131  -4.072  -9.474  0.00  0.00     0.665 C 
HETATM   11  N           1     -23.696  -4.963 -10.316  0.00  0.00    -0.235 N 
HETATM   12  N           1     -25.271  -3.549  -9.639  0.00  0.00    -0.235 N 
HETATM   13  H           1     -24.288  -5.246 -11.128  0.00  0.00     0.174 HD
HETATM   14  H           1     -22.754  -5.394 -10.179  0.00  0.00     0.174 HD
HETATM   15  H           1     -25.867  -3.835 -10.456  0.00  0.00     0.174 HD
HETATM   16  H           1     -25.623  -2.830  -8.959  0.00  0.00     0.174 HD
HETATM   17  H           1     -23.764  -3.009  -7.810  0.00  0.00     0.177 HD
ENDBRANCH   8   9
ENDBRANCH   7   8
ENDBRANCH   6   7
ENDBRANCH   5   6
BRANCH   5  18
HETATM   18  N           1     -22.677  -5.927  -5.196  0.00  0.00    -0.067 N 
HETATM   19  H           1     -22.248  -5.974  -4.244  0.00  0.00     0.275 HD
HETATM   20  H           1     -23.401  -6.674  -5.290  0.00  0.00     0.275 HD
HETATM   21  H           1     -23.122  -4.992  -5.332  0.00  0.00     0.275 HD
ENDBRANCH   5  18
ENDBRANCH   1   5
BRANCH   3  22
HETATM   22  C           1     -20.528  -9.506  -4.782  0.00  0.00     0.187 C 
BRANCH  22  23
HETATM   23  C           1     -21.002 -10.702  -5.573  0.00  0.00     0.196 C 
HETATM   24  O           1     -21.951 -11.396  -5.147  0.00  0.00    -0.646 OA
HETATM   25  O           1     -20.447 -10.997  -6.652  0.00  0.00    -0.646 OA
ENDBRANCH  22  23
BRANCH  22  26
HETATM   26  C           1     -20.673  -9.791  -3.293  0.00  0.00     0.066 C 
BRANCH  26  27
HETATM   27  C           1     -19.446  -9.273  -2.555  0.00  0.00     0.273 C 
BRANCH  27  28
HETATM   28  N           1     -19.812  -8.138  -1.751  0.00  0.00     0.098 N 
HETATM   29  H           1     -19.727  -7.287  -2.304  0.00  0.00     0.317 HD
BRANCH  28  30
HETATM   30  C           1     -21.181  -8.314  -1.347  0.00  0.00     0.320 C 
BRANCH  30  31
HETATM   31  C           1     -21.941  -7.030  -1.578  0.00  0.00     0.207 C 
HETATM   32  O           1     -22.829  -6.676  -0.773  0.00  0.00    -0.646 OA
HETATM   33  O           1     -21.682  -6.321  -2.575  0.00  0.00    -0.646 OA
ENDBRANCH  30  31
BRANCH  30  34
HETATM   34  C           1     -21.230  -8.673   0.132  0.00  0.00     0.057 C 
BRANCH  34  35
HETATM   35  C           1     -21.603 -10.142   0.286  0.00  0.00     0.116 C 
BRANCH  35  36
HETATM   36  C           1     -22.994 -10.368  -0.253  0.00  0.00     0.172 C 
HETATM   37  O           1     -23.183 -11.198  -1.169  0.00  0.00    -0.648 OA
HETATM   38  O           1     -23.958  -9.725   0.216  0.00  0.00    -0.648 OA
ENDBRANCH  35  36
ENDBRANCH  34  35
ENDBRANCH  30  34
ENDBRANCH  28  30
ENDBRANCH  27  28
ENDBRANCH  26  27
ENDBRANCH  22  26
ENDBRANCH   3  22
TORSDOF 16
ENDMDL
MODEL 7
REMARK VINA RESULT:      -6.7      2.061      3.627
REMARK  16 active torsions:
REMARK  status: ('A' for Active; 'I' for Inactive)
REMARK       I    between atoms: C_1  and  N_23 
REMARK    1  A    between atoms: C_1  and  C_21 
REMARK    2  A    between atoms: C_3  and  C_4 
REMARK    3  A    between atoms: C_4  and  C_5 
REMARK    4  A    between atoms: C_4  and  N_33 
REMARK    5  A    between atoms: C_5  and  C_6 
REMARK    6  A    between atoms: C_6  and  C_8 
REMARK    7  A    between atoms: C_13  and  C_30 
REMARK       I    between atoms: N_14  and  C_16 
REMARK       I    between atoms: N_15  and  C_16 
REMARK    8  A    between atoms: N_17  and  C_18 
REMARK    9  A    between atoms: C_18  and  C_19 
REMARK   10  A    between atoms: C_19  and  C_20 
REMARK   11  A    between atoms: C_20  and  C_21 
REMARK   12  A    between atoms: C_21  and  N_36 
REMARK   13  A    between atoms: N_23  and  C_30 
REMARK   14  A    between atoms: C_30  and  C_31 
REMARK   15  A    between atoms: C_31  and  C_32 
REMARK   16  A    between atoms: C_32  and  N_33 
ROOT
HETATM    1  C           1     -20.815  -5.338  -6.914  0.00  0.00     0.249 C 
HETATM    2  H           1     -22.589  -6.144  -6.215  0.00  0.00     0.163 HD
HETATM    3  N           1     -21.598  -6.039  -6.037  0.00  0.00    -0.345 N 
HETATM    4  O           1     -19.633  -5.211  -6.702  0.00  0.00    -0.271 OA
ENDROOT
BRANCH   1   5
HETATM    5  C           1     -21.429  -4.721  -8.147  0.00  0.00     0.274 C 
BRANCH   5   6
HETATM    6  C           1     -20.366  -4.576  -9.227  0.00  0.00     0.044 C 
BRANCH   6   7
HETATM    7  C           1     -20.878  -3.652 -10.324  0.00  0.00     0.023 C 
BRANCH   7   8
HETATM    8  C           1     -22.017  -4.334 -11.071  0.00  0.00     0.138 C 
BRANCH   8   9
HETATM    9  N           1     -21.895  -4.058 -12.510  0.00  0.00    -0.227 N 
HETATM   10  C           1     -22.634  -3.185 -13.052  0.00  0.00     0.665 C 
HETATM   11  N           1     -23.502  -2.532 -12.337  0.00  0.00    -0.235 N 
HETATM   12  N           1     -22.529  -2.947 -14.291  0.00  0.00    -0.235 N 
HETATM   13  H           1     -24.111  -1.811 -12.784  0.00  0.00     0.174 HD
HETATM   14  H           1     -23.588  -2.728 -11.314  0.00  0.00     0.174 HD
HETATM   15  H           1     -23.142  -2.223 -14.741  0.00  0.00     0.174 HD
HETATM   16  H           1     -21.828  -3.474 -14.869  0.00  0.00     0.174 HD
HETATM   17  H           1     -21.195  -4.585 -13.088  0.00  0.00     0.177 HD
ENDBRANCH   8   9
ENDBRANCH   7   8
ENDBRANCH   6   7
ENDBRANCH   5   6
BRANCH   5  18
HETATM   18  N           1     -21.983  -3.369  -7.807  0.00  0.00    -0.067 N 
HETATM   19  H           1     -23.028  -3.411  -7.808  0.00  0.00     0.275 HD
HETATM   20  H           1     -21.662  -2.673  -8.517  0.00  0.00     0.275 HD
HETATM   21  H           1     -21.646  -3.082  -6.861  0.00  0.00     0.275 HD
ENDBRANCH   5  18
ENDBRANCH   1   5
BRANCH   3  22
HETATM   22  C           1     -21.008  -6.631  -4.852  0.00  0.00     0.187 C 
BRANCH  22  23
HETATM   23  C           1     -20.524  -8.024  -5.175  0.00  0.00     0.196 C 
HETATM   24  O           1     -21.105  -8.699  -6.051  0.00  0.00    -0.646 OA
HETATM   25  O           1     -19.543  -8.502  -4.565  0.00  0.00    -0.646 OA
ENDBRANCH  22  23
BRANCH  22  26
HETATM   26  C           1     -22.052  -6.699  -3.745  0.00  0.00     0.066 C 
BRANCH  26  27
HETATM   27  C           1     -21.401  -6.358  -2.411  0.00  0.00     0.273 C 
BRANCH  27  28
HETATM   28  N           1     -20.862  -7.553  -1.820  0.00  0.00     0.098 N 
HETATM   29  H           1     -20.277  -7.304  -1.023  0.00  0.00     0.317 HD
BRANCH  28  30
HETATM   30  C           1     -21.969  -8.354  -1.371  0.00  0.00     0.320 C 
BRANCH  30  31
HETATM   31  C           1     -22.328  -7.968   0.043  0.00  0.00     0.207 C 
HETATM   32  O           1     -21.509  -8.151   0.968  0.00  0.00    -0.646 OA
HETATM   33  O           1     -23.446  -7.463   0.288  0.00  0.00    -0.646 OA
ENDBRANCH  30  31
BRANCH  30  34
HETATM   34  C           1     -21.577  -9.825  -1.412  0.00  0.00     0.057 C 
BRANCH  34  35
HETATM   35  C           1     -22.818 -10.687  -1.225  0.00  0.00     0.116 C 
BRANCH  35  36
HETATM   36  C           1     -22.678 -11.509   0.032  0.00  0.00     0.172 C 
HETATM   37  O           1     -21.590 -11.529   0.648  0.00  0.00    -0.648 OA
HETATM   38  O           1     -23.649 -12.170   0.458  0.00  0.00    -0.648 OA
ENDBRANCH  35  36
ENDBRANCH  34  35
ENDBRANCH  30  34
ENDBRANCH  28  30
ENDBRANCH  27  28
ENDBRANCH  26  27
ENDBRANCH  22  26
ENDBRANCH   3  22
TORSDOF 16
ENDMDL
MODEL 8
REMARK VINA RESULT:      -6.7      1.563      2.706
REMARK  16 active torsions:
REMARK  status: ('A' for Active; 'I' for Inactive)
REMARK       I    between atoms: C_1  and  N_23 
REMARK    1  A    between atoms: C_1  and  C_21 
REMARK    2  A    between atoms: C_3  and  C_4 
REMARK    3  A    between atoms: C_4  and  C_5 
REMARK    4  A    between atoms: C_4  and  N_33 
REMARK    5  A    between atoms: C_5  and  C_6 
REMARK    6  A    between atoms: C_6  and  C_8 
REMARK    7  A    between atoms: C_13  and  C_30 
REMARK       I    between atoms: N_14  and  C_16 
REMARK       I    between atoms: N_15  and  C_16 
REMARK    8  A    between atoms: N_17  and  C_18 
REMARK    9  A    between atoms: C_18  and  C_19 
REMARK   10  A    between atoms: C_19  and  C_20 
REMARK   11  A    between atoms: C_20  and  C_21 
REMARK   12  A    between atoms: C_21  and  N_36 
REMARK   13  A    between atoms: N_23  and  C_30 
REMARK   14  A    between atoms: C_30  and  C_31 
REMARK   15  A    between atoms: C_31  and  C_32 
REMARK   16  A    between atoms: C_32  and  N_33 
ROOT
HETATM    1  C           1     -22.258  -4.584  -8.658  0.00  0.00     0.249 C 
HETATM    2  H           1     -21.105  -6.292  -8.457  0.00  0.00     0.163 HD
HETATM    3  N           1     -21.520  -5.508  -7.968  0.00  0.00    -0.345 N 
HETATM    4  O           1     -22.753  -3.650  -8.076  0.00  0.00    -0.271 OA
ENDROOT
BRANCH   1   5
HETATM    5  C           1     -22.452  -4.734 -10.147  0.00  0.00     0.274 C 
BRANCH   5   6
HETATM    6  C           1     -22.256  -3.384 -10.824  0.00  0.00     0.044 C 
BRANCH   6   7
HETATM    7  C           1     -23.533  -2.993 -11.556  0.00  0.00     0.023 C 
BRANCH   7   8
HETATM    8  C           1     -23.236  -2.828 -13.041  0.00  0.00     0.138 C 
BRANCH   8   9
HETATM    9  N           1     -24.008  -1.695 -13.573  0.00  0.00    -0.227 N 
HETATM   10  C           1     -23.778  -1.265 -14.741  0.00  0.00     0.665 C 
HETATM   11  N           1     -22.859  -1.825 -15.471  0.00  0.00    -0.235 N 
HETATM   12  N           1     -24.442  -0.289 -15.199  0.00  0.00    -0.235 N 
HETATM   13  H           1     -22.670  -1.470 -16.435  0.00  0.00     0.174 HD
HETATM   14  H           1     -22.312  -2.630 -15.093  0.00  0.00     0.174 HD
HETATM   15  H           1     -24.251   0.068 -16.168  0.00  0.00     0.174 HD
HETATM   16  H           1     -25.184   0.163 -14.610  0.00  0.00     0.174 HD
HETATM   17  H           1     -24.750  -1.242 -12.984  0.00  0.00     0.177 HD
ENDBRANCH   8   9
ENDBRANCH   7   8
ENDBRANCH   6   7
ENDBRANCH   5   6
BRANCH   5  18
HETATM   18  N           1     -23.840  -5.233 -10.422  0.00  0.00    -0.067 N 
HETATM   19  H           1     -24.091  -5.968  -9.722  0.00  0.00     0.275 HD
HETATM   20  H           1     -23.879  -5.640 -11.384  0.00  0.00     0.275 HD
HETATM   21  H           1     -24.516  -4.440 -10.353  0.00  0.00     0.275 HD
ENDBRANCH   5  18
ENDBRANCH   1   5
BRANCH   3  22
HETATM   22  C           1     -21.333  -5.365  -6.537  0.00  0.00     0.187 C 
BRANCH  22  23
HETATM   23  C           1     -19.986  -4.738  -6.268  0.00  0.00     0.196 C 
HETATM   24  O           1     -19.165  -4.597  -7.199  0.00  0.00    -0.646 OA
HETATM   25  O           1     -19.694  -4.359  -5.114  0.00  0.00    -0.646 OA
ENDBRANCH  22  23
BRANCH  22  26
HETATM   26  C           1     -21.396  -6.736  -5.878  0.00  0.00     0.066 C 
BRANCH  26  27
HETATM   27  C           1     -22.216  -6.646  -4.598  0.00  0.00     0.273 C 
BRANCH  27  28
HETATM   28  N           1     -21.333  -6.518  -3.469  0.00  0.00     0.098 N 
HETATM   29  H           1     -21.639  -5.741  -2.885  0.00  0.00     0.317 HD
BRANCH  28  30
HETATM   30  C           1     -21.405  -7.741  -2.718  0.00  0.00     0.320 C 
BRANCH  30  31
HETATM   31  C           1     -21.799  -7.433  -1.293  0.00  0.00     0.207 C 
HETATM   32  O           1     -21.201  -7.988  -0.346  0.00  0.00    -0.646 OA
HETATM   33  O           1     -22.722  -6.623  -1.062  0.00  0.00    -0.646 OA
ENDBRANCH  30  31
BRANCH  30  34
HETATM   34  C           1     -20.044  -8.425  -2.732  0.00  0.00     0.057 C 
BRANCH  34  35
HETATM   35  C           1     -20.177  -9.809  -3.353  0.00  0.00     0.116 C 
BRANCH  35  36
HETATM   36  C           1     -19.784 -10.856  -2.341  0.00  0.00     0.172 C 
HETATM   37  O           1     -20.651 -11.362  -1.596  0.00  0.00    -0.648 OA
HETATM   38  O           1     -18.591 -11.217  -2.247  0.00  0.00    -0.648 OA
ENDBRANCH  35  36
ENDBRANCH  34  35
ENDBRANCH  30  34
ENDBRANCH  28  30
ENDBRANCH  27  28
ENDBRANCH  26  27
ENDBRANCH  22  26
ENDBRANCH   3  22
TORSDOF 16
ENDMDL
MODEL 9
REMARK VINA RESULT:      -6.5      2.992      5.416
REMARK  16 active torsions:
REMARK  status: ('A' for Active; 'I' for Inactive)
REMARK       I    between atoms: C_1  and  N_23 
REMARK    1  A    between atoms: C_1  and  C_21 
REMARK    2  A    between atoms: C_3  and  C_4 
REMARK    3  A    between atoms: C_4  and  C_5 
REMARK    4  A    between atoms: C_4  and  N_33 
REMARK    5  A    between atoms: C_5  and  C_6 
REMARK    6  A    between atoms: C_6  and  C_8 
REMARK    7  A    between atoms: C_13  and  C_30 
REMARK       I    between atoms: N_14  and  C_16 
REMARK       I    between atoms: N_15  and  C_16 
REMARK    8  A    between atoms: N_17  and  C_18 
REMARK    9  A    between atoms: C_18  and  C_19 
REMARK   10  A    between atoms: C_19  and  C_20 
REMARK   11  A    between atoms: C_20  and  C_21 
REMARK   12  A    between atoms: C_21  and  N_36 
REMARK   13  A    between atoms: N_23  and  C_30 
REMARK   14  A    between atoms: C_30  and  C_31 
REMARK   15  A    between atoms: C_31  and  C_32 
REMARK   16  A    between atoms: C_32  and  N_33 
ROOT
HETATM    1  C           1     -20.581  -8.125  -5.385  0.00  0.00     0.249 C 
HETATM    2  H           1     -22.311  -8.924  -4.574  0.00  0.00     0.163 HD
HETATM    3  N           1     -21.334  -9.096  -4.780  0.00  0.00    -0.345 N 
HETATM    4  O           1     -19.417  -8.329  -5.630  0.00  0.00    -0.271 OA
ENDROOT
BRANCH   1   5
HETATM    5  C           1     -21.207  -6.800  -5.745  0.00  0.00     0.274 C 
BRANCH   5   6
HETATM    6  C           1     -20.128  -5.845  -6.237  0.00  0.00     0.044 C 
BRANCH   6   7
HETATM    7  C           1     -20.625  -4.411  -6.114  0.00  0.00     0.023 C 
BRANCH   7   8
HETATM    8  C           1     -20.990  -3.879  -7.494  0.00  0.00     0.138 C 
BRANCH   8   9
HETATM    9  N           1     -22.446  -3.691  -7.579  0.00  0.00    -0.227 N 
HETATM   10  C           1     -23.053  -3.934  -8.662  0.00  0.00     0.665 C 
HETATM   11  N           1     -22.390  -4.349  -9.701  0.00  0.00    -0.235 N 
HETATM   12  N           1     -24.306  -3.771  -8.735  0.00  0.00    -0.235 N 
HETATM   13  H           1     -22.892  -4.549 -10.595  0.00  0.00     0.174 HD
HETATM   14  H           1     -21.356  -4.483  -9.640  0.00  0.00     0.174 HD
HETATM   15  H           1     -24.811  -3.973  -9.634  0.00  0.00     0.174 HD
HETATM   16  H           1     -24.843  -3.437  -7.896  0.00  0.00     0.174 HD
HETATM   17  H           1     -22.981  -3.356  -6.740  0.00  0.00     0.177 HD
ENDBRANCH   8   9
ENDBRANCH   7   8
ENDBRANCH   6   7
ENDBRANCH   5   6
BRANCH   5  18
HETATM   18  N           1     -21.875  -6.217  -4.535  0.00  0.00    -0.067 N 
HETATM   19  H           1     -22.263  -5.276  -4.770  0.00  0.00     0.275 HD
HETATM   20  H           1     -21.176  -6.123  -3.764  0.00  0.00     0.275 HD
HETATM   21  H           1     -22.650  -6.846  -4.227  0.00  0.00     0.275 HD
ENDBRANCH   5  18
ENDBRANCH   1   5
BRANCH   3  22
HETATM   22  C           1     -20.733 -10.369  -4.433  0.00  0.00     0.187 C 
BRANCH  22  23
HETATM   23  C           1     -21.118 -11.402  -5.464  0.00  0.00     0.196 C 
HETATM   24  O           1     -21.192 -12.608  -5.143  0.00  0.00    -0.646 OA
HETATM   25  O           1     -21.363 -11.052  -6.638  0.00  0.00    -0.646 OA
ENDBRANCH  22  23
BRANCH  22  26
HETATM   26  C           1     -21.230 -10.808  -3.062  0.00  0.00     0.066 C 
BRANCH  26  27
HETATM   27  C           1     -22.716 -10.497  -2.937  0.00  0.00     0.273 C 
BRANCH  27  28
HETATM   28  N           1     -23.178 -10.873  -1.628  0.00  0.00     0.098 N 
HETATM   29  H           1     -23.163 -11.889  -1.541  0.00  0.00     0.317 HD
BRANCH  28  30
HETATM   30  C           1     -22.278 -10.297  -0.666  0.00  0.00     0.320 C 
BRANCH  30  31
HETATM   31  C           1     -21.936 -11.328   0.382  0.00  0.00     0.207 C 
HETATM   32  O           1     -20.897 -11.202   1.067  0.00  0.00    -0.646 OA
HETATM   33  O           1     -22.690 -12.308   0.565  0.00  0.00    -0.646 OA
ENDBRANCH  30  31
BRANCH  30  34
HETATM   34  C           1     -22.947  -9.101  -0.002  0.00  0.00     0.057 C 
BRANCH  34  35
HETATM   35  C           1     -21.940  -7.967   0.136  0.00  0.00     0.116 C 
BRANCH  35  36
HETATM   36  C           1     -21.807  -7.247  -1.184  0.00  0.00     0.172 C 
HETATM   37  O           1     -22.624  -6.353  -1.494  0.00  0.00    -0.648 OA
HETATM   38  O           1     -20.880  -7.546  -1.968  0.00  0.00    -0.648 OA
ENDBRANCH  35  36
ENDBRANCH  34  35
ENDBRANCH  30  34
ENDBRANCH  28  30
ENDBRANCH  27  28
ENDBRANCH  26  27
ENDBRANCH  22  26
ENDBRANCH   3  22
TORSDOF 16
ENDMDL
