MODEL 1
REMARK VINA RESULT:      -8.2      0.000      0.000
REMARK  8 active torsions:
REMARK  status: ('A' for Active; 'I' for Inactive)
REMARK    1  A    between atoms: N_1  and  C_19 
REMARK    2  A    between atoms: C_6  and  C_17 
REMARK    3  A    between atoms: N_11  and  C_23 
REMARK       I    between atoms: N_11  and  C_22 
REMARK    4  A    between atoms: C_17  and  C_23 
REMARK    5  A    between atoms: C_18  and  C_23 
REMARK    6  A    between atoms: C_19  and  C_22 
REMARK    7  A    between atoms: C_19  and  C_21 
REMARK    8  A    between atoms: C_21  and  C_25 
ROOT
HETATM    1  C           1     -21.049  -5.412  -6.659  0.00  0.00     0.260 C 
ENDROOT
BRANCH   1   2
HETATM    2  N           1     -19.961  -4.716  -5.897  0.00  0.00    -0.067 N 
HETATM    3  H           1     -20.279  -3.755  -5.635  0.00  0.00     0.275 HD
HETATM    4  H           1     -19.743  -5.257  -5.031  0.00  0.00     0.275 HD
HETATM    5  H           1     -19.106  -4.649  -6.493  0.00  0.00     0.275 HD
ENDBRANCH   1   2
BRANCH   1   6
HETATM    6  C           1     -21.612  -4.475  -7.700  0.00  0.00     0.130 C 
HETATM    7  N           1     -22.233  -4.979  -8.810  0.00  0.00    -0.359 N 
HETATM    8  H           1     -22.317  -5.980  -8.933  0.00  0.00     0.162 HD
HETATM    9  O           1     -21.513  -3.280  -7.553  0.00  0.00    -0.397 OA
BRANCH   7  10
HETATM   10  C           1     -22.774  -4.079  -9.811  0.00  0.00     0.184 C 
BRANCH  10  11
HETATM   11  C           1     -22.481  -4.630 -11.201  0.00  0.00     0.040 C 
BRANCH  11  12
HETATM   12  C           1     -21.746  -3.577 -12.020  0.00  0.00    -0.018 C 
HETATM   13  C           1     -20.596  -3.006 -11.202  0.00  0.00     0.289 C 
HETATM   14  C           1     -22.712  -2.457 -12.389  0.00  0.00     0.009 C 
ENDBRANCH  11  12
ENDBRANCH  10  11
BRANCH  10  15
HETATM   15  C           1     -24.265  -3.956  -9.623  0.00  0.00     0.196 C 
HETATM   16  O           1     -24.990  -4.973  -9.693  0.00  0.00    -0.646 OA
HETATM   17  O           1     -24.777  -2.838  -9.399  0.00  0.00    -0.646 OA
ENDBRANCH  10  15
ENDBRANCH   7  10
ENDBRANCH   1   6
BRANCH   1  18
HETATM   18  C           1     -22.156  -5.827  -5.698  0.00  0.00     0.082 C 
BRANCH  18  19
HETATM   19  C           1     -21.682  -6.969  -4.855  0.00  0.00    -0.028 A 
HETATM   20  C           1     -21.755  -7.051  -3.437  0.00  0.00    -0.002 A 
HETATM   21  C           1     -21.203  -8.278  -3.067  0.00  0.00     0.042 A 
HETATM   22  C           1     -22.240  -6.194  -2.429  0.00  0.00     0.014 A 
HETATM   23  C           1     -21.112  -8.694  -1.733  0.00  0.00     0.030 A 
HETATM   24  N           1     -20.812  -8.911  -4.225  0.00  0.00    -0.365 N 
HETATM   25  C           1     -21.600  -7.827  -0.751  0.00  0.00     0.002 A 
HETATM   26  C           1     -22.157  -6.595  -1.091  0.00  0.00     0.001 A 
HETATM   27  H           1     -20.360  -9.857  -4.269  0.00  0.00     0.165 HD
HETATM   28  C           1     -21.096  -8.128  -5.312  0.00  0.00     0.096 A 
ENDBRANCH  18  19
ENDBRANCH   1  18
TORSDOF 8
ENDMDL
MODEL 2
REMARK VINA RESULT:      -8.1      2.543      8.106
REMARK  8 active torsions:
REMARK  status: ('A' for Active; 'I' for Inactive)
REMARK    1  A    between atoms: N_1  and  C_19 
REMARK    2  A    between atoms: C_6  and  C_17 
REMARK    3  A    between atoms: N_11  and  C_23 
REMARK       I    between atoms: N_11  and  C_22 
REMARK    4  A    between atoms: C_17  and  C_23 
REMARK    5  A    between atoms: C_18  and  C_23 
REMARK    6  A    between atoms: C_19  and  C_22 
REMARK    7  A    between atoms: C_19  and  C_21 
REMARK    8  A    between atoms: C_21  and  C_25 
ROOT
HETATM    1  C           1     -22.091  -5.263  -6.779  0.00  0.00     0.260 C 
ENDROOT
BRANCH   1   2
HETATM    2  N           1     -23.486  -4.973  -6.313  0.00  0.00    -0.067 N 
HETATM    3  H           1     -23.962  -4.350  -7.005  0.00  0.00     0.275 HD
HETATM    4  H           1     -24.018  -5.868  -6.228  0.00  0.00     0.275 HD
HETATM    5  H           1     -23.452  -4.497  -5.383  0.00  0.00     0.275 HD
ENDBRANCH   1   2
BRANCH   1   6
HETATM    6  C           1     -21.278  -5.801  -5.627  0.00  0.00     0.130 C 
HETATM    7  N           1     -21.373  -7.121  -5.280  0.00  0.00    -0.359 N 
HETATM    8  H           1     -21.988  -7.737  -5.797  0.00  0.00     0.162 HD
HETATM    9  O           1     -20.544  -5.066  -5.010  0.00  0.00    -0.397 OA
BRANCH   7  10
HETATM   10  C           1     -20.593  -7.639  -4.173  0.00  0.00     0.184 C 
BRANCH  10  11
HETATM   11  C           1     -21.528  -8.225  -3.122  0.00  0.00     0.040 C 
BRANCH  11  12
HETATM   12  C           1     -21.383  -7.445  -1.821  0.00  0.00    -0.018 C 
HETATM   13  C           1     -21.915  -8.281  -0.665  0.00  0.00     0.289 C 
HETATM   14  C           1     -22.177  -6.148  -1.917  0.00  0.00     0.009 C 
ENDBRANCH  11  12
ENDBRANCH  10  11
BRANCH  10  15
HETATM   15  C           1     -19.663  -8.716  -4.673  0.00  0.00     0.196 C 
HETATM   16  O           1     -19.929  -9.332  -5.728  0.00  0.00    -0.646 OA
HETATM   17  O           1     -18.626  -8.993  -4.033  0.00  0.00    -0.646 OA
ENDBRANCH  10  15
ENDBRANCH   7  10
ENDBRANCH   1   6
BRANCH   1  18
HETATM   18  C           1     -21.451  -3.980  -7.296  0.00  0.00     0.082 C 
BRANCH  18  19
HETATM   19  C           1     -21.311  -4.057  -8.784  0.00  0.00    -0.028 A 
HETATM   20  C           1     -22.341  -3.820  -9.737  0.00  0.00    -0.002 A 
HETATM   21  C           1     -21.779  -3.999 -11.001  0.00  0.00     0.042 A 
HETATM   22  C           1     -23.701  -3.470  -9.642  0.00  0.00     0.014 A 
HETATM   23  C           1     -22.514  -3.844 -12.183  0.00  0.00     0.030 A 
HETATM   24  N           1     -20.457  -4.332 -10.813  0.00  0.00    -0.365 N 
HETATM   25  C           1     -23.863  -3.496 -12.064  0.00  0.00     0.002 A 
HETATM   26  C           1     -24.451  -3.311 -10.814  0.00  0.00     0.001 A 
HETATM   27  H           1     -19.772  -4.529 -11.584  0.00  0.00     0.165 HD
HETATM   28  C           1     -20.163  -4.370  -9.476  0.00  0.00     0.096 A 
ENDBRANCH  18  19
ENDBRANCH   1  18
TORSDOF 8
ENDMDL
MODEL 3
REMARK VINA RESULT:      -8.1      2.305      8.296
REMARK  8 active torsions:
REMARK  status: ('A' for Active; 'I' for Inactive)
REMARK    1  A    between atoms: N_1  and  C_19 
REMARK    2  A    between atoms: C_6  and  C_17 
REMARK    3  A    between atoms: N_11  and  C_23 
REMARK       I    between atoms: N_11  and  C_22 
REMARK    4  A    between atoms: C_17  and  C_23 
REMARK    5  A    between atoms: C_18  and  C_23 
REMARK    6  A    between atoms: C_19  and  C_22 
REMARK    7  A    between atoms: C_19  and  C_21 
REMARK    8  A    between atoms: C_21  and  C_25 
ROOT
HETATM    1  C           1     -22.008  -4.286  -7.134  0.00  0.00     0.260 C 
ENDROOT
BRANCH   1   2
HETATM    2  N           1     -21.510  -2.872  -7.122  0.00  0.00    -0.067 N 
HETATM    3  H           1     -21.901  -2.357  -7.943  0.00  0.00     0.275 HD
HETATM    4  H           1     -21.818  -2.402  -6.241  0.00  0.00     0.275 HD
HETATM    5  H           1     -20.467  -2.868  -7.174  0.00  0.00     0.275 HD
ENDBRANCH   1   2
BRANCH   1   6
HETATM    6  C           1     -21.165  -5.123  -6.204  0.00  0.00     0.130 C 
HETATM    7  N           1     -21.685  -6.259  -5.644  0.00  0.00    -0.359 N 
HETATM    8  H           1     -22.635  -6.538  -5.856  0.00  0.00     0.162 HD
HETATM    9  O           1     -20.032  -4.791  -5.952  0.00  0.00    -0.397 OA
BRANCH   7  10
HETATM   10  C           1     -20.876  -7.063  -4.750  0.00  0.00     0.184 C 
BRANCH  10  11
HETATM   11  C           1     -21.730  -7.536  -3.579  0.00  0.00     0.040 C 
BRANCH  11  12
HETATM   12  C           1     -21.143  -7.006  -2.277  0.00  0.00    -0.018 C 
HETATM   13  C           1     -20.396  -8.124  -1.563  0.00  0.00     0.289 C 
HETATM   14  C           1     -22.269  -6.498  -1.384  0.00  0.00     0.009 C 
ENDBRANCH  11  12
ENDBRANCH  10  11
BRANCH  10  15
HETATM   15  C           1     -20.341  -8.260  -5.495  0.00  0.00     0.196 C 
HETATM   16  O           1     -19.181  -8.239  -5.962  0.00  0.00    -0.646 OA
HETATM   17  O           1     -21.057  -9.274  -5.648  0.00  0.00    -0.646 OA
ENDBRANCH  10  15
ENDBRANCH   7  10
ENDBRANCH   1   6
BRANCH   1  18
HETATM   18  C           1     -21.912  -4.845  -8.548  0.00  0.00     0.082 C 
BRANCH  18  19
HETATM   19  C           1     -23.047  -4.321  -9.371  0.00  0.00    -0.028 A 
HETATM   20  C           1     -22.967  -3.864 -10.716  0.00  0.00    -0.002 A 
HETATM   21  C           1     -24.250  -3.465 -11.091  0.00  0.00     0.042 A 
HETATM   22  C           1     -21.920  -3.750 -11.651  0.00  0.00     0.014 A 
HETATM   23  C           1     -24.541  -2.957 -12.363  0.00  0.00     0.030 A 
HETATM   24  N           1     -25.073  -3.677 -10.008  0.00  0.00    -0.365 N 
HETATM   25  C           1     -23.487  -2.854 -13.275  0.00  0.00     0.002 A 
HETATM   26  C           1     -22.194  -3.244 -12.927  0.00  0.00     0.001 A 
HETATM   27  H           1     -26.102  -3.472  -9.986  0.00  0.00     0.165 HD
HETATM   28  C           1     -24.355  -4.194  -8.962  0.00  0.00     0.096 A 
ENDBRANCH  18  19
ENDBRANCH   1  18
TORSDOF 8
ENDMDL
MODEL 4
REMARK VINA RESULT:      -7.7      3.430      8.300
REMARK  8 active torsions:
REMARK  status: ('A' for Active; 'I' for Inactive)
REMARK    1  A    between atoms: N_1  and  C_19 
REMARK    2  A    between atoms: C_6  and  C_17 
REMARK    3  A    between atoms: N_11  and  C_23 
REMARK       I    between atoms: N_11  and  C_22 
REMARK    4  A    between atoms: C_17  and  C_23 
REMARK    5  A    between atoms: C_18  and  C_23 
REMARK    6  A    between atoms: C_19  and  C_22 
REMARK    7  A    between atoms: C_19  and  C_21 
REMARK    8  A    between atoms: C_21  and  C_25 
ROOT
HETATM    1  C           1     -21.346  -6.215  -5.627  0.00  0.00     0.260 C 
ENDROOT
BRANCH   1   2
HETATM    2  N           1     -21.732  -5.940  -4.205  0.00  0.00    -0.067 N 
HETATM    3  H           1     -22.681  -6.336  -4.017  0.00  0.00     0.275 HD
HETATM    4  H           1     -21.038  -6.386  -3.563  0.00  0.00     0.275 HD
HETATM    5  H           1     -21.748  -4.908  -4.040  0.00  0.00     0.275 HD
ENDBRANCH   1   2
BRANCH   1   6
HETATM    6  C           1     -20.218  -7.218  -5.656  0.00  0.00     0.130 C 
HETATM    7  N           1     -20.071  -8.113  -4.632  0.00  0.00    -0.359 N 
HETATM    8  H           1     -20.720  -8.103  -3.855  0.00  0.00     0.162 HD
HETATM    9  O           1     -19.445  -7.229  -6.584  0.00  0.00    -0.397 OA
BRANCH   7  10
HETATM   10  C           1     -18.987  -9.075  -4.659  0.00  0.00     0.184 C 
BRANCH  10  11
HETATM   11  C           1     -18.509  -9.342  -3.238  0.00  0.00     0.040 C 
BRANCH  11  12
HETATM   12  C           1     -17.276 -10.237  -3.276  0.00  0.00    -0.018 C 
HETATM   13  C           1     -17.427 -11.356  -2.255  0.00  0.00     0.289 C 
HETATM   14  C           1     -16.039  -9.411  -2.944  0.00  0.00     0.009 C 
ENDBRANCH  11  12
ENDBRANCH  10  11
BRANCH  10  15
HETATM   15  C           1     -19.474 -10.363  -5.275  0.00  0.00     0.196 C 
HETATM   16  O           1     -19.021 -10.739  -6.378  0.00  0.00    -0.646 OA
HETATM   17  O           1     -20.331 -11.055  -4.683  0.00  0.00    -0.646 OA
ENDBRANCH  10  15
ENDBRANCH   7  10
ENDBRANCH   1   6
BRANCH   1  18
HETATM   18  C           1     -20.893  -4.920  -6.290  0.00  0.00     0.082 C 
BRANCH  18  19
HETATM   19  C           1     -21.863  -4.545  -7.366  0.00  0.00    -0.028 A 
HETATM   20  C           1     -21.545  -4.292  -8.730  0.00  0.00    -0.002 A 
HETATM   21  C           1     -22.739  -3.978  -9.378  0.00  0.00     0.042 A 
HETATM   22  C           1     -20.350  -4.300  -9.475  0.00  0.00     0.014 A 
HETATM   23  C           1     -22.800  -3.671 -10.743  0.00  0.00     0.030 A 
HETATM   24  N           1     -23.741  -4.041  -8.436  0.00  0.00    -0.365 N 
HETATM   25  C           1     -21.601  -3.685 -11.462  0.00  0.00     0.002 A 
HETATM   26  C           1     -20.393  -3.995 -10.840  0.00  0.00     0.001 A 
HETATM   27  H           1     -24.756  -3.854  -8.625  0.00  0.00     0.165 HD
HETATM   28  C           1     -23.222  -4.383  -7.215  0.00  0.00     0.096 A 
ENDBRANCH  18  19
ENDBRANCH   1  18
TORSDOF 8
ENDMDL
MODEL 5
REMARK VINA RESULT:      -7.7      2.911      8.170
REMARK  8 active torsions:
REMARK  status: ('A' for Active; 'I' for Inactive)
REMARK    1  A    between atoms: N_1  and  C_19 
REMARK    2  A    between atoms: C_6  and  C_17 
REMARK    3  A    between atoms: N_11  and  C_23 
REMARK       I    between atoms: N_11  and  C_22 
REMARK    4  A    between atoms: C_17  and  C_23 
REMARK    5  A    between atoms: C_18  and  C_23 
REMARK    6  A    between atoms: C_19  and  C_22 
REMARK    7  A    between atoms: C_19  and  C_21 
REMARK    8  A    between atoms: C_21  and  C_25 
ROOT
HETATM    1  C           1     -21.177  -5.268  -5.614  0.00  0.00     0.260 C 
ENDROOT
BRANCH   1   2
HETATM    2  N           1     -19.947  -4.562  -5.127  0.00  0.00    -0.067 N 
HETATM    3  H           1     -19.273  -5.262  -4.743  0.00  0.00     0.275 HD
HETATM    4  H           1     -19.502  -4.051  -5.922  0.00  0.00     0.275 HD
HETATM    5  H           1     -20.208  -3.883  -4.378  0.00  0.00     0.275 HD
ENDBRANCH   1   2
BRANCH   1   6
HETATM    6  C           1     -21.399  -6.516  -4.795  0.00  0.00     0.130 C 
HETATM    7  N           1     -21.039  -6.540  -3.475  0.00  0.00    -0.359 N 
HETATM    8  H           1     -20.626  -5.721  -3.048  0.00  0.00     0.162 HD
HETATM    9  O           1     -21.892  -7.493  -5.305  0.00  0.00    -0.397 OA
BRANCH   7  10
HETATM   10  C           1     -21.251  -7.739  -2.687  0.00  0.00     0.184 C 
BRANCH  10  11
HETATM   11  C           1     -19.918  -8.440  -2.461  0.00  0.00     0.040 C 
BRANCH  11  12
HETATM   12  C           1     -19.808  -9.639  -3.395  0.00  0.00    -0.018 C 
HETATM   13  C           1     -19.502 -10.890  -2.584  0.00  0.00     0.289 C 
HETATM   14  C           1     -18.689  -9.398  -4.400  0.00  0.00     0.009 C 
ENDBRANCH  11  12
ENDBRANCH  10  11
BRANCH  10  15
HETATM   15  C           1     -21.854  -7.366  -1.356  0.00  0.00     0.196 C 
HETATM   16  O           1     -21.549  -8.010  -0.329  0.00  0.00    -0.646 OA
HETATM   17  O           1     -22.661  -6.414  -1.280  0.00  0.00    -0.646 OA
ENDBRANCH  10  15
ENDBRANCH   7  10
ENDBRANCH   1   6
BRANCH   1  18
HETATM   18  C           1     -20.998  -5.647  -7.079  0.00  0.00     0.082 C 
BRANCH  18  19
HETATM   19  C           1     -21.967  -4.872  -7.917  0.00  0.00    -0.028 A 
HETATM   20  C           1     -21.739  -4.398  -9.239  0.00  0.00    -0.002 A 
HETATM   21  C           1     -22.897  -3.731  -9.641  0.00  0.00     0.042 A 
HETATM   22  C           1     -20.654  -4.474 -10.134  0.00  0.00     0.014 A 
HETATM   23  C           1     -23.025  -3.132 -10.900  0.00  0.00     0.030 A 
HETATM   24  N           1     -23.789  -3.802  -8.595  0.00  0.00    -0.365 N 
HETATM   25  C           1     -21.935  -3.220 -11.772  0.00  0.00     0.002 A 
HETATM   26  C           1     -20.766  -3.881 -11.397  0.00  0.00     0.001 A 
HETATM   27  H           1     -24.754  -3.389  -8.599  0.00  0.00     0.165 HD
HETATM   28  C           1     -23.236  -4.490  -7.547  0.00  0.00     0.096 A 
ENDBRANCH  18  19
ENDBRANCH   1  18
TORSDOF 8
ENDMDL
MODEL 6
REMARK VINA RESULT:      -7.5      1.920      3.253
REMARK  8 active torsions:
REMARK  status: ('A' for Active; 'I' for Inactive)
REMARK    1  A    between atoms: N_1  and  C_19 
REMARK    2  A    between atoms: C_6  and  C_17 
REMARK    3  A    between atoms: N_11  and  C_23 
REMARK       I    between atoms: N_11  and  C_22 
REMARK    4  A    between atoms: C_17  and  C_23 
REMARK    5  A    between atoms: C_18  and  C_23 
REMARK    6  A    between atoms: C_19  and  C_22 
REMARK    7  A    between atoms: C_19  and  C_21 
REMARK    8  A    between atoms: C_21  and  C_25 
ROOT
HETATM    1  C           1     -21.243  -7.756  -5.487  0.00  0.00     0.260 C 
ENDROOT
BRANCH   1   2
HETATM    2  N           1     -21.228  -9.170  -5.985  0.00  0.00    -0.067 N 
HETATM    3  H           1     -20.316  -9.363  -6.458  0.00  0.00     0.275 HD
HETATM    4  H           1     -21.346  -9.824  -5.179  0.00  0.00     0.275 HD
HETATM    5  H           1     -22.008  -9.309  -6.665  0.00  0.00     0.275 HD
ENDBRANCH   1   2
BRANCH   1   6
HETATM    6  C           1     -20.754  -6.834  -6.577  0.00  0.00     0.130 C 
HETATM    7  N           1     -21.632  -5.997  -7.211  0.00  0.00    -0.359 N 
HETATM    8  H           1     -22.609  -5.996  -6.948  0.00  0.00     0.162 HD
HETATM    9  O           1     -19.587  -6.834  -6.891  0.00  0.00    -0.397 OA
BRANCH   7  10
HETATM   10  C           1     -21.163  -5.111  -8.259  0.00  0.00     0.184 C 
BRANCH  10  11
HETATM   11  C           1     -22.332  -4.716  -9.151  0.00  0.00     0.040 C 
BRANCH  11  12
HETATM   12  C           1     -21.847  -3.753 -10.228  0.00  0.00    -0.018 C 
HETATM   13  C           1     -23.022  -3.330 -11.099  0.00  0.00     0.289 C 
HETATM   14  C           1     -20.798  -4.444 -11.090  0.00  0.00     0.009 C 
ENDBRANCH  11  12
ENDBRANCH  10  11
BRANCH  10  15
HETATM   15  C           1     -20.563  -3.874  -7.640  0.00  0.00     0.196 C 
HETATM   16  O           1     -21.259  -3.143  -6.902  0.00  0.00    -0.646 OA
HETATM   17  O           1     -19.369  -3.578  -7.864  0.00  0.00    -0.646 OA
ENDBRANCH  10  15
ENDBRANCH   7  10
ENDBRANCH   1   6
BRANCH   1  18
HETATM   18  C           1     -20.330  -7.636  -4.273  0.00  0.00     0.082 C 
BRANCH  18  19
HETATM   19  C           1     -21.124  -7.157  -3.098  0.00  0.00    -0.028 A 
HETATM   20  C           1     -21.592  -7.958  -2.020  0.00  0.00    -0.002 A 
HETATM   21  C           1     -22.283  -7.114  -1.150  0.00  0.00     0.042 A 
HETATM   22  C           1     -21.495  -9.327  -1.702  0.00  0.00     0.014 A 
HETATM   23  C           1     -22.883  -7.572   0.030  0.00  0.00     0.030 A 
HETATM   24  N           1     -22.230  -5.848  -1.688  0.00  0.00    -0.365 N 
HETATM   25  C           1     -22.773  -8.934   0.324  0.00  0.00     0.002 A 
HETATM   26  C           1     -22.089  -9.801  -0.527  0.00  0.00     0.001 A 
HETATM   27  H           1     -22.662  -4.994  -1.257  0.00  0.00     0.165 HD
HETATM   28  C           1     -21.531  -5.863  -2.866  0.00  0.00     0.096 A 
ENDBRANCH  18  19
ENDBRANCH   1  18
TORSDOF 8
ENDMDL
MODEL 7
REMARK VINA RESULT:      -7.4      3.075      8.139
REMARK  8 active torsions:
REMARK  status: ('A' for Active; 'I' for Inactive)
REMARK    1  A    between atoms: N_1  and  C_19 
REMARK    2  A    between atoms: C_6  and  C_17 
REMARK    3  A    between atoms: N_11  and  C_23 
REMARK       I    between atoms: N_11  and  C_22 
REMARK    4  A    between atoms: C_17  and  C_23 
REMARK    5  A    between atoms: C_18  and  C_23 
REMARK    6  A    between atoms: C_19  and  C_22 
REMARK    7  A    between atoms: C_19  and  C_21 
REMARK    8  A    between atoms: C_21  and  C_25 
ROOT
HETATM    1  C           1     -21.643  -6.495  -5.601  0.00  0.00     0.260 C 
ENDROOT
BRANCH   1   2
HETATM    2  N           1     -21.948  -5.979  -4.227  0.00  0.00    -0.067 N 
HETATM    3  H           1     -22.348  -6.750  -3.645  0.00  0.00     0.275 HD
HETATM    4  H           1     -21.069  -5.630  -3.783  0.00  0.00     0.275 HD
HETATM    5  H           1     -22.640  -5.198  -4.293  0.00  0.00     0.275 HD
ENDBRANCH   1   2
BRANCH   1   6
HETATM    6  C           1     -20.771  -7.723  -5.494  0.00  0.00     0.130 C 
HETATM    7  N           1     -21.224  -8.827  -4.824  0.00  0.00    -0.359 N 
HETATM    8  H           1     -22.144  -8.820  -4.401  0.00  0.00     0.162 HD
HETATM    9  O           1     -19.674  -7.731  -5.999  0.00  0.00    -0.397 OA
BRANCH   7  10
HETATM   10  C           1     -20.387 -10.006  -4.720  0.00  0.00     0.184 C 
BRANCH  10  11
HETATM   11  C           1     -20.502 -10.589  -3.317  0.00  0.00     0.040 C 
BRANCH  11  12
HETATM   12  C           1     -21.601  -9.862  -2.553  0.00  0.00    -0.018 C 
HETATM   13  C           1     -21.016  -9.233  -1.296  0.00  0.00     0.289 C 
HETATM   14  C           1     -22.690 -10.854  -2.165  0.00  0.00     0.009 C 
ENDBRANCH  11  12
ENDBRANCH  10  11
BRANCH  10  15
HETATM   15  C           1     -20.839 -11.033  -5.729  0.00  0.00     0.196 C 
HETATM   16  O           1     -20.142 -11.264  -6.741  0.00  0.00    -0.646 OA
HETATM   17  O           1     -21.910 -11.653  -5.553  0.00  0.00    -0.646 OA
ENDBRANCH  10  15
ENDBRANCH   7  10
ENDBRANCH   1   6
BRANCH   1  18
HETATM   18  C           1     -20.911  -5.420  -6.395  0.00  0.00     0.082 C 
BRANCH  18  19
HETATM   19  C           1     -21.844  -4.822  -7.402  0.00  0.00    -0.028 A 
HETATM   20  C           1     -21.517  -4.470  -8.741  0.00  0.00    -0.002 A 
HETATM   21  C           1     -22.674  -3.950  -9.322  0.00  0.00     0.042 A 
HETATM   22  C           1     -20.343  -4.543  -9.515  0.00  0.00     0.014 A 
HETATM   23  C           1     -22.717  -3.497 -10.647  0.00  0.00     0.030 A 
HETATM   24  N           1     -23.661  -3.989  -8.364  0.00  0.00    -0.365 N 
HETATM   25  C           1     -21.539  -3.581 -11.396  0.00  0.00     0.002 A 
HETATM   26  C           1     -20.369  -4.096 -10.841  0.00  0.00     0.001 A 
HETATM   27  H           1     -24.649  -3.664  -8.505  0.00  0.00     0.165 HD
HETATM   28  C           1     -23.170  -4.516  -7.198  0.00  0.00     0.096 A 
ENDBRANCH  18  19
ENDBRANCH   1  18
TORSDOF 8
ENDMDL
MODEL 8
REMARK VINA RESULT:      -7.0      3.624      8.683
REMARK  8 active torsions:
REMARK  status: ('A' for Active; 'I' for Inactive)
REMARK    1  A    between atoms: N_1  and  C_19 
REMARK    2  A    between atoms: C_6  and  C_17 
REMARK    3  A    between atoms: N_11  and  C_23 
REMARK       I    between atoms: N_11  and  C_22 
REMARK    4  A    between atoms: C_17  and  C_23 
REMARK    5  A    between atoms: C_18  and  C_23 
REMARK    6  A    between atoms: C_19  and  C_22 
REMARK    7  A    between atoms: C_19  and  C_21 
REMARK    8  A    between atoms: C_21  and  C_25 
ROOT
HETATM    1  C           1     -20.517  -7.154  -4.944  0.00  0.00     0.260 C 
ENDROOT
BRANCH   1   2
HETATM    2  N           1     -21.278  -7.984  -5.934  0.00  0.00    -0.067 N 
HETATM    3  H           1     -22.073  -8.461  -5.452  0.00  0.00     0.275 HD
HETATM    4  H           1     -21.651  -7.367  -6.691  0.00  0.00     0.275 HD
HETATM    5  H           1     -20.643  -8.701  -6.350  0.00  0.00     0.275 HD
ENDBRANCH   1   2
BRANCH   1   6
HETATM    6  C           1     -20.781  -7.668  -3.550  0.00  0.00     0.130 C 
HETATM    7  N           1     -20.708  -9.010  -3.290  0.00  0.00    -0.359 N 
HETATM    8  H           1     -20.475  -9.657  -4.032  0.00  0.00     0.162 HD
HETATM    9  O           1     -21.058  -6.896  -2.664  0.00  0.00    -0.397 OA
BRANCH   7  10
HETATM   10  C           1     -20.962  -9.504  -1.951  0.00  0.00     0.184 C 
BRANCH  10  11
HETATM   11  C           1     -22.459  -9.711  -1.761  0.00  0.00     0.040 C 
BRANCH  11  12
HETATM   12  C           1     -22.768  -9.858  -0.276  0.00  0.00    -0.018 C 
HETATM   13  C           1     -23.985 -10.755  -0.096  0.00  0.00     0.289 C 
HETATM   14  C           1     -23.056  -8.486   0.320  0.00  0.00     0.009 C 
ENDBRANCH  11  12
ENDBRANCH  10  11
BRANCH  10  15
HETATM   15  C           1     -20.245 -10.817  -1.755  0.00  0.00     0.196 C 
HETATM   16  O           1     -19.415 -10.945  -0.828  0.00  0.00    -0.646 OA
HETATM   17  O           1     -20.480 -11.778  -2.520  0.00  0.00    -0.646 OA
ENDBRANCH  10  15
ENDBRANCH   7  10
ENDBRANCH   1   6
BRANCH   1  18
HETATM   18  C           1     -20.969  -5.703  -5.045  0.00  0.00     0.082 C 
BRANCH  18  19
HETATM   19  C           1     -20.628  -5.167  -6.400  0.00  0.00    -0.028 A 
HETATM   20  C           1     -21.554  -4.709  -7.378  0.00  0.00    -0.002 A 
HETATM   21  C           1     -20.812  -4.299  -8.486  0.00  0.00     0.042 A 
HETATM   22  C           1     -22.957  -4.607  -7.426  0.00  0.00     0.014 A 
HETATM   23  C           1     -21.406  -3.787  -9.646  0.00  0.00     0.030 A 
HETATM   24  N           1     -19.485  -4.503  -8.182  0.00  0.00    -0.365 N 
HETATM   25  C           1     -22.801  -3.694  -9.670  0.00  0.00     0.002 A 
HETATM   26  C           1     -23.568  -4.097  -8.578  0.00  0.00     0.001 A 
HETATM   27  H           1     -18.682  -4.287  -8.823  0.00  0.00     0.165 HD
HETATM   28  C           1     -19.362  -5.027  -6.923  0.00  0.00     0.096 A 
ENDBRANCH  18  19
ENDBRANCH   1  18
TORSDOF 8
ENDMDL
MODEL 9
REMARK VINA RESULT:      -7.0      1.079      2.206
REMARK  8 active torsions:
REMARK  status: ('A' for Active; 'I' for Inactive)
REMARK    1  A    between atoms: N_1  and  C_19 
REMARK    2  A    between atoms: C_6  and  C_17 
REMARK    3  A    between atoms: N_11  and  C_23 
REMARK       I    between atoms: N_11  and  C_22 
REMARK    4  A    between atoms: C_17  and  C_23 
REMARK    5  A    between atoms: C_18  and  C_23 
REMARK    6  A    between atoms: C_19  and  C_22 
REMARK    7  A    between atoms: C_19  and  C_21 
REMARK    8  A    between atoms: C_21  and  C_25 
ROOT
HETATM    1  C           1     -21.019  -5.452  -6.359  0.00  0.00     0.260 C 
ENDROOT
BRANCH   1   2
HETATM    2  N           1     -20.085  -4.750  -5.419  0.00  0.00    -0.067 N 
HETATM    3  H           1     -19.105  -5.064  -5.601  0.00  0.00     0.275 HD
HETATM    4  H           1     -20.152  -3.718  -5.569  0.00  0.00     0.275 HD
HETATM    5  H           1     -20.346  -4.977  -4.433  0.00  0.00     0.275 HD
ENDBRANCH   1   2
BRANCH   1   6
HETATM    6  C           1     -21.391  -4.520  -7.487  0.00  0.00     0.130 C 
HETATM    7  N           1     -22.549  -4.724  -8.189  0.00  0.00    -0.359 N 
HETATM    8  H           1     -23.155  -5.499  -7.950  0.00  0.00     0.162 HD
HETATM    9  O           1     -20.668  -3.595  -7.770  0.00  0.00    -0.397 OA
BRANCH   7  10
HETATM   10  C           1     -22.907  -3.830  -9.272  0.00  0.00     0.184 C 
BRANCH  10  11
HETATM   11  C           1     -22.223  -4.286 -10.554  0.00  0.00     0.040 C 
BRANCH  11  12
HETATM   12  C           1     -21.825  -3.067 -11.379  0.00  0.00    -0.018 C 
HETATM   13  C           1     -22.427  -3.179 -12.773  0.00  0.00     0.289 C 
HETATM   14  C           1     -20.307  -3.000 -11.485  0.00  0.00     0.009 C 
ENDBRANCH  11  12
ENDBRANCH  10  11
BRANCH  10  15
HETATM   15  C           1     -24.403  -3.850  -9.466  0.00  0.00     0.196 C 
HETATM   16  O           1     -25.058  -2.788  -9.389  0.00  0.00    -0.646 OA
HETATM   17  O           1     -24.988  -4.929  -9.705  0.00  0.00    -0.646 OA
ENDBRANCH  10  15
ENDBRANCH   7  10
ENDBRANCH   1   6
BRANCH   1  18
HETATM   18  C           1     -22.277  -5.869  -5.607  0.00  0.00     0.082 C 
BRANCH  18  19
HETATM   19  C           1     -21.895  -6.666  -4.400  0.00  0.00    -0.028 A 
HETATM   20  C           1     -21.434  -8.012  -4.395  0.00  0.00    -0.002 A 
HETATM   21  C           1     -21.195  -8.360  -3.065  0.00  0.00     0.042 A 
HETATM   22  C           1     -21.197  -8.970  -5.400  0.00  0.00     0.014 A 
HETATM   23  C           1     -20.728  -9.625  -2.687  0.00  0.00     0.030 A 
HETATM   24  N           1     -21.503  -7.259  -2.298  0.00  0.00    -0.365 N 
HETATM   25  C           1     -20.500 -10.559  -3.702  0.00  0.00     0.002 A 
HETATM   26  C           1     -20.730 -10.239  -5.039  0.00  0.00     0.001 A 
HETATM   27  H           1     -21.423  -7.215  -1.252  0.00  0.00     0.165 HD
HETATM   28  C           1     -21.927  -6.229  -3.095  0.00  0.00     0.096 A 
ENDBRANCH  18  19
ENDBRANCH   1  18
TORSDOF 8
ENDMDL
