MODEL 1
REMARK VINA RESULT:      -6.3      0.000      0.000
REMARK  8 active torsions:
REMARK  status: ('A' for Active; 'I' for Inactive)
REMARK    1  A    between atoms: C_1  and  C_12 
REMARK       I    between atoms: C_1  and  N_9 
REMARK    2  A    between atoms: N_6  and  C_13 
REMARK       I    between atoms: C_7  and  N_21 
REMARK    3  A    between atoms: C_7  and  C_13 
REMARK    4  A    between atoms: C_12  and  C_13 
REMARK    5  A    between atoms: C_14  and  C_22 
REMARK    6  A    between atoms: C_14  and  C_15 
REMARK    7  A    between atoms: C_15  and  C_16 
REMARK    8  A    between atoms: C_15  and  N_21 
ROOT
HETATM    1  O           1     -21.667  -3.410  -7.438  0.00  0.00    -0.271 OA
HETATM    2  C           1     -21.755  -4.558  -7.802  0.00  0.00     0.249 C 
HETATM    3  H           1     -22.447  -5.817  -9.293  0.00  0.00     0.163 HD
HETATM    4  N           1     -22.374  -4.855  -8.987  0.00  0.00    -0.344 N 
ENDROOT
BRANCH   2   5
HETATM    5  C           1     -21.182  -5.666  -6.953  0.00  0.00     0.283 C 
BRANCH   5   6
HETATM    6  N           1     -19.894  -6.143  -7.555  0.00  0.00    -0.066 N 
HETATM    7  H           1     -19.892  -5.941  -8.579  0.00  0.00     0.275 HD
HETATM    8  H           1     -19.093  -5.648  -7.100  0.00  0.00     0.275 HD
HETATM    9  H           1     -19.800  -7.173  -7.402  0.00  0.00     0.275 HD
ENDBRANCH   5   6
BRANCH   5  10
HETATM   10  C           1     -20.921  -5.144  -5.546  0.00  0.00     0.145 C 
BRANCH  10  11
HETATM   11  C           1     -21.092  -6.267  -4.552  0.00  0.00     0.217 C 
HETATM   12  N           1     -21.930  -6.111  -3.480  0.00  0.00    -0.370 N 
HETATM   13  H           1     -22.044  -6.864  -2.814  0.00  0.00     0.159 HD
HETATM   14  H           1     -22.434  -5.243  -3.355  0.00  0.00     0.159 HD
HETATM   15  O           1     -20.490  -7.302  -4.703  0.00  0.00    -0.274 OA
ENDBRANCH  10  11
ENDBRANCH   5  10
ENDBRANCH   2   5
BRANCH   4  16
HETATM   16  C           1     -22.924  -3.790  -9.804  0.00  0.00     0.189 C 
BRANCH  16  17
HETATM   17  C           1     -22.522  -4.007 -11.257  0.00  0.00     0.014 C 
HETATM   18  C           1     -22.857  -2.762 -12.067  0.00  0.00     0.012 C 
BRANCH  17  19
HETATM   19  C           1     -21.026  -4.277 -11.335  0.00  0.00     0.002 C 
HETATM   20  C           1     -20.264  -2.970 -11.156  0.00  0.00     0.005 C 
ENDBRANCH  17  19
ENDBRANCH  16  17
BRANCH  16  21
HETATM   21  C           1     -24.428  -3.798  -9.691  0.00  0.00     0.197 C 
HETATM   22  O           1     -25.061  -4.866  -9.833  0.00  0.00    -0.646 OA
HETATM   23  O           1     -25.043  -2.736  -9.454  0.00  0.00    -0.646 OA
ENDBRANCH  16  21
ENDBRANCH   4  16
TORSDOF 8
ENDMDL
MODEL 2
REMARK VINA RESULT:      -5.5      2.271      6.913
REMARK  8 active torsions:
REMARK  status: ('A' for Active; 'I' for Inactive)
REMARK    1  A    between atoms: C_1  and  C_12 
REMARK       I    between atoms: C_1  and  N_9 
REMARK    2  A    between atoms: N_6  and  C_13 
REMARK       I    between atoms: C_7  and  N_21 
REMARK    3  A    between atoms: C_7  and  C_13 
REMARK    4  A    between atoms: C_12  and  C_13 
REMARK    5  A    between atoms: C_14  and  C_22 
REMARK    6  A    between atoms: C_14  and  C_15 
REMARK    7  A    between atoms: C_15  and  C_16 
REMARK    8  A    between atoms: C_15  and  N_21 
ROOT
HETATM    1  O           1     -19.532  -5.335  -6.562  0.00  0.00    -0.271 OA
HETATM    2  C           1     -20.609  -5.771  -6.891  0.00  0.00     0.249 C 
HETATM    3  H           1     -22.039  -7.218  -6.513  0.00  0.00     0.163 HD
HETATM    4  N           1     -21.136  -6.853  -6.239  0.00  0.00    -0.344 N 
ENDROOT
BRANCH   2   5
HETATM    5  C           1     -21.373  -5.123  -8.019  0.00  0.00     0.283 C 
BRANCH   5   6
HETATM    6  N           1     -22.238  -4.027  -7.472  0.00  0.00    -0.066 N 
HETATM    7  H           1     -22.072  -3.149  -8.012  0.00  0.00     0.275 HD
HETATM    8  H           1     -23.244  -4.302  -7.555  0.00  0.00     0.275 HD
HETATM    9  H           1     -22.003  -3.867  -6.466  0.00  0.00     0.275 HD
ENDBRANCH   5   6
BRANCH   5  10
HETATM   10  C           1     -20.393  -4.540  -9.028  0.00  0.00     0.145 C 
BRANCH  10  11
HETATM   11  C           1     -21.111  -4.263 -10.326  0.00  0.00     0.217 C 
HETATM   12  N           1     -20.447  -3.660 -11.361  0.00  0.00    -0.370 N 
HETATM   13  H           1     -20.929  -3.474 -12.230  0.00  0.00     0.159 HD
HETATM   14  H           1     -19.476  -3.399 -11.254  0.00  0.00     0.159 HD
HETATM   15  O           1     -22.271  -4.574 -10.452  0.00  0.00    -0.274 OA
ENDBRANCH  10  11
ENDBRANCH   5  10
ENDBRANCH   2   5
BRANCH   4  16
HETATM   16  C           1     -20.402  -7.476  -5.154  0.00  0.00     0.189 C 
BRANCH  16  17
HETATM   17  C           1     -21.313  -7.621  -3.943  0.00  0.00     0.014 C 
HETATM   18  C           1     -20.522  -8.206  -2.781  0.00  0.00     0.012 C 
BRANCH  17  19
HETATM   19  C           1     -21.856  -6.254  -3.550  0.00  0.00     0.002 C 
HETATM   20  C           1     -22.090  -6.213  -2.046  0.00  0.00     0.005 C 
ENDBRANCH  17  19
ENDBRANCH  16  17
BRANCH  16  21
HETATM   21  C           1     -19.922  -8.838  -5.590  0.00  0.00     0.197 C 
HETATM   22  O           1     -18.703  -9.042  -5.774  0.00  0.00    -0.646 OA
HETATM   23  O           1     -20.743  -9.763  -5.769  0.00  0.00    -0.646 OA
ENDBRANCH  16  21
ENDBRANCH   4  16
TORSDOF 8
ENDMDL
MODEL 3
REMARK VINA RESULT:      -5.5      2.453      6.766
REMARK  8 active torsions:
REMARK  status: ('A' for Active; 'I' for Inactive)
REMARK    1  A    between atoms: C_1  and  C_12 
REMARK       I    between atoms: C_1  and  N_9 
REMARK    2  A    between atoms: N_6  and  C_13 
REMARK       I    between atoms: C_7  and  N_21 
REMARK    3  A    between atoms: C_7  and  C_13 
REMARK    4  A    between atoms: C_12  and  C_13 
REMARK    5  A    between atoms: C_14  and  C_22 
REMARK    6  A    between atoms: C_14  and  C_15 
REMARK    7  A    between atoms: C_15  and  C_16 
REMARK    8  A    between atoms: C_15  and  N_21 
ROOT
HETATM    1  O           1     -22.968  -5.920  -5.497  0.00  0.00    -0.271 OA
HETATM    2  C           1     -21.770  -5.775  -5.544  0.00  0.00     0.249 C 
HETATM    3  H           1     -19.954  -6.402  -4.774  0.00  0.00     0.163 HD
HETATM    4  N           1     -20.958  -6.523  -4.734  0.00  0.00    -0.344 N 
ENDROOT
BRANCH   2   5
HETATM    5  C           1     -21.168  -4.771  -6.496  0.00  0.00     0.283 C 
BRANCH   5   6
HETATM    6  N           1     -19.680  -4.732  -6.308  0.00  0.00    -0.066 N 
HETATM    7  H           1     -19.214  -4.623  -7.236  0.00  0.00     0.275 HD
HETATM    8  H           1     -19.428  -3.924  -5.694  0.00  0.00     0.275 HD
HETATM    9  H           1     -19.363  -5.622  -5.860  0.00  0.00     0.275 HD
ENDBRANCH   5   6
BRANCH   5  10
HETATM   10  C           1     -21.487  -5.176  -7.930  0.00  0.00     0.145 C 
BRANCH  10  11
HETATM   11  C           1     -22.485  -4.208  -8.516  0.00  0.00     0.217 C 
HETATM   12  N           1     -23.731  -4.090  -7.960  0.00  0.00    -0.370 N 
HETATM   13  H           1     -24.400  -3.441  -8.353  0.00  0.00     0.159 HD
HETATM   14  H           1     -23.982  -4.652  -7.157  0.00  0.00     0.159 HD
HETATM   15  O           1     -22.185  -3.538  -9.474  0.00  0.00    -0.274 OA
ENDBRANCH  10  11
ENDBRANCH   5  10
ENDBRANCH   2   5
BRANCH   4  16
HETATM   16  C           1     -21.536  -7.488  -3.819  0.00  0.00     0.189 C 
BRANCH  16  17
HETATM   17  C           1     -20.687  -8.752  -3.813  0.00  0.00     0.014 C 
HETATM   18  C           1     -21.538  -9.936  -4.252  0.00  0.00     0.012 C 
BRANCH  17  19
HETATM   19  C           1     -19.518  -8.583  -4.772  0.00  0.00     0.002 C 
HETATM   20  C           1     -18.384  -9.512  -4.361  0.00  0.00     0.005 C 
ENDBRANCH  17  19
ENDBRANCH  16  17
BRANCH  16  21
HETATM   21  C           1     -21.577  -6.901  -2.430  0.00  0.00     0.197 C 
HETATM   22  O           1     -20.881  -7.400  -1.520  0.00  0.00    -0.646 OA
HETATM   23  O           1     -22.307  -5.916  -2.189  0.00  0.00    -0.646 OA
ENDBRANCH  16  21
ENDBRANCH   4  16
TORSDOF 8
ENDMDL
MODEL 4
REMARK VINA RESULT:      -5.2     10.221     12.726
REMARK  8 active torsions:
REMARK  status: ('A' for Active; 'I' for Inactive)
REMARK    1  A    between atoms: C_1  and  C_12 
REMARK       I    between atoms: C_1  and  N_9 
REMARK    2  A    between atoms: N_6  and  C_13 
REMARK       I    between atoms: C_7  and  N_21 
REMARK    3  A    between atoms: C_7  and  C_13 
REMARK    4  A    between atoms: C_12  and  C_13 
REMARK    5  A    between atoms: C_14  and  C_22 
REMARK    6  A    between atoms: C_14  and  C_15 
REMARK    7  A    between atoms: C_15  and  C_16 
REMARK    8  A    between atoms: C_15  and  N_21 
ROOT
HETATM    1  O           1     -27.071  -5.943 -19.959  0.00  0.00    -0.271 OA
HETATM    2  C           1     -26.246  -6.472 -19.254  0.00  0.00     0.249 C 
HETATM    3  H           1     -25.803  -7.085 -17.328  0.00  0.00     0.163 HD
HETATM    4  N           1     -26.494  -6.641 -17.919  0.00  0.00    -0.344 N 
ENDROOT
BRANCH   2   5
HETATM    5  C           1     -24.942  -6.949 -19.845  0.00  0.00     0.283 C 
BRANCH   5   6
HETATM    6  N           1     -24.061  -7.479 -18.753  0.00  0.00    -0.066 N 
HETATM    7  H           1     -24.577  -7.453 -17.846  0.00  0.00     0.275 HD
HETATM    8  H           1     -23.790  -8.465 -18.972  0.00  0.00     0.275 HD
HETATM    9  H           1     -23.202  -6.888 -18.683  0.00  0.00     0.275 HD
ENDBRANCH   5   6
BRANCH   5  10
HETATM   10  C           1     -25.217  -8.055 -20.857  0.00  0.00     0.145 C 
BRANCH  10  11
HETATM   11  C           1     -24.025  -8.211 -21.768  0.00  0.00     0.217 C 
HETATM   12  N           1     -22.938  -8.935 -21.355  0.00  0.00    -0.370 N 
HETATM   13  H           1     -22.138  -9.040 -21.966  0.00  0.00     0.159 HD
HETATM   14  H           1     -22.935  -9.364 -20.439  0.00  0.00     0.159 HD
HETATM   15  O           1     -24.029  -7.699 -22.861  0.00  0.00    -0.274 OA
ENDBRANCH  10  11
ENDBRANCH   5  10
ENDBRANCH   2   5
BRANCH   4  16
HETATM   16  C           1     -27.747  -6.183 -17.350  0.00  0.00     0.189 C 
BRANCH  16  17
HETATM   17  C           1     -28.902  -6.935 -17.997  0.00  0.00     0.014 C 
HETATM   18  C           1     -29.271  -8.135 -17.135  0.00  0.00     0.012 C 
BRANCH  17  19
HETATM   19  C           1     -30.104  -6.009 -18.121  0.00  0.00     0.002 C 
HETATM   20  C           1     -31.291  -6.615 -17.384  0.00  0.00     0.005 C 
ENDBRANCH  17  19
ENDBRANCH  16  17
BRANCH  16  21
HETATM   21  C           1     -27.747  -6.441 -15.864  0.00  0.00     0.197 C 
HETATM   22  O           1     -28.461  -5.746 -15.109  0.00  0.00    -0.646 OA
HETATM   23  O           1     -27.033  -7.348 -15.386  0.00  0.00    -0.646 OA
ENDBRANCH  16  21
ENDBRANCH   4  16
TORSDOF 8
ENDMDL
MODEL 5
REMARK VINA RESULT:      -5.2      4.588      9.358
REMARK  8 active torsions:
REMARK  status: ('A' for Active; 'I' for Inactive)
REMARK    1  A    between atoms: C_1  and  C_12 
REMARK       I    between atoms: C_1  and  N_9 
REMARK    2  A    between atoms: N_6  and  C_13 
REMARK       I    between atoms: C_7  and  N_21 
REMARK    3  A    between atoms: C_7  and  C_13 
REMARK    4  A    between atoms: C_12  and  C_13 
REMARK    5  A    between atoms: C_14  and  C_22 
REMARK    6  A    between atoms: C_14  and  C_15 
REMARK    7  A    between atoms: C_15  and  C_16 
REMARK    8  A    between atoms: C_15  and  N_21 
ROOT
HETATM    1  O           1     -20.819  -6.929  -2.110  0.00  0.00    -0.271 OA
HETATM    2  C           1     -21.314  -7.826  -2.749  0.00  0.00     0.249 C 
HETATM    3  H           1     -21.956  -9.793  -2.696  0.00  0.00     0.163 HD
HETATM    4  N           1     -21.540  -9.041  -2.161  0.00  0.00    -0.344 N 
ENDROOT
BRANCH   2   5
HETATM    5  C           1     -21.685  -7.607  -4.195  0.00  0.00     0.283 C 
BRANCH   5   6
HETATM    6  N           1     -22.471  -6.336  -4.323  0.00  0.00    -0.066 N 
HETATM    7  H           1     -23.355  -6.416  -3.772  0.00  0.00     0.275 HD
HETATM    8  H           1     -21.904  -5.537  -3.957  0.00  0.00     0.275 HD
HETATM    9  H           1     -22.701  -6.169  -5.329  0.00  0.00     0.275 HD
ENDBRANCH   5   6
BRANCH   5  10
HETATM   10  C           1     -20.419  -7.506  -5.035  0.00  0.00     0.145 C 
BRANCH  10  11
HETATM   11  C           1     -20.481  -6.267  -5.893  0.00  0.00     0.217 C 
HETATM   12  N           1     -20.895  -6.357  -7.196  0.00  0.00    -0.370 N 
HETATM   13  H           1     -20.936  -5.526  -7.772  0.00  0.00     0.159 HD
HETATM   14  H           1     -21.158  -7.254  -7.582  0.00  0.00     0.159 HD
HETATM   15  O           1     -20.167  -5.196  -5.432  0.00  0.00    -0.274 OA
ENDBRANCH  10  11
ENDBRANCH   5  10
ENDBRANCH   2   5
BRANCH   4  16
HETATM   16  C           1     -21.184  -9.252  -0.771  0.00  0.00     0.189 C 
BRANCH  16  17
HETATM   17  C           1     -22.444  -9.519   0.040  0.00  0.00     0.014 C 
HETATM   18  C           1     -23.109  -8.195   0.394  0.00  0.00     0.012 C 
BRANCH  17  19
HETATM   19  C           1     -23.406 -10.367  -0.780  0.00  0.00     0.002 C 
HETATM   20  C           1     -23.790 -11.610   0.012  0.00  0.00     0.005 C 
ENDBRANCH  17  19
ENDBRANCH  16  17
BRANCH  16  21
HETATM   21  C           1     -20.256 -10.437  -0.665  0.00  0.00     0.197 C 
HETATM   22  O           1     -19.574 -10.788  -1.652  0.00  0.00    -0.646 OA
HETATM   23  O           1     -20.168 -11.069   0.409  0.00  0.00    -0.646 OA
ENDBRANCH  16  21
ENDBRANCH   4  16
TORSDOF 8
ENDMDL
MODEL 6
REMARK VINA RESULT:      -5.0      4.919      9.123
REMARK  8 active torsions:
REMARK  status: ('A' for Active; 'I' for Inactive)
REMARK    1  A    between atoms: C_1  and  C_12 
REMARK       I    between atoms: C_1  and  N_9 
REMARK    2  A    between atoms: N_6  and  C_13 
REMARK       I    between atoms: C_7  and  N_21 
REMARK    3  A    between atoms: C_7  and  C_13 
REMARK    4  A    between atoms: C_12  and  C_13 
REMARK    5  A    between atoms: C_14  and  C_22 
REMARK    6  A    between atoms: C_14  and  C_15 
REMARK    7  A    between atoms: C_15  and  C_16 
REMARK    8  A    between atoms: C_15  and  N_21 
ROOT
HETATM    1  O           1     -19.873 -10.340  -3.437  0.00  0.00    -0.271 OA
HETATM    2  C           1     -20.624  -9.399  -3.341  0.00  0.00     0.249 C 
HETATM    3  H           1     -22.232  -8.612  -2.302  0.00  0.00     0.163 HD
HETATM    4  N           1     -21.602  -9.401  -2.383  0.00  0.00    -0.344 N 
ENDROOT
BRANCH   2   5
HETATM    5  C           1     -20.484  -8.222  -4.274  0.00  0.00     0.283 C 
BRANCH   5   6
HETATM    6  N           1     -21.107  -8.555  -5.597  0.00  0.00    -0.066 N 
HETATM    7  H           1     -21.262  -7.677  -6.141  0.00  0.00     0.275 HD
HETATM    8  H           1     -20.471  -9.189  -6.132  0.00  0.00     0.275 HD
HETATM    9  H           1     -22.023  -9.034  -5.439  0.00  0.00     0.275 HD
ENDBRANCH   5   6
BRANCH   5  10
HETATM   10  C           1     -21.186  -7.011  -3.674  0.00  0.00     0.145 C 
BRANCH  10  11
HETATM   11  C           1     -21.519  -6.028  -4.769  0.00  0.00     0.217 C 
HETATM   12  N           1     -20.563  -5.157  -5.220  0.00  0.00    -0.370 N 
HETATM   13  H           1     -20.787  -4.497  -5.954  0.00  0.00     0.159 HD
HETATM   14  H           1     -19.635  -5.173  -4.819  0.00  0.00     0.159 HD
HETATM   15  O           1     -22.627  -6.009  -5.246  0.00  0.00    -0.274 OA
ENDBRANCH  10  11
ENDBRANCH   5  10
ENDBRANCH   2   5
BRANCH   4  16
HETATM   16  C           1     -21.737 -10.532  -1.485  0.00  0.00     0.189 C 
BRANCH  16  17
HETATM   17  C           1     -21.929 -10.028  -0.061  0.00  0.00     0.014 C 
HETATM   18  C           1     -20.786 -10.529   0.811  0.00  0.00     0.012 C 
BRANCH  17  19
HETATM   19  C           1     -21.942  -8.506  -0.059  0.00  0.00     0.002 C 
HETATM   20  C           1     -23.234  -8.009   0.576  0.00  0.00     0.005 C 
ENDBRANCH  17  19
ENDBRANCH  16  17
BRANCH  16  21
HETATM   21  C           1     -22.932 -11.357  -1.894  0.00  0.00     0.197 C 
HETATM   22  O           1     -22.822 -12.211  -2.799  0.00  0.00    -0.646 OA
HETATM   23  O           1     -24.033 -11.186  -1.328  0.00  0.00    -0.646 OA
ENDBRANCH  16  21
ENDBRANCH   4  16
TORSDOF 8
ENDMDL
MODEL 7
REMARK VINA RESULT:      -5.0      5.727      7.664
REMARK  8 active torsions:
REMARK  status: ('A' for Active; 'I' for Inactive)
REMARK    1  A    between atoms: C_1  and  C_12 
REMARK       I    between atoms: C_1  and  N_9 
REMARK    2  A    between atoms: N_6  and  C_13 
REMARK       I    between atoms: C_7  and  N_21 
REMARK    3  A    between atoms: C_7  and  C_13 
REMARK    4  A    between atoms: C_12  and  C_13 
REMARK    5  A    between atoms: C_14  and  C_22 
REMARK    6  A    between atoms: C_14  and  C_15 
REMARK    7  A    between atoms: C_15  and  C_16 
REMARK    8  A    between atoms: C_15  and  N_21 
ROOT
HETATM    1  O           1     -20.335  -7.607  -6.108  0.00  0.00    -0.271 OA
HETATM    2  C           1     -20.306  -7.813  -4.918  0.00  0.00     0.249 C 
HETATM    3  H           1     -19.540  -9.021  -3.423  0.00  0.00     0.163 HD
HETATM    4  N           1     -19.564  -8.849  -4.420  0.00  0.00    -0.344 N 
ENDROOT
BRANCH   2   5
HETATM    5  C           1     -21.087  -6.925  -3.980  0.00  0.00     0.283 C 
BRANCH   5   6
HETATM    6  N           1     -22.330  -6.442  -4.667  0.00  0.00    -0.066 N 
HETATM    7  H           1     -22.091  -5.650  -5.304  0.00  0.00     0.275 HD
HETATM    8  H           1     -22.747  -7.223  -5.223  0.00  0.00     0.275 HD
HETATM    9  H           1     -23.019  -6.117  -3.951  0.00  0.00     0.275 HD
ENDBRANCH   5   6
BRANCH   5  10
HETATM   10  C           1     -21.470  -7.714  -2.735  0.00  0.00     0.145 C 
BRANCH  10  11
HETATM   11  C           1     -22.048  -6.777  -1.703  0.00  0.00     0.217 C 
HETATM   12  N           1     -22.435  -7.260  -0.481  0.00  0.00    -0.370 N 
HETATM   13  H           1     -22.823  -6.631   0.211  0.00  0.00     0.159 HD
HETATM   14  H           1     -22.333  -8.244  -0.271  0.00  0.00     0.159 HD
HETATM   15  O           1     -22.169  -5.603  -1.955  0.00  0.00    -0.274 OA
ENDBRANCH  10  11
ENDBRANCH   5  10
ENDBRANCH   2   5
BRANCH   4  16
HETATM   16  C           1     -18.813  -9.702  -5.321  0.00  0.00     0.189 C 
BRANCH  16  17
HETATM   17  C           1     -17.546 -10.182  -4.627  0.00  0.00     0.014 C 
HETATM   18  C           1     -16.340  -9.873  -5.504  0.00  0.00     0.012 C 
BRANCH  17  19
HETATM   19  C           1     -17.399  -9.468  -3.290  0.00  0.00     0.002 C 
HETATM   20  C           1     -15.957  -9.578  -2.811  0.00  0.00     0.005 C 
ENDBRANCH  17  19
ENDBRANCH  16  17
BRANCH  16  21
HETATM   21  C           1     -19.657 -10.891  -5.707  0.00  0.00     0.197 C 
HETATM   22  O           1     -19.567 -11.376  -6.856  0.00  0.00    -0.646 OA
HETATM   23  O           1     -20.447 -11.393  -4.879  0.00  0.00    -0.646 OA
ENDBRANCH  16  21
ENDBRANCH   4  16
TORSDOF 8
ENDMDL
MODEL 8
REMARK VINA RESULT:      -5.0      4.461      9.423
REMARK  8 active torsions:
REMARK  status: ('A' for Active; 'I' for Inactive)
REMARK    1  A    between atoms: C_1  and  C_12 
REMARK       I    between atoms: C_1  and  N_9 
REMARK    2  A    between atoms: N_6  and  C_13 
REMARK       I    between atoms: C_7  and  N_21 
REMARK    3  A    between atoms: C_7  and  C_13 
REMARK    4  A    between atoms: C_12  and  C_13 
REMARK    5  A    between atoms: C_14  and  C_22 
REMARK    6  A    between atoms: C_14  and  C_15 
REMARK    7  A    between atoms: C_15  and  C_16 
REMARK    8  A    between atoms: C_15  and  N_21 
ROOT
HETATM    1  O           1     -20.083  -7.742  -1.871  0.00  0.00    -0.271 OA
HETATM    2  C           1     -21.178  -7.976  -2.326  0.00  0.00     0.249 C 
HETATM    3  H           1     -22.659  -9.407  -2.530  0.00  0.00     0.163 HD
HETATM    4  N           1     -21.742  -9.211  -2.150  0.00  0.00    -0.344 N 
ENDROOT
BRANCH   2   5
HETATM    5  C           1     -21.924  -6.907  -3.085  0.00  0.00     0.283 C 
BRANCH   5   6
HETATM    6  N           1     -22.310  -5.803  -2.146  0.00  0.00    -0.066 N 
HETATM    7  H           1     -22.713  -5.008  -2.689  0.00  0.00     0.275 HD
HETATM    8  H           1     -23.022  -6.157  -1.466  0.00  0.00     0.275 HD
HETATM    9  H           1     -21.464  -5.478  -1.625  0.00  0.00     0.275 HD
ENDBRANCH   5   6
BRANCH   5  10
HETATM   10  C           1     -21.031  -6.348  -4.185  0.00  0.00     0.145 C 
BRANCH  10  11
HETATM   11  C           1     -21.860  -6.071  -5.414  0.00  0.00     0.217 C 
HETATM   12  N           1     -21.257  -5.983  -6.641  0.00  0.00    -0.370 N 
HETATM   13  H           1     -21.813  -5.796  -7.465  0.00  0.00     0.159 HD
HETATM   14  H           1     -20.256  -6.103  -6.721  0.00  0.00     0.159 HD
HETATM   15  O           1     -23.055  -5.927  -5.317  0.00  0.00    -0.274 OA
ENDBRANCH  10  11
ENDBRANCH   5  10
ENDBRANCH   2   5
BRANCH   4  16
HETATM   16  C           1     -21.025 -10.239  -1.420  0.00  0.00     0.189 C 
BRANCH  16  17
HETATM   17  C           1     -21.714 -10.486  -0.084  0.00  0.00     0.014 C 
HETATM   18  C           1     -20.973  -9.734   1.014  0.00  0.00     0.012 C 
BRANCH  17  19
HETATM   19  C           1     -23.152  -9.993  -0.157  0.00  0.00     0.002 C 
HETATM   20  C           1     -24.099 -11.185  -0.144  0.00  0.00     0.005 C 
ENDBRANCH  17  19
ENDBRANCH  16  17
BRANCH  16  21
HETATM   21  C           1     -21.017 -11.514  -2.226  0.00  0.00     0.197 C 
HETATM   22  O           1     -21.964 -11.770  -3.001  0.00  0.00    -0.646 OA
HETATM   23  O           1     -20.064 -12.315  -2.120  0.00  0.00    -0.646 OA
ENDBRANCH  16  21
ENDBRANCH   4  16
TORSDOF 8
ENDMDL
MODEL 9
REMARK VINA RESULT:      -4.9      4.572      9.257
REMARK  8 active torsions:
REMARK  status: ('A' for Active; 'I' for Inactive)
REMARK    1  A    between atoms: C_1  and  C_12 
REMARK       I    between atoms: C_1  and  N_9 
REMARK    2  A    between atoms: N_6  and  C_13 
REMARK       I    between atoms: C_7  and  N_21 
REMARK    3  A    between atoms: C_7  and  C_13 
REMARK    4  A    between atoms: C_12  and  C_13 
REMARK    5  A    between atoms: C_14  and  C_22 
REMARK    6  A    between atoms: C_14  and  C_15 
REMARK    7  A    between atoms: C_15  and  C_16 
REMARK    8  A    between atoms: C_15  and  N_21 
ROOT
HETATM    1  O           1     -22.321  -6.779  -1.651  0.00  0.00    -0.271 OA
HETATM    2  C           1     -21.646  -7.594  -2.234  0.00  0.00     0.249 C 
HETATM    3  H           1     -21.023  -9.567  -2.271  0.00  0.00     0.163 HD
HETATM    4  N           1     -21.587  -8.884  -1.782  0.00  0.00    -0.344 N 
ENDROOT
BRANCH   2   5
HETATM    5  C           1     -20.870  -7.189  -3.463  0.00  0.00     0.283 C 
BRANCH   5   6
HETATM    6  N           1     -20.134  -8.378  -4.005  0.00  0.00    -0.066 N 
HETATM    7  H           1     -19.605  -8.843  -3.233  0.00  0.00     0.275 HD
HETATM    8  H           1     -20.819  -9.054  -4.414  0.00  0.00     0.275 HD
HETATM    9  H           1     -19.467  -8.066  -4.746  0.00  0.00     0.275 HD
ENDBRANCH   5   6
BRANCH   5  10
HETATM   10  C           1     -21.831  -6.662  -4.521  0.00  0.00     0.145 C 
BRANCH  10  11
HETATM   11  C           1     -21.053  -5.938  -5.592  0.00  0.00     0.217 C 
HETATM   12  N           1     -20.961  -6.471  -6.850  0.00  0.00    -0.370 N 
HETATM   13  H           1     -20.438  -5.986  -7.568  0.00  0.00     0.159 HD
HETATM   14  H           1     -21.414  -7.351  -7.060  0.00  0.00     0.159 HD
HETATM   15  O           1     -20.512  -4.888  -5.340  0.00  0.00    -0.274 OA
ENDBRANCH  10  11
ENDBRANCH   5  10
ENDBRANCH   2   5
BRANCH   4  16
HETATM   16  C           1     -22.334  -9.274  -0.601  0.00  0.00     0.189 C 
BRANCH  16  17
HETATM   17  C           1     -22.856 -10.693  -0.777  0.00  0.00     0.014 C 
HETATM   18  C           1     -24.178 -10.843  -0.035  0.00  0.00     0.012 C 
BRANCH  17  19
HETATM   19  C           1     -23.070 -10.975  -2.258  0.00  0.00     0.002 C 
HETATM   20  C           1     -22.584 -12.381  -2.583  0.00  0.00     0.005 C 
ENDBRANCH  17  19
ENDBRANCH  16  17
BRANCH  16  21
HETATM   21  C           1     -21.431  -9.215   0.606  0.00  0.00     0.197 C 
HETATM   22  O           1     -20.653 -10.161   0.852  0.00  0.00    -0.646 OA
HETATM   23  O           1     -21.461  -8.219   1.361  0.00  0.00    -0.646 OA
ENDBRANCH  16  21
ENDBRANCH   4  16
TORSDOF 8
ENDMDL
