MODEL 1
REMARK VINA RESULT:      -7.3      0.000      0.000
REMARK  8 active torsions:
REMARK  status: ('A' for Active; 'I' for Inactive)
REMARK    1  A    between atoms: C_1  and  C_19 
REMARK    2  A    between atoms: N_3  and  C_18 
REMARK    3  A    between atoms: N_9  and  C_21 
REMARK       I    between atoms: N_9  and  C_10 
REMARK    4  A    between atoms: C_10  and  C_18 
REMARK    5  A    between atoms: C_15  and  C_17 
REMARK    6  A    between atoms: C_17  and  C_21 
REMARK    7  A    between atoms: C_18  and  C_19 
REMARK    8  A    between atoms: C_21  and  C_25 
ROOT
HETATM    1  N           1     -34.978  -1.373 -13.224  0.00  0.00    -0.344 N 
HETATM    2  C           1     -34.898  -2.404 -12.327  0.00  0.00     0.249 C 
HETATM    3  H           1     -34.935  -1.562 -14.217  0.00  0.00     0.163 HD
HETATM    4  O           1     -35.903  -2.963 -11.956  0.00  0.00    -0.271 OA
ENDROOT
BRANCH   1   5
HETATM    5  C           1     -35.125  -0.010 -12.750  0.00  0.00     0.191 C 
BRANCH   5   6
HETATM    6  C           1     -35.269   0.928 -13.941  0.00  0.00     0.094 C 
BRANCH   6   7
HETATM    7  C           1     -36.155   0.297 -14.970  0.00  0.00     0.028 A 
HETATM    8  N           1     -37.519   0.440 -15.019  0.00  0.00    -0.354 N 
HETATM    9  C           1     -37.904  -0.263 -16.057  0.00  0.00     0.180 A 
ATOM     10  HN          1     -38.107   0.979 -14.384  1.00  0.00     0.166 HD
HETATM   11  N           1     -36.843  -0.855 -16.682  0.00  0.00    -0.360 N 
HETATM   12  H           1     -36.886  -1.467 -17.534  0.00  0.00     0.166 HD
HETATM   13  C           1     -35.714  -0.505 -15.995  0.00  0.00     0.114 A 
ENDBRANCH   6   7
ENDBRANCH   5   6
BRANCH   5  14
HETATM   14  C           1     -36.354   0.089 -11.880  0.00  0.00     0.197 C 
HETATM   15  O           1     -36.264   0.550 -10.722  0.00  0.00    -0.646 OA
HETATM   16  O           1     -37.462  -0.292 -12.317  0.00  0.00    -0.646 OA
ENDBRANCH   5  14
ENDBRANCH   1   5
BRANCH   2  17
HETATM   17  C           1     -33.553  -2.844 -11.801  0.00  0.00     0.278 C 
BRANCH  17  18
HETATM   18  N           1     -33.391  -2.370 -10.387  0.00  0.00    -0.066 N 
HETATM   19  H           1     -32.410  -2.044 -10.238  0.00  0.00     0.275 HD
HETATM   20  H           1     -34.051  -1.579 -10.208  0.00  0.00     0.275 HD
HETATM   21  H           1     -33.601  -3.155  -9.730  0.00  0.00     0.275 HD
ENDBRANCH  17  18
BRANCH  17  22
HETATM   22  C           1     -33.465  -4.364 -11.839  0.00  0.00     0.021 C 
HETATM   23  C           1     -32.033  -4.782 -12.145  0.00  0.00     0.012 C 
BRANCH  22  24
HETATM   24  C           1     -33.880  -4.929 -10.487  0.00  0.00     0.002 C 
HETATM   25  C           1     -34.310  -6.381 -10.653  0.00  0.00     0.005 C 
ENDBRANCH  22  24
ENDBRANCH  17  22
ENDBRANCH   2  17
TORSDOF 8
ENDMDL
MODEL 2
REMARK VINA RESULT:      -7.3      2.475      3.757
REMARK  8 active torsions:
REMARK  status: ('A' for Active; 'I' for Inactive)
REMARK    1  A    between atoms: C_1  and  C_19 
REMARK    2  A    between atoms: N_3  and  C_18 
REMARK    3  A    between atoms: N_9  and  C_21 
REMARK       I    between atoms: N_9  and  C_10 
REMARK    4  A    between atoms: C_10  and  C_18 
REMARK    5  A    between atoms: C_15  and  C_17 
REMARK    6  A    between atoms: C_17  and  C_21 
REMARK    7  A    between atoms: C_18  and  C_19 
REMARK    8  A    between atoms: C_21  and  C_25 
ROOT
HETATM    1  N           1     -34.370  -2.080 -13.155  0.00  0.00    -0.344 N 
HETATM    2  C           1     -34.452  -3.394 -13.528  0.00  0.00     0.249 C 
HETATM    3  H           1     -33.487  -1.696 -12.843  0.00  0.00     0.163 HD
HETATM    4  O           1     -34.255  -3.711 -14.677  0.00  0.00    -0.271 OA
ENDROOT
BRANCH   1   5
HETATM    5  C           1     -35.549  -1.237 -13.209  0.00  0.00     0.191 C 
BRANCH   5   6
HETATM    6  C           1     -35.362  -0.045 -12.280  0.00  0.00     0.094 C 
BRANCH   6   7
HETATM    7  C           1     -36.276  -0.182 -11.101  0.00  0.00     0.028 A 
HETATM    8  N           1     -35.870  -0.516  -9.835  0.00  0.00    -0.354 N 
HETATM    9  C           1     -36.965  -0.527  -9.112  0.00  0.00     0.180 A 
ATOM     10  HN          1     -34.920  -0.713  -9.521  1.00  0.00     0.166 HD
HETATM   11  N           1     -38.063  -0.213  -9.862  0.00  0.00    -0.360 N 
HETATM   12  H           1     -39.054  -0.155  -9.519  0.00  0.00     0.166 HD
HETATM   13  C           1     -37.636   0.011 -11.141  0.00  0.00     0.114 A 
ENDBRANCH   6   7
ENDBRANCH   5   6
BRANCH   5  14
HETATM   14  C           1     -35.751  -0.746 -14.622  0.00  0.00     0.197 C 
HETATM   15  O           1     -34.805  -0.214 -15.240  0.00  0.00    -0.646 OA
HETATM   16  O           1     -36.866  -0.872 -15.173  0.00  0.00    -0.646 OA
ENDBRANCH   5  14
ENDBRANCH   1   5
BRANCH   2  17
HETATM   17  C           1     -34.789  -4.450 -12.503  0.00  0.00     0.278 C 
BRANCH  17  18
HETATM   18  N           1     -34.982  -5.769 -13.190  0.00  0.00    -0.066 N 
HETATM   19  H           1     -34.175  -5.953 -13.827  0.00  0.00     0.275 HD
HETATM   20  H           1     -35.040  -6.529 -12.475  0.00  0.00     0.275 HD
HETATM   21  H           1     -35.866  -5.746 -13.747  0.00  0.00     0.275 HD
ENDBRANCH  17  18
BRANCH  17  22
HETATM   22  C           1     -33.650  -4.566 -11.498  0.00  0.00     0.021 C 
HETATM   23  C           1     -33.894  -3.607 -10.340  0.00  0.00     0.012 C 
BRANCH  22  24
HETATM   24  C           1     -33.584  -5.993 -10.969  0.00  0.00     0.002 C 
HETATM   25  C           1     -34.647  -6.186  -9.895  0.00  0.00     0.005 C 
ENDBRANCH  22  24
ENDBRANCH  17  22
ENDBRANCH   2  17
TORSDOF 8
ENDMDL
MODEL 3
REMARK VINA RESULT:      -7.3      1.561      2.086
REMARK  8 active torsions:
REMARK  status: ('A' for Active; 'I' for Inactive)
REMARK    1  A    between atoms: C_1  and  C_19 
REMARK    2  A    between atoms: N_3  and  C_18 
REMARK    3  A    between atoms: N_9  and  C_21 
REMARK       I    between atoms: N_9  and  C_10 
REMARK    4  A    between atoms: C_10  and  C_18 
REMARK    5  A    between atoms: C_15  and  C_17 
REMARK    6  A    between atoms: C_17  and  C_21 
REMARK    7  A    between atoms: C_18  and  C_19 
REMARK    8  A    between atoms: C_21  and  C_25 
ROOT
HETATM    1  N           1     -35.658  -1.476 -10.575  0.00  0.00    -0.344 N 
HETATM    2  C           1     -34.588  -2.119 -11.138  0.00  0.00     0.249 C 
HETATM    3  H           1     -36.094  -1.853  -9.743  0.00  0.00     0.163 HD
HETATM    4  O           1     -33.464  -1.841 -10.791  0.00  0.00    -0.271 OA
ENDROOT
BRANCH   1   5
HETATM    5  C           1     -36.165  -0.255 -11.171  0.00  0.00     0.191 C 
BRANCH   5   6
HETATM    6  C           1     -37.138  -0.603 -12.289  0.00  0.00     0.094 C 
BRANCH   6   7
HETATM    7  C           1     -36.695   0.053 -13.559  0.00  0.00     0.028 A 
HETATM    8  N           1     -35.450   0.590 -13.767  0.00  0.00    -0.354 N 
HETATM    9  C           1     -35.474   1.057 -14.993  0.00  0.00     0.180 A 
ATOM     10  HN          1     -34.672   0.620 -13.109  1.00  0.00     0.166 HD
HETATM   11  N           1     -36.685   0.843 -15.587  0.00  0.00    -0.360 N 
HETATM   12  H           1     -36.957   1.121 -16.562  0.00  0.00     0.166 HD
HETATM   13  C           1     -37.480   0.200 -14.678  0.00  0.00     0.114 A 
ENDBRANCH   6   7
ENDBRANCH   5   6
BRANCH   5  14
HETATM   14  C           1     -36.878   0.558 -10.118  0.00  0.00     0.197 C 
HETATM   15  O           1     -36.273   0.906  -9.081  0.00  0.00    -0.646 OA
HETATM   16  O           1     -38.073   0.884 -10.283  0.00  0.00    -0.646 OA
ENDBRANCH   5  14
ENDBRANCH   1   5
BRANCH   2  17
HETATM   17  C           1     -34.812  -3.175 -12.193  0.00  0.00     0.278 C 
BRANCH  17  18
HETATM   18  N           1     -34.342  -2.661 -13.521  0.00  0.00    -0.066 N 
HETATM   19  H           1     -34.635  -3.322 -14.275  0.00  0.00     0.275 HD
HETATM   20  H           1     -34.765  -1.722 -13.700  0.00  0.00     0.275 HD
HETATM   21  H           1     -33.300  -2.579 -13.515  0.00  0.00     0.275 HD
ENDBRANCH  17  18
BRANCH  17  22
HETATM   22  C           1     -34.029  -4.430 -11.830  0.00  0.00     0.021 C 
HETATM   23  C           1     -32.540  -4.174 -12.023  0.00  0.00     0.012 C 
BRANCH  22  24
HETATM   24  C           1     -34.296  -4.791 -10.375  0.00  0.00     0.002 C 
HETATM   25  C           1     -34.520  -6.294 -10.257  0.00  0.00     0.005 C 
ENDBRANCH  22  24
ENDBRANCH  17  22
ENDBRANCH   2  17
TORSDOF 8
ENDMDL
MODEL 4
REMARK VINA RESULT:      -6.7     13.579     15.666
REMARK  8 active torsions:
REMARK  status: ('A' for Active; 'I' for Inactive)
REMARK    1  A    between atoms: C_1  and  C_19 
REMARK    2  A    between atoms: N_3  and  C_18 
REMARK    3  A    between atoms: N_9  and  C_21 
REMARK       I    between atoms: N_9  and  C_10 
REMARK    4  A    between atoms: C_10  and  C_18 
REMARK    5  A    between atoms: C_15  and  C_17 
REMARK    6  A    between atoms: C_17  and  C_21 
REMARK    7  A    between atoms: C_18  and  C_19 
REMARK    8  A    between atoms: C_21  and  C_25 
ROOT
HETATM    1  N           1     -22.143  -4.680  -6.371  0.00  0.00    -0.344 N 
HETATM    2  C           1     -21.323  -5.337  -5.494  0.00  0.00     0.249 C 
HETATM    3  H           1     -22.877  -4.077  -6.023  0.00  0.00     0.163 HD
HETATM    4  O           1     -20.300  -4.816  -5.117  0.00  0.00    -0.271 OA
ENDROOT
BRANCH   1   5
HETATM    5  C           1     -21.959  -4.848  -7.800  0.00  0.00     0.191 C 
BRANCH   5   6
HETATM    6  C           1     -22.605  -3.681  -8.535  0.00  0.00     0.094 C 
BRANCH   6   7
HETATM    7  C           1     -22.596  -3.952 -10.007  0.00  0.00     0.028 A 
HETATM    8  N           1     -21.740  -3.365 -10.903  0.00  0.00    -0.354 N 
HETATM    9  C           1     -22.060  -3.871 -12.071  0.00  0.00     0.180 A 
ATOM     10  HN          1     -21.009  -2.682 -10.704  1.00  0.00     0.166 HD
HETATM   11  N           1     -23.090  -4.762 -11.965  0.00  0.00    -0.360 N 
HETATM   12  H           1     -23.529  -5.300 -12.752  0.00  0.00     0.166 HD
HETATM   13  C           1     -23.445  -4.824 -10.646  0.00  0.00     0.114 A 
ENDBRANCH   6   7
ENDBRANCH   5   6
BRANCH   5  14
HETATM   14  C           1     -20.484  -4.887  -8.114  0.00  0.00     0.197 C 
HETATM   15  O           1     -19.852  -3.821  -8.281  0.00  0.00    -0.646 OA
HETATM   16  O           1     -19.894  -5.985  -8.210  0.00  0.00    -0.646 OA
ENDBRANCH   5  14
ENDBRANCH   1   5
BRANCH   2  17
HETATM   17  C           1     -21.696  -6.712  -4.996  0.00  0.00     0.278 C 
BRANCH  17  18
HETATM   18  N           1     -21.141  -7.748  -5.928  0.00  0.00    -0.066 N 
HETATM   19  H           1     -21.698  -7.757  -6.812  0.00  0.00     0.275 HD
HETATM   20  H           1     -20.145  -7.519  -6.149  0.00  0.00     0.275 HD
HETATM   21  H           1     -21.191  -8.688  -5.475  0.00  0.00     0.275 HD
ENDBRANCH  17  18
BRANCH  17  22
HETATM   22  C           1     -21.119  -6.923  -3.602  0.00  0.00     0.021 C 
HETATM   23  C           1     -22.047  -6.300  -2.568  0.00  0.00     0.012 C 
BRANCH  22  24
HETATM   24  C           1     -20.986  -8.416  -3.331  0.00  0.00     0.002 C 
HETATM   25  C           1     -20.628  -8.636  -1.866  0.00  0.00     0.005 C 
ENDBRANCH  22  24
ENDBRANCH  17  22
ENDBRANCH   2  17
TORSDOF 8
ENDMDL
MODEL 5
REMARK VINA RESULT:      -6.7      1.714      6.040
REMARK  8 active torsions:
REMARK  status: ('A' for Active; 'I' for Inactive)
REMARK    1  A    between atoms: C_1  and  C_19 
REMARK    2  A    between atoms: N_3  and  C_18 
REMARK    3  A    between atoms: N_9  and  C_21 
REMARK       I    between atoms: N_9  and  C_10 
REMARK    4  A    between atoms: C_10  and  C_18 
REMARK    5  A    between atoms: C_15  and  C_17 
REMARK    6  A    between atoms: C_17  and  C_21 
REMARK    7  A    between atoms: C_18  and  C_19 
REMARK    8  A    between atoms: C_21  and  C_25 
ROOT
HETATM    1  N           1     -34.717  -1.509 -12.501  0.00  0.00    -0.344 N 
HETATM    2  C           1     -35.377  -0.405 -12.969  0.00  0.00     0.249 C 
HETATM    3  H           1     -33.840  -1.789 -12.920  0.00  0.00     0.163 HD
HETATM    4  O           1     -35.150   0.683 -12.491  0.00  0.00    -0.271 OA
ENDROOT
BRANCH   1   5
HETATM    5  C           1     -35.276  -2.277 -11.406  0.00  0.00     0.191 C 
BRANCH   5   6
HETATM    6  C           1     -34.152  -2.752 -10.494  0.00  0.00     0.094 C 
BRANCH   6   7
HETATM    7  C           1     -33.855  -4.191 -10.776  0.00  0.00     0.028 A 
HETATM    8  N           1     -34.568  -5.249 -10.271  0.00  0.00    -0.354 N 
HETATM    9  C           1     -33.987  -6.321 -10.757  0.00  0.00     0.180 A 
ATOM     10  HN          1     -35.377  -5.210  -9.652  1.00  0.00     0.166 HD
HETATM   11  N           1     -32.927  -5.999 -11.555  0.00  0.00    -0.360 N 
HETATM   12  H           1     -32.302  -6.674 -12.060  0.00  0.00     0.166 HD
HETATM   13  C           1     -32.830  -4.635 -11.577  0.00  0.00     0.114 A 
ENDBRANCH   6   7
ENDBRANCH   5   6
BRANCH   5  14
HETATM   14  C           1     -36.229  -1.409 -10.620  0.00  0.00     0.197 C 
HETATM   15  O           1     -37.445  -1.397 -10.907  0.00  0.00    -0.646 OA
HETATM   16  O           1     -35.801  -0.702  -9.681  0.00  0.00    -0.646 OA
ENDBRANCH   5  14
ENDBRANCH   1   5
BRANCH   2  17
HETATM   17  C           1     -36.387  -0.543 -14.081  0.00  0.00     0.278 C 
BRANCH  17  18
HETATM   18  N           1     -37.642   0.190 -13.710  0.00  0.00    -0.066 N 
HETATM   19  H           1     -37.522   0.635 -12.772  0.00  0.00     0.275 HD
HETATM   20  H           1     -37.836   0.930 -14.422  0.00  0.00     0.275 HD
HETATM   21  H           1     -38.441  -0.481 -13.677  0.00  0.00     0.275 HD
ENDBRANCH  17  18
BRANCH  17  22
HETATM   22  C           1     -35.816   0.049 -15.364  0.00  0.00     0.021 C 
HETATM   23  C           1     -35.728  -1.036 -16.428  0.00  0.00     0.012 C 
BRANCH  22  24
HETATM   24  C           1     -36.727   1.167 -15.855  0.00  0.00     0.002 C 
HETATM   25  C           1     -35.905   2.430 -16.079  0.00  0.00     0.005 C 
ENDBRANCH  22  24
ENDBRANCH  17  22
ENDBRANCH   2  17
TORSDOF 8
ENDMDL
MODEL 6
REMARK VINA RESULT:      -6.6     13.827     16.956
REMARK  8 active torsions:
REMARK  status: ('A' for Active; 'I' for Inactive)
REMARK    1  A    between atoms: C_1  and  C_19 
REMARK    2  A    between atoms: N_3  and  C_18 
REMARK    3  A    between atoms: N_9  and  C_21 
REMARK       I    between atoms: N_9  and  C_10 
REMARK    4  A    between atoms: C_10  and  C_18 
REMARK    5  A    between atoms: C_15  and  C_17 
REMARK    6  A    between atoms: C_17  and  C_21 
REMARK    7  A    between atoms: C_18  and  C_19 
REMARK    8  A    between atoms: C_21  and  C_25 
ROOT
HETATM    1  N           1     -20.722  -6.322  -6.834  0.00  0.00    -0.344 N 
HETATM    2  C           1     -21.188  -5.062  -7.095  0.00  0.00     0.249 C 
HETATM    3  H           1     -19.881  -6.655  -7.287  0.00  0.00     0.163 HD
HETATM    4  O           1     -20.819  -4.129  -6.420  0.00  0.00    -0.271 OA
ENDROOT
BRANCH   1   5
HETATM    5  C           1     -21.435  -7.180  -5.907  0.00  0.00     0.191 C 
BRANCH   5   6
HETATM    6  C           1     -20.440  -8.063  -5.166  0.00  0.00     0.094 C 
BRANCH   6   7
HETATM    7  C           1     -20.986  -9.454  -5.063  0.00  0.00     0.028 A 
HETATM    8  N           1     -20.833 -10.424  -6.021  0.00  0.00    -0.354 N 
HETATM    9  C           1     -21.453 -11.479  -5.546  0.00  0.00     0.180 A 
ATOM     10  HN          1     -20.343 -10.343  -6.911  1.00  0.00     0.166 HD
HETATM   11  N           1     -21.999 -11.229  -4.319  0.00  0.00    -0.360 N 
HETATM   12  H           1     -22.543 -11.908  -3.731  0.00  0.00     0.166 HD
HETATM   13  C           1     -21.708  -9.933  -3.996  0.00  0.00     0.114 A 
ENDBRANCH   6   7
ENDBRANCH   5   6
BRANCH   5  14
HETATM   14  C           1     -22.190  -6.329  -4.915  0.00  0.00     0.197 C 
HETATM   15  O           1     -23.376  -6.008  -5.142  0.00  0.00    -0.646 OA
HETATM   16  O           1     -21.628  -5.946  -3.865  0.00  0.00    -0.646 OA
ENDBRANCH   5  14
ENDBRANCH   1   5
BRANCH   2  17
HETATM   17  C           1     -22.161  -4.835  -8.226  0.00  0.00     0.278 C 
BRANCH  17  18
HETATM   18  N           1     -23.422  -4.229  -7.684  0.00  0.00    -0.066 N 
HETATM   19  H           1     -24.162  -4.964  -7.620  0.00  0.00     0.275 HD
HETATM   20  H           1     -23.239  -3.837  -6.733  0.00  0.00     0.275 HD
HETATM   21  H           1     -23.744  -3.466  -8.321  0.00  0.00     0.275 HD
ENDBRANCH  17  18
BRANCH  17  22
HETATM   22  C           1     -21.543  -3.889  -9.247  0.00  0.00     0.021 C 
HETATM   23  C           1     -20.300  -4.531  -9.847  0.00  0.00     0.012 C 
BRANCH  22  24
HETATM   24  C           1     -22.553  -3.609 -10.353  0.00  0.00     0.002 C 
HETATM   25  C           1     -21.841  -2.977 -11.543  0.00  0.00     0.005 C 
ENDBRANCH  22  24
ENDBRANCH  17  22
ENDBRANCH   2  17
TORSDOF 8
ENDMDL
MODEL 7
REMARK VINA RESULT:      -6.5     14.691     17.658
REMARK  8 active torsions:
REMARK  status: ('A' for Active; 'I' for Inactive)
REMARK    1  A    between atoms: C_1  and  C_19 
REMARK    2  A    between atoms: N_3  and  C_18 
REMARK    3  A    between atoms: N_9  and  C_21 
REMARK       I    between atoms: N_9  and  C_10 
REMARK    4  A    between atoms: C_10  and  C_18 
REMARK    5  A    between atoms: C_15  and  C_17 
REMARK    6  A    between atoms: C_17  and  C_21 
REMARK    7  A    between atoms: C_18  and  C_19 
REMARK    8  A    between atoms: C_21  and  C_25 
ROOT
HETATM    1  N           1     -20.097  -6.703  -6.736  0.00  0.00    -0.344 N 
HETATM    2  C           1     -20.163  -5.356  -6.970  0.00  0.00     0.249 C 
HETATM    3  H           1     -19.951  -7.344  -7.505  0.00  0.00     0.163 HD
HETATM    4  O           1     -19.156  -4.687  -6.938  0.00  0.00    -0.271 OA
ENDROOT
BRANCH   1   5
HETATM    5  C           1     -20.238  -7.211  -5.385  0.00  0.00     0.191 C 
BRANCH   5   6
HETATM    6  C           1     -21.706  -7.176  -4.981  0.00  0.00     0.094 C 
BRANCH   6   7
HETATM    7  C           1     -21.812  -7.083  -3.490  0.00  0.00     0.028 A 
HETATM    8  N           1     -22.304  -5.999  -2.809  0.00  0.00    -0.354 N 
HETATM    9  C           1     -22.223  -6.322  -1.540  0.00  0.00     0.180 A 
ATOM     10  HN          1     -22.657  -5.128  -3.205  1.00  0.00     0.166 HD
HETATM   11  N           1     -21.699  -7.573  -1.374  0.00  0.00    -0.360 N 
HETATM   12  H           1     -21.534  -8.060  -0.459  0.00  0.00     0.166 HD
HETATM   13  C           1     -21.430  -8.073  -2.617  0.00  0.00     0.114 A 
ENDBRANCH   6   7
ENDBRANCH   5   6
BRANCH   5  14
HETATM   14  C           1     -19.735  -8.633  -5.328  0.00  0.00     0.197 C 
HETATM   15  O           1     -18.623  -8.882  -4.816  0.00  0.00    -0.646 OA
HETATM   16  O           1     -20.430  -9.561  -5.794  0.00  0.00    -0.646 OA
ENDBRANCH   5  14
ENDBRANCH   1   5
BRANCH   2  17
HETATM   17  C           1     -21.491  -4.705  -7.270  0.00  0.00     0.278 C 
BRANCH  17  18
HETATM   18  N           1     -21.400  -3.235  -6.987  0.00  0.00    -0.066 N 
HETATM   19  H           1     -20.821  -3.079  -6.132  0.00  0.00     0.275 HD
HETATM   20  H           1     -20.956  -2.751  -7.800  0.00  0.00     0.275 HD
HETATM   21  H           1     -22.359  -2.850  -6.834  0.00  0.00     0.275 HD
ENDBRANCH  17  18
BRANCH  17  22
HETATM   22  C           1     -21.843  -4.918  -8.737  0.00  0.00     0.021 C 
HETATM   23  C           1     -23.187  -4.269  -9.035  0.00  0.00     0.012 C 
BRANCH  22  24
HETATM   24  C           1     -20.769  -4.285  -9.612  0.00  0.00     0.002 C 
HETATM   25  C           1     -21.292  -4.144 -11.036  0.00  0.00     0.005 C 
ENDBRANCH  22  24
ENDBRANCH  17  22
ENDBRANCH   2  17
TORSDOF 8
ENDMDL
MODEL 8
REMARK VINA RESULT:      -6.4      1.929      5.384
REMARK  8 active torsions:
REMARK  status: ('A' for Active; 'I' for Inactive)
REMARK    1  A    between atoms: C_1  and  C_19 
REMARK    2  A    between atoms: N_3  and  C_18 
REMARK    3  A    between atoms: N_9  and  C_21 
REMARK       I    between atoms: N_9  and  C_10 
REMARK    4  A    between atoms: C_10  and  C_18 
REMARK    5  A    between atoms: C_15  and  C_17 
REMARK    6  A    between atoms: C_17  and  C_21 
REMARK    7  A    between atoms: C_18  and  C_19 
REMARK    8  A    between atoms: C_21  and  C_25 
ROOT
HETATM    1  N           1     -36.693  -0.003 -11.372  0.00  0.00    -0.344 N 
HETATM    2  C           1     -36.748  -0.400 -12.682  0.00  0.00     0.249 C 
HETATM    3  H           1     -36.892   0.958 -11.126  0.00  0.00     0.163 HD
HETATM    4  O           1     -37.785  -0.814 -13.145  0.00  0.00    -0.271 OA
ENDROOT
BRANCH   1   5
HETATM    5  C           1     -36.350  -0.961 -10.339  0.00  0.00     0.191 C 
BRANCH   5   6
HETATM    6  C           1     -34.855  -1.247 -10.390  0.00  0.00     0.094 C 
BRANCH   6   7
HETATM    7  C           1     -34.634  -2.696 -10.696  0.00  0.00     0.028 A 
HETATM    8  N           1     -35.631  -3.632 -10.803  0.00  0.00    -0.354 N 
HETATM    9  C           1     -35.019  -4.760 -11.077  0.00  0.00     0.180 A 
ATOM     10  HN          1     -36.633  -3.483 -10.693  1.00  0.00     0.166 HD
HETATM   11  N           1     -33.666  -4.590 -11.152  0.00  0.00    -0.360 N 
HETATM   12  H           1     -32.956  -5.336 -11.359  0.00  0.00     0.166 HD
HETATM   13  C           1     -33.403  -3.270 -10.910  0.00  0.00     0.114 A 
ENDBRANCH   6   7
ENDBRANCH   5   6
BRANCH   5  14
HETATM   14  C           1     -36.708  -0.392  -8.988  0.00  0.00     0.197 C 
HETATM   15  O           1     -37.897  -0.396  -8.604  0.00  0.00    -0.646 OA
HETATM   16  O           1     -35.815   0.085  -8.254  0.00  0.00    -0.646 OA
ENDBRANCH   5  14
ENDBRANCH   1   5
BRANCH   2  17
HETATM   17  C           1     -35.514  -0.319 -13.547  0.00  0.00     0.278 C 
BRANCH  17  18
HETATM   18  N           1     -34.999  -1.703 -13.811  0.00  0.00    -0.066 N 
HETATM   19  H           1     -34.707  -1.782 -14.811  0.00  0.00     0.275 HD
HETATM   20  H           1     -34.178  -1.892 -13.193  0.00  0.00     0.275 HD
HETATM   21  H           1     -35.753  -2.400 -13.613  0.00  0.00     0.275 HD
ENDBRANCH  17  18
BRANCH  17  22
HETATM   22  C           1     -35.863   0.352 -14.870  0.00  0.00     0.021 C 
HETATM   23  C           1     -35.120   1.676 -14.979  0.00  0.00     0.012 C 
BRANCH  22  24
HETATM   24  C           1     -35.453  -0.556 -16.022  0.00  0.00     0.002 C 
HETATM   25  C           1     -36.693  -0.985 -16.797  0.00  0.00     0.005 C 
ENDBRANCH  22  24
ENDBRANCH  17  22
ENDBRANCH   2  17
TORSDOF 8
ENDMDL
MODEL 9
REMARK VINA RESULT:      -6.4      2.497      6.382
REMARK  8 active torsions:
REMARK  status: ('A' for Active; 'I' for Inactive)
REMARK    1  A    between atoms: C_1  and  C_19 
REMARK    2  A    between atoms: N_3  and  C_18 
REMARK    3  A    between atoms: N_9  and  C_21 
REMARK       I    between atoms: N_9  and  C_10 
REMARK    4  A    between atoms: C_10  and  C_18 
REMARK    5  A    between atoms: C_15  and  C_17 
REMARK    6  A    between atoms: C_17  and  C_21 
REMARK    7  A    between atoms: C_18  and  C_19 
REMARK    8  A    between atoms: C_21  and  C_25 
ROOT
HETATM    1  N           1     -33.519  -2.485 -11.765  0.00  0.00    -0.344 N 
HETATM    2  C           1     -34.409  -1.723 -11.056  0.00  0.00     0.249 C 
HETATM    3  H           1     -32.727  -2.048 -12.218  0.00  0.00     0.163 HD
HETATM    4  O           1     -34.230  -1.525  -9.877  0.00  0.00    -0.271 OA
ENDROOT
BRANCH   1   5
HETATM    5  C           1     -33.713  -3.919 -11.866  0.00  0.00     0.191 C 
BRANCH   5   6
HETATM    6  C           1     -34.604  -4.392 -10.725  0.00  0.00     0.094 C 
BRANCH   6   7
HETATM    7  C           1     -34.378  -5.852 -10.487  0.00  0.00     0.028 A 
HETATM    8  N           1     -35.259  -6.684  -9.845  0.00  0.00    -0.354 N 
HETATM    9  C           1     -34.687  -7.865  -9.849  0.00  0.00     0.180 A 
ATOM     10  HN          1     -36.166  -6.437  -9.448  1.00  0.00     0.166 HD
HETATM   11  N           1     -33.471  -7.830 -10.469  0.00  0.00    -0.360 N 
HETATM   12  H           1     -32.818  -8.641 -10.603  0.00  0.00     0.166 HD
HETATM   13  C           1     -33.259  -6.544 -10.884  0.00  0.00     0.114 A 
ENDBRANCH   6   7
ENDBRANCH   5   6
BRANCH   5  14
HETATM   14  C           1     -34.371  -4.244 -13.185  0.00  0.00     0.197 C 
HETATM   15  O           1     -33.997  -3.667 -14.229  0.00  0.00    -0.646 OA
HETATM   16  O           1     -35.290  -5.091 -13.234  0.00  0.00    -0.646 OA
ENDBRANCH   5  14
ENDBRANCH   1   5
BRANCH   2  17
HETATM   17  C           1     -35.612  -1.129 -11.746  0.00  0.00     0.278 C 
BRANCH  17  18
HETATM   18  N           1     -36.101   0.054 -10.965  0.00  0.00    -0.066 N 
HETATM   19  H           1     -36.430  -0.260 -10.025  0.00  0.00     0.275 HD
HETATM   20  H           1     -35.321   0.740 -10.848  0.00  0.00     0.275 HD
HETATM   21  H           1     -36.891   0.508 -11.477  0.00  0.00     0.275 HD
ENDBRANCH  17  18
BRANCH  17  22
HETATM   22  C           1     -35.226  -0.684 -13.151  0.00  0.00     0.021 C 
HETATM   23  C           1     -36.410  -0.877 -14.089  0.00  0.00     0.012 C 
BRANCH  22  24
HETATM   24  C           1     -34.834   0.788 -13.125  0.00  0.00     0.002 C 
HETATM   25  C           1     -35.112   1.411 -14.488  0.00  0.00     0.005 C 
ENDBRANCH  22  24
ENDBRANCH  17  22
ENDBRANCH   2  17
TORSDOF 8
ENDMDL
