MODEL 1
REMARK VINA RESULT:      -5.6      0.000      0.000
REMARK  6 active torsions:
REMARK  status: ('A' for Active; 'I' for Inactive)
REMARK    1  A    between atoms: N_2  and  C_5 
REMARK    2  A    between atoms: O_3  and  C_4 
REMARK    3  A    between atoms: C_4  and  C_5 
REMARK    4  A    between atoms: C_5  and  C_6 
REMARK       I    between atoms: C_6  and  N_7 
REMARK    5  A    between atoms: N_7  and  C_9 
REMARK    6  A    between atoms: C_9  and  C_15 
ROOT
HETATM    1  C           1     -30.192  -7.148 -17.390  0.00  0.00     0.297 C 
ENDROOT
BRANCH   1   2
HETATM    2  N           1     -31.165  -6.075 -17.000  0.00  0.00    -0.064 N 
HETATM    3  H           1     -32.137  -6.458 -17.026  0.00  0.00     0.275 HD
HETATM    4  H           1     -30.948  -5.744 -16.033  0.00  0.00     0.275 HD
HETATM    5  H           1     -31.088  -5.276 -17.668  0.00  0.00     0.275 HD
ENDBRANCH   1   2
BRANCH   1   6
HETATM    6  C           1     -30.694  -7.856 -18.642  0.00  0.00     0.206 C 
BRANCH   6   7
HETATM    7  O           1     -29.661  -8.633 -19.186  0.00  0.00    -0.398 OA
HETATM    8  H           1     -29.969  -8.957 -20.014  0.00  0.00     0.209 HD
ENDBRANCH   6   7
ENDBRANCH   1   6
BRANCH   1   9
HETATM    9  C           1     -28.845  -6.529 -17.667  0.00  0.00     0.250 C 
HETATM   10  O           1     -28.729  -5.701 -18.539  0.00  0.00    -0.271 OA
HETATM   11  N           1     -27.754  -6.904 -16.930  0.00  0.00    -0.349 N 
HETATM   12  H           1     -27.852  -7.598 -16.199  0.00  0.00     0.163 HD
BRANCH  11  13
HETATM   13  C           1     -26.459  -6.309 -17.196  0.00  0.00     0.235 C 
BRANCH  13  14
HETATM   14  C           1     -25.579  -6.451 -15.980  0.00  0.00     0.191 C 
HETATM   15  O           1     -25.433  -7.570 -15.442  0.00  0.00    -0.647 OA
HETATM   16  O           1     -24.995  -5.451 -15.509  0.00  0.00    -0.647 OA
ENDBRANCH  13  14
ENDBRANCH  11  13
ENDBRANCH   1   9
TORSDOF 6
ENDMDL
MODEL 2
REMARK VINA RESULT:      -5.4      9.134     10.476
REMARK  6 active torsions:
REMARK  status: ('A' for Active; 'I' for Inactive)
REMARK    1  A    between atoms: N_2  and  C_5 
REMARK    2  A    between atoms: O_3  and  C_4 
REMARK    3  A    between atoms: C_4  and  C_5 
REMARK    4  A    between atoms: C_5  and  C_6 
REMARK       I    between atoms: C_6  and  N_7 
REMARK    5  A    between atoms: N_7  and  C_9 
REMARK    6  A    between atoms: C_9  and  C_15 
ROOT
HETATM    1  C           1     -34.612  -1.402 -11.919  0.00  0.00     0.297 C 
ENDROOT
BRANCH   1   2
HETATM    2  N           1     -35.370  -1.365 -10.625  0.00  0.00    -0.064 N 
HETATM    3  H           1     -35.663  -0.383 -10.421  0.00  0.00     0.275 HD
HETATM    4  H           1     -36.218  -1.972 -10.703  0.00  0.00     0.275 HD
HETATM    5  H           1     -34.760  -1.715  -9.854  0.00  0.00     0.275 HD
ENDBRANCH   1   2
BRANCH   1   6
HETATM    6  C           1     -34.179  -2.833 -12.213  0.00  0.00     0.206 C 
BRANCH   6   7
HETATM    7  O           1     -34.477  -3.148 -13.546  0.00  0.00    -0.398 OA
HETATM    8  H           1     -34.122  -2.455 -14.077  0.00  0.00     0.209 HD
ENDBRANCH   6   7
ENDBRANCH   1   6
BRANCH   1   9
HETATM    9  C           1     -35.498  -0.905 -13.035  0.00  0.00     0.250 C 
HETATM   10  O           1     -36.696  -1.041 -12.961  0.00  0.00    -0.271 OA
HETATM   11  N           1     -34.944  -0.301 -14.132  0.00  0.00    -0.349 N 
HETATM   12  H           1     -33.940  -0.188 -14.194  0.00  0.00     0.163 HD
BRANCH  11  13
HETATM   13  C           1     -35.795   0.176 -15.205  0.00  0.00     0.235 C 
BRANCH  13  14
HETATM   14  C           1     -35.887  -0.876 -16.281  0.00  0.00     0.191 C 
HETATM   15  O           1     -36.729  -0.761 -17.197  0.00  0.00    -0.647 OA
HETATM   16  O           1     -35.121  -1.864 -16.257  0.00  0.00    -0.647 OA
ENDBRANCH  13  14
ENDBRANCH  11  13
ENDBRANCH   1   9
TORSDOF 6
ENDMDL
MODEL 3
REMARK VINA RESULT:      -5.4      7.676      8.904
REMARK  6 active torsions:
REMARK  status: ('A' for Active; 'I' for Inactive)
REMARK    1  A    between atoms: N_2  and  C_5 
REMARK    2  A    between atoms: O_3  and  C_4 
REMARK    3  A    between atoms: C_4  and  C_5 
REMARK    4  A    between atoms: C_5  and  C_6 
REMARK       I    between atoms: C_6  and  N_7 
REMARK    5  A    between atoms: N_7  and  C_9 
REMARK    6  A    between atoms: C_9  and  C_15 
ROOT
HETATM    1  C           1     -24.262  -3.327  -9.704  0.00  0.00     0.297 C 
ENDROOT
BRANCH   1   2
HETATM    2  N           1     -25.710  -3.715  -9.657  0.00  0.00    -0.064 N 
HETATM    3  H           1     -26.157  -3.295  -8.812  0.00  0.00     0.275 HD
HETATM    4  H           1     -26.192  -3.364 -10.516  0.00  0.00     0.275 HD
HETATM    5  H           1     -25.791  -4.755  -9.613  0.00  0.00     0.275 HD
ENDBRANCH   1   2
BRANCH   1   6
HETATM    6  C           1     -23.515  -4.020  -8.572  0.00  0.00     0.206 C 
BRANCH   6   7
HETATM    7  O           1     -22.330  -4.583  -9.069  0.00  0.00    -0.398 OA
HETATM    8  H           1     -21.683  -3.899  -9.073  0.00  0.00     0.209 HD
ENDBRANCH   6   7
ENDBRANCH   1   6
BRANCH   1   9
HETATM    9  C           1     -23.672  -3.747 -11.028  0.00  0.00     0.250 C 
HETATM   10  O           1     -23.808  -4.883 -11.417  0.00  0.00    -0.271 OA
HETATM   11  N           1     -22.982  -2.841 -11.788  0.00  0.00    -0.349 N 
HETATM   12  H           1     -22.869  -1.889 -11.462  0.00  0.00     0.163 HD
BRANCH  11  13
HETATM   13  C           1     -22.415  -3.244 -13.061  0.00  0.00     0.235 C 
BRANCH  13  14
HETATM   14  C           1     -23.183  -2.593 -14.183  0.00  0.00     0.191 C 
HETATM   15  O           1     -24.308  -2.095 -13.965  0.00  0.00    -0.647 OA
HETATM   16  O           1     -22.694  -2.552 -15.334  0.00  0.00    -0.647 OA
ENDBRANCH  13  14
ENDBRANCH  11  13
ENDBRANCH   1   9
TORSDOF 6
ENDMDL
MODEL 4
REMARK VINA RESULT:      -5.3      7.285      8.261
REMARK  6 active torsions:
REMARK  status: ('A' for Active; 'I' for Inactive)
REMARK    1  A    between atoms: N_2  and  C_5 
REMARK    2  A    between atoms: O_3  and  C_4 
REMARK    3  A    between atoms: C_4  and  C_5 
REMARK    4  A    between atoms: C_5  and  C_6 
REMARK       I    between atoms: C_6  and  N_7 
REMARK    5  A    between atoms: N_7  and  C_9 
REMARK    6  A    between atoms: C_9  and  C_15 
ROOT
HETATM    1  C           1     -22.900  -2.183 -14.307  0.00  0.00     0.297 C 
ENDROOT
BRANCH   1   2
HETATM    2  N           1     -22.335  -3.157 -15.299  0.00  0.00    -0.064 N 
HETATM    3  H           1     -22.370  -2.739 -16.256  0.00  0.00     0.275 HD
HETATM    4  H           1     -21.343  -3.371 -15.049  0.00  0.00     0.275 HD
HETATM    5  H           1     -22.897  -4.036 -15.283  0.00  0.00     0.275 HD
ENDBRANCH   1   2
BRANCH   1   6
HETATM    6  C           1     -23.806  -1.193 -15.027  0.00  0.00     0.206 C 
BRANCH   6   7
HETATM    7  O           1     -24.991  -1.025 -14.296  0.00  0.00    -0.398 OA
HETATM    8  H           1     -25.549  -1.753 -14.508  0.00  0.00     0.209 HD
ENDBRANCH   6   7
ENDBRANCH   1   6
BRANCH   1   9
HETATM    9  C           1     -23.698  -2.932 -13.268  0.00  0.00     0.250 C 
HETATM   10  O           1     -24.423  -3.840 -13.601  0.00  0.00    -0.271 OA
HETATM   11  N           1     -23.602  -2.582 -11.948  0.00  0.00    -0.349 N 
HETATM   12  H           1     -22.996  -1.821 -11.669  0.00  0.00     0.163 HD
BRANCH  11  13
HETATM   13  C           1     -24.370  -3.301 -10.949  0.00  0.00     0.235 C 
BRANCH  13  14
HETATM   14  C           1     -23.441  -3.826  -9.882  0.00  0.00     0.191 C 
HETATM   15  O           1     -23.855  -3.974  -8.712  0.00  0.00    -0.647 OA
HETATM   16  O           1     -22.258  -4.112 -10.168  0.00  0.00    -0.647 OA
ENDBRANCH  13  14
ENDBRANCH  11  13
ENDBRANCH   1   9
TORSDOF 6
ENDMDL
MODEL 5
REMARK VINA RESULT:      -5.3      7.855      9.434
REMARK  6 active torsions:
REMARK  status: ('A' for Active; 'I' for Inactive)
REMARK    1  A    between atoms: N_2  and  C_5 
REMARK    2  A    between atoms: O_3  and  C_4 
REMARK    3  A    between atoms: C_4  and  C_5 
REMARK    4  A    between atoms: C_5  and  C_6 
REMARK       I    between atoms: C_6  and  N_7 
REMARK    5  A    between atoms: N_7  and  C_9 
REMARK    6  A    between atoms: C_9  and  C_15 
ROOT
HETATM    1  C           1     -22.801  -2.803 -12.442  0.00  0.00     0.297 C 
ENDROOT
BRANCH   1   2
HETATM    2  N           1     -21.619  -3.719 -12.568  0.00  0.00    -0.064 N 
HETATM    3  H           1     -21.855  -4.505 -13.216  0.00  0.00     0.275 HD
HETATM    4  H           1     -20.806  -3.185 -12.951  0.00  0.00     0.275 HD
HETATM    5  H           1     -21.374  -4.104 -11.629  0.00  0.00     0.275 HD
ENDBRANCH   1   2
BRANCH   1   6
HETATM    6  C           1     -23.657  -2.904 -13.697  0.00  0.00     0.206 C 
BRANCH   6   7
HETATM    7  O           1     -24.432  -1.743 -13.830  0.00  0.00    -0.398 OA
HETATM    8  H           1     -25.089  -1.774 -13.156  0.00  0.00     0.209 HD
ENDBRANCH   6   7
ENDBRANCH   1   6
BRANCH   1   9
HETATM    9  C           1     -23.620  -3.205 -11.240  0.00  0.00     0.250 C 
HETATM   10  O           1     -24.827  -3.152 -11.286  0.00  0.00    -0.271 OA
HETATM   11  N           1     -22.997  -3.630 -10.097  0.00  0.00    -0.349 N 
HETATM   12  H           1     -21.987  -3.674 -10.059  0.00  0.00     0.163 HD
BRANCH  11  13
HETATM   13  C           1     -23.785  -4.016  -8.942  0.00  0.00     0.235 C 
BRANCH  13  14
HETATM   14  C           1     -22.881  -4.168  -7.745  0.00  0.00     0.191 C 
HETATM   15  O           1     -21.697  -3.773  -7.801  0.00  0.00    -0.647 OA
HETATM   16  O           1     -23.316  -4.690  -6.695  0.00  0.00    -0.647 OA
ENDBRANCH  13  14
ENDBRANCH  11  13
ENDBRANCH   1   9
TORSDOF 6
ENDMDL
MODEL 6
REMARK VINA RESULT:      -5.3      2.774      4.102
REMARK  6 active torsions:
REMARK  status: ('A' for Active; 'I' for Inactive)
REMARK    1  A    between atoms: N_2  and  C_5 
REMARK    2  A    between atoms: O_3  and  C_4 
REMARK    3  A    between atoms: C_4  and  C_5 
REMARK    4  A    between atoms: C_5  and  C_6 
REMARK       I    between atoms: C_6  and  N_7 
REMARK    5  A    between atoms: N_7  and  C_9 
REMARK    6  A    between atoms: C_9  and  C_15 
ROOT
HETATM    1  C           1     -28.999  -6.772 -17.240  0.00  0.00     0.297 C 
ENDROOT
BRANCH   1   2
HETATM    2  N           1     -29.456  -8.195 -17.376  0.00  0.00    -0.064 N 
HETATM    3  H           1     -29.496  -8.640 -16.431  0.00  0.00     0.275 HD
HETATM    4  H           1     -30.406  -8.215 -17.810  0.00  0.00     0.275 HD
HETATM    5  H           1     -28.785  -8.720 -17.979  0.00  0.00     0.275 HD
ENDBRANCH   1   2
BRANCH   1   6
HETATM    6  C           1     -28.032  -6.660 -16.069  0.00  0.00     0.206 C 
BRANCH   6   7
HETATM    7  O           1     -26.894  -5.944 -16.469  0.00  0.00    -0.398 OA
HETATM    8  H           1     -27.064  -5.036 -16.289  0.00  0.00     0.209 HD
ENDBRANCH   6   7
ENDBRANCH   1   6
BRANCH   1   9
HETATM    9  C           1     -28.305  -6.345 -18.510  0.00  0.00     0.250 C 
HETATM   10  O           1     -28.499  -5.242 -18.963  0.00  0.00    -0.271 OA
HETATM   11  N           1     -27.454  -7.207 -19.148  0.00  0.00    -0.349 N 
HETATM   12  H           1     -27.292  -8.131 -18.768  0.00  0.00     0.163 HD
BRANCH  11  13
HETATM   13  C           1     -26.786  -6.797 -20.369  0.00  0.00     0.235 C 
BRANCH  13  14
HETATM   14  C           1     -26.463  -8.013 -21.199  0.00  0.00     0.191 C 
HETATM   15  O           1     -25.293  -8.207 -21.595  0.00  0.00    -0.647 OA
HETATM   16  O           1     -27.365  -8.828 -21.492  0.00  0.00    -0.647 OA
ENDBRANCH  13  14
ENDBRANCH  11  13
ENDBRANCH   1   9
TORSDOF 6
ENDMDL
MODEL 7
REMARK VINA RESULT:      -5.2      1.951      2.111
REMARK  6 active torsions:
REMARK  status: ('A' for Active; 'I' for Inactive)
REMARK    1  A    between atoms: N_2  and  C_5 
REMARK    2  A    between atoms: O_3  and  C_4 
REMARK    3  A    between atoms: C_4  and  C_5 
REMARK    4  A    between atoms: C_5  and  C_6 
REMARK       I    between atoms: C_6  and  N_7 
REMARK    5  A    between atoms: N_7  and  C_9 
REMARK    6  A    between atoms: C_9  and  C_15 
ROOT
HETATM    1  C           1     -29.357  -7.063 -17.902  0.00  0.00     0.297 C 
ENDROOT
BRANCH   1   2
HETATM    2  N           1     -29.401  -8.497 -17.463  0.00  0.00    -0.064 N 
HETATM    3  H           1     -28.586  -8.696 -16.840  0.00  0.00     0.275 HD
HETATM    4  H           1     -30.289  -8.673 -16.941  0.00  0.00     0.275 HD
HETATM    5  H           1     -29.359  -9.119 -18.301  0.00  0.00     0.275 HD
ENDBRANCH   1   2
BRANCH   1   6
HETATM    6  C           1     -30.469  -6.287 -17.209  0.00  0.00     0.206 C 
BRANCH   6   7
HETATM    7  O           1     -29.920  -5.482 -16.200  0.00  0.00    -0.398 OA
HETATM    8  H           1     -30.494  -4.743 -16.097  0.00  0.00     0.209 HD
ENDBRANCH   6   7
ENDBRANCH   1   6
BRANCH   1   9
HETATM    9  C           1     -28.021  -6.466 -17.533  0.00  0.00     0.250 C 
HETATM   10  O           1     -27.570  -5.549 -18.177  0.00  0.00    -0.271 OA
HETATM   11  N           1     -27.320  -6.964 -16.467  0.00  0.00    -0.349 N 
HETATM   12  H           1     -27.698  -7.732 -15.928  0.00  0.00     0.163 HD
BRANCH  11  13
HETATM   13  C           1     -26.036  -6.390 -16.112  0.00  0.00     0.235 C 
BRANCH  13  14
HETATM   14  C           1     -24.931  -7.198 -16.745  0.00  0.00     0.191 C 
HETATM   15  O           1     -24.422  -8.156 -16.123  0.00  0.00    -0.647 OA
HETATM   16  O           1     -24.524  -6.910 -17.891  0.00  0.00    -0.647 OA
ENDBRANCH  13  14
ENDBRANCH  11  13
ENDBRANCH   1   9
TORSDOF 6
ENDMDL
MODEL 8
REMARK VINA RESULT:      -5.0      3.170      4.263
REMARK  6 active torsions:
REMARK  status: ('A' for Active; 'I' for Inactive)
REMARK    1  A    between atoms: N_2  and  C_5 
REMARK    2  A    between atoms: O_3  and  C_4 
REMARK    3  A    between atoms: C_4  and  C_5 
REMARK    4  A    between atoms: C_5  and  C_6 
REMARK       I    between atoms: C_6  and  N_7 
REMARK    5  A    between atoms: N_7  and  C_9 
REMARK    6  A    between atoms: C_9  and  C_15 
ROOT
HETATM    1  C           1     -24.960  -7.019 -20.192  0.00  0.00     0.297 C 
ENDROOT
BRANCH   1   2
HETATM    2  N           1     -23.830  -7.632 -19.420  0.00  0.00    -0.064 N 
HETATM    3  H           1     -24.032  -7.569 -18.397  0.00  0.00     0.275 HD
HETATM    4  H           1     -23.727  -8.636 -19.694  0.00  0.00     0.275 HD
HETATM    5  H           1     -22.945  -7.120 -19.632  0.00  0.00     0.275 HD
ENDBRANCH   1   2
BRANCH   1   6
HETATM    6  C           1     -25.457  -8.010 -21.237  0.00  0.00     0.206 C 
BRANCH   6   7
HETATM    7  O           1     -24.361  -8.645 -21.838  0.00  0.00    -0.398 OA
HETATM    8  H           1     -24.700  -9.384 -22.314  0.00  0.00     0.209 HD
ENDBRANCH   6   7
ENDBRANCH   1   6
BRANCH   1   9
HETATM    9  C           1     -26.086  -6.676 -19.248  0.00  0.00     0.250 C 
HETATM   10  O           1     -27.186  -6.430 -19.683  0.00  0.00    -0.271 OA
HETATM   11  N           1     -25.861  -6.645 -17.897  0.00  0.00    -0.349 N 
HETATM   12  H           1     -24.940  -6.852 -17.533  0.00  0.00     0.163 HD
BRANCH  11  13
HETATM   13  C           1     -26.943  -6.316 -16.989  0.00  0.00     0.235 C 
BRANCH  13  14
HETATM   14  C           1     -26.784  -7.102 -15.711  0.00  0.00     0.191 C 
HETATM   15  O           1     -25.642  -7.397 -15.297  0.00  0.00    -0.647 OA
HETATM   16  O           1     -27.795  -7.457 -15.066  0.00  0.00    -0.647 OA
ENDBRANCH  13  14
ENDBRANCH  11  13
ENDBRANCH   1   9
TORSDOF 6
ENDMDL
MODEL 9
REMARK VINA RESULT:      -4.9      1.442      2.097
REMARK  6 active torsions:
REMARK  status: ('A' for Active; 'I' for Inactive)
REMARK    1  A    between atoms: N_2  and  C_5 
REMARK    2  A    between atoms: O_3  and  C_4 
REMARK    3  A    between atoms: C_4  and  C_5 
REMARK    4  A    between atoms: C_5  and  C_6 
REMARK       I    between atoms: C_6  and  N_7 
REMARK    5  A    between atoms: N_7  and  C_9 
REMARK    6  A    between atoms: C_9  and  C_15 
ROOT
HETATM    1  C           1     -30.686  -6.080 -17.332  0.00  0.00     0.297 C 
ENDROOT
BRANCH   1   2
HETATM    2  N           1     -31.253  -5.282 -16.195  0.00  0.00    -0.064 N 
HETATM    3  H           1     -31.881  -5.890 -15.622  0.00  0.00     0.275 HD
HETATM    4  H           1     -30.473  -4.926 -15.598  0.00  0.00     0.275 HD
HETATM    5  H           1     -31.799  -4.476 -16.573  0.00  0.00     0.275 HD
ENDBRANCH   1   2
BRANCH   1   6
HETATM    6  C           1     -30.126  -5.133 -18.386  0.00  0.00     0.206 C 
BRANCH   6   7
HETATM    7  O           1     -28.772  -5.426 -18.606  0.00  0.00    -0.398 OA
HETATM    8  H           1     -28.360  -4.625 -18.879  0.00  0.00     0.209 HD
ENDBRANCH   6   7
ENDBRANCH   1   6
BRANCH   1   9
HETATM    9  C           1     -29.581  -6.971 -16.818  0.00  0.00     0.250 C 
HETATM   10  O           1     -29.498  -8.113 -17.203  0.00  0.00    -0.271 OA
HETATM   11  N           1     -28.673  -6.484 -15.916  0.00  0.00    -0.349 N 
HETATM   12  H           1     -28.743  -5.527 -15.595  0.00  0.00     0.163 HD
BRANCH  11  13
HETATM   13  C           1     -27.611  -7.340 -15.422  0.00  0.00     0.235 C 
BRANCH  13  14
HETATM   14  C           1     -26.278  -6.796 -15.869  0.00  0.00     0.191 C 
HETATM   15  O           1     -26.230  -5.842 -16.674  0.00  0.00    -0.647 OA
HETATM   16  O           1     -25.219  -7.300 -15.433  0.00  0.00    -0.647 OA
ENDBRANCH  13  14
ENDBRANCH  11  13
ENDBRANCH   1   9
TORSDOF 6
ENDMDL
