MODEL 1
REMARK VINA RESULT:      -6.5      0.000      0.000
REMARK  11 active torsions:
REMARK  status: ('A' for Active; 'I' for Inactive)
REMARK    1  A    between atoms: N_3  and  C_21 
REMARK    2  A    between atoms: C_11  and  C_27 
REMARK    3  A    between atoms: C_11  and  C_12 
REMARK    4  A    between atoms: C_12  and  C_13 
REMARK    5  A    between atoms: C_13  and  C_14 
REMARK    6  A    between atoms: C_14  and  C_15 
REMARK    7  A    between atoms: C_14  and  N_23 
REMARK       I    between atoms: N_18  and  C_19 
REMARK    8  A    between atoms: C_19  and  C_20 
REMARK    9  A    between atoms: C_20  and  C_21 
REMARK   10  A    between atoms: C_21  and  C_22 
REMARK       I    between atoms: C_22  and  N_23 
REMARK   11  A    between atoms: N_25  and  C_27 
ROOT
HETATM    1  O           1     -37.293  -0.872 -12.964  0.00  0.00    -0.271 OA
HETATM    2  H           1     -34.519  -0.103 -11.717  0.00  0.00     0.163 HD
HETATM    3  C           1     -36.214  -0.336 -12.883  0.00  0.00     0.249 C 
HETATM    4  N           1     -35.423  -0.552 -11.786  0.00  0.00    -0.345 N 
ENDROOT
BRANCH   4   5
HETATM    5  C           1     -35.882  -1.425 -10.723  0.00  0.00     0.185 C 
BRANCH   5   6
HETATM    6  C           1     -34.698  -2.196 -10.154  0.00  0.00     0.036 C 
BRANCH   6   7
HETATM    7  C           1     -33.545  -2.164 -11.149  0.00  0.00     0.004 C 
BRANCH   7   8
HETATM    8  C           1     -33.086  -3.586 -11.441  0.00  0.00     0.027 C 
BRANCH   8   9
HETATM    9  C           1     -34.116  -4.282 -12.323  0.00  0.00     0.229 C 
BRANCH   9  10
HETATM   10  N           1     -33.809  -4.005 -13.765  0.00  0.00    -0.079 N 
HETATM   11  H           1     -34.365  -4.651 -14.370  0.00  0.00     0.274 HD
HETATM   12  H           1     -32.789  -4.155 -13.938  0.00  0.00     0.274 HD
HETATM   13  H           1     -34.058  -3.015 -13.990  0.00  0.00     0.274 HD
ENDBRANCH   9  10
ENDBRANCH   8   9
ENDBRANCH   7   8
ENDBRANCH   6   7
ENDBRANCH   5   6
BRANCH   5  14
HETATM   14  C           1     -36.515  -0.597  -9.631  0.00  0.00     0.196 C 
HETATM   15  O           1     -37.744  -0.374  -9.650  0.00  0.00    -0.646 OA
HETATM   16  O           1     -35.810  -0.137  -8.708  0.00  0.00    -0.646 OA
ENDBRANCH   5  14
ENDBRANCH   4   5
BRANCH   3  17
HETATM   17  C           1     -35.737   0.572 -13.989  0.00  0.00     0.283 C 
BRANCH  17  18
HETATM   18  N           1     -34.419   1.177 -13.606  0.00  0.00    -0.066 N 
HETATM   19  H           1     -34.582   2.032 -13.027  0.00  0.00     0.275 HD
HETATM   20  H           1     -33.865   0.483 -13.054  0.00  0.00     0.275 HD
HETATM   21  H           1     -33.891   1.437 -14.470  0.00  0.00     0.275 HD
ENDBRANCH  17  18
BRANCH  17  22
HETATM   22  C           1     -35.571  -0.231 -15.272  0.00  0.00     0.145 C 
BRANCH  22  23
HETATM   23  C           1     -36.811  -0.085 -16.121  0.00  0.00     0.217 C 
HETATM   24  O           1     -36.979  -0.809 -17.073  0.00  0.00    -0.274 OA
HETATM   25  N           1     -37.745   0.866 -15.811  0.00  0.00    -0.370 N 
HETATM   26  H           1     -37.604   1.472 -15.013  0.00  0.00     0.159 HD
HETATM   27  H           1     -38.576   0.963 -16.381  0.00  0.00     0.159 HD
ENDBRANCH  22  23
ENDBRANCH  17  22
ENDBRANCH   3  17
TORSDOF 11
ENDMDL
MODEL 2
REMARK VINA RESULT:      -6.3     12.617     15.424
REMARK  11 active torsions:
REMARK  status: ('A' for Active; 'I' for Inactive)
REMARK    1  A    between atoms: N_3  and  C_21 
REMARK    2  A    between atoms: C_11  and  C_27 
REMARK    3  A    between atoms: C_11  and  C_12 
REMARK    4  A    between atoms: C_12  and  C_13 
REMARK    5  A    between atoms: C_13  and  C_14 
REMARK    6  A    between atoms: C_14  and  C_15 
REMARK    7  A    between atoms: C_14  and  N_23 
REMARK       I    between atoms: N_18  and  C_19 
REMARK    8  A    between atoms: C_19  and  C_20 
REMARK    9  A    between atoms: C_20  and  C_21 
REMARK   10  A    between atoms: C_21  and  C_22 
REMARK       I    between atoms: C_22  and  N_23 
REMARK   11  A    between atoms: N_25  and  C_27 
ROOT
HETATM    1  O           1     -21.386  -3.385  -7.427  0.00  0.00    -0.271 OA
HETATM    2  H           1     -22.428  -5.759  -9.194  0.00  0.00     0.163 HD
HETATM    3  C           1     -21.576  -4.530  -7.763  0.00  0.00     0.249 C 
HETATM    4  N           1     -22.268  -4.800  -8.913  0.00  0.00    -0.345 N 
ENDROOT
BRANCH   4   5
HETATM    5  C           1     -22.772  -3.712  -9.728  0.00  0.00     0.185 C 
BRANCH   5   6
HETATM    6  C           1     -22.231  -3.847 -11.145  0.00  0.00     0.036 C 
BRANCH   6   7
HETATM    7  C           1     -22.735  -2.687 -11.994  0.00  0.00     0.004 C 
BRANCH   7   8
HETATM    8  C           1     -23.460  -3.231 -13.217  0.00  0.00     0.027 C 
BRANCH   8   9
HETATM    9  C           1     -23.229  -2.301 -14.401  0.00  0.00     0.229 C 
BRANCH   9  10
HETATM   10  N           1     -24.107  -1.093 -14.268  0.00  0.00    -0.079 N 
HETATM   11  H           1     -24.199  -0.624 -15.198  0.00  0.00     0.274 HD
HETATM   12  H           1     -23.683  -0.428 -13.582  0.00  0.00     0.274 HD
HETATM   13  H           1     -25.053  -1.384 -13.931  0.00  0.00     0.274 HD
ENDBRANCH   9  10
ENDBRANCH   8   9
ENDBRANCH   7   8
ENDBRANCH   6   7
ENDBRANCH   5   6
BRANCH   5  14
HETATM   14  C           1     -24.280  -3.764  -9.758  0.00  0.00     0.196 C 
HETATM   15  O           1     -24.863  -4.842 -10.006  0.00  0.00    -0.646 OA
HETATM   16  O           1     -24.946  -2.731  -9.534  0.00  0.00    -0.646 OA
ENDBRANCH   5  14
ENDBRANCH   4   5
BRANCH   3  17
HETATM   17  C           1     -21.052  -5.662  -6.915  0.00  0.00     0.283 C 
BRANCH  17  18
HETATM   18  N           1     -19.747  -6.144  -7.475  0.00  0.00    -0.066 N 
HETATM   19  H           1     -19.546  -7.105  -7.117  0.00  0.00     0.275 HD
HETATM   20  H           1     -19.804  -6.166  -8.519  0.00  0.00     0.275 HD
HETATM   21  H           1     -18.981  -5.496  -7.182  0.00  0.00     0.275 HD
ENDBRANCH  17  18
BRANCH  17  22
HETATM   22  C           1     -20.841  -5.174  -5.488  0.00  0.00     0.145 C 
BRANCH  22  23
HETATM   23  C           1     -21.120  -6.302  -4.524  0.00  0.00     0.217 C 
HETATM   24  O           1     -20.668  -7.403  -4.736  0.00  0.00    -0.274 OA
HETATM   25  N           1     -21.883  -6.079  -3.411  0.00  0.00    -0.370 N 
HETATM   26  H           1     -22.261  -5.157  -3.233  0.00  0.00     0.159 HD
HETATM   27  H           1     -22.069  -6.835  -2.764  0.00  0.00     0.159 HD
ENDBRANCH  22  23
ENDBRANCH  17  22
ENDBRANCH   3  17
TORSDOF 11
ENDMDL
MODEL 3
REMARK VINA RESULT:      -6.1      8.701     10.450
REMARK  11 active torsions:
REMARK  status: ('A' for Active; 'I' for Inactive)
REMARK    1  A    between atoms: N_3  and  C_21 
REMARK    2  A    between atoms: C_11  and  C_27 
REMARK    3  A    between atoms: C_11  and  C_12 
REMARK    4  A    between atoms: C_12  and  C_13 
REMARK    5  A    between atoms: C_13  and  C_14 
REMARK    6  A    between atoms: C_14  and  C_15 
REMARK    7  A    between atoms: C_14  and  N_23 
REMARK       I    between atoms: N_18  and  C_19 
REMARK    8  A    between atoms: C_19  and  C_20 
REMARK    9  A    between atoms: C_20  and  C_21 
REMARK   10  A    between atoms: C_21  and  C_22 
REMARK       I    between atoms: C_22  and  N_23 
REMARK   11  A    between atoms: N_25  and  C_27 
ROOT
HETATM    1  O           1     -30.302  -7.936 -17.951  0.00  0.00    -0.271 OA
HETATM    2  H           1     -29.231  -5.149 -16.987  0.00  0.00     0.163 HD
HETATM    3  C           1     -30.344  -6.774 -17.624  0.00  0.00     0.249 C 
HETATM    4  N           1     -29.196  -6.122 -17.261  0.00  0.00    -0.345 N 
ENDROOT
BRANCH   4   5
HETATM    5  C           1     -27.929  -6.828 -17.270  0.00  0.00     0.185 C 
BRANCH   5   6
HETATM    6  C           1     -26.956  -6.111 -18.197  0.00  0.00     0.036 C 
BRANCH   6   7
HETATM    7  C           1     -27.228  -6.527 -19.637  0.00  0.00     0.004 C 
BRANCH   7   8
HETATM    8  C           1     -25.906  -6.756 -20.358  0.00  0.00     0.027 C 
BRANCH   8   9
HETATM    9  C           1     -25.967  -8.070 -21.126  0.00  0.00     0.229 C 
BRANCH   9  10
HETATM   10  N           1     -27.354  -8.635 -21.043  0.00  0.00    -0.079 N 
HETATM   11  H           1     -27.487  -9.098 -20.115  0.00  0.00     0.274 HD
HETATM   12  H           1     -27.490  -9.336 -21.805  0.00  0.00     0.274 HD
HETATM   13  H           1     -28.051  -7.864 -21.150  0.00  0.00     0.274 HD
ENDBRANCH   9  10
ENDBRANCH   8   9
ENDBRANCH   7   8
ENDBRANCH   6   7
ENDBRANCH   5   6
BRANCH   5  14
HETATM   14  C           1     -27.361  -6.858 -15.872  0.00  0.00     0.196 C 
HETATM   15  O           1     -27.904  -7.562 -14.993  0.00  0.00    -0.646 OA
HETATM   16  O           1     -26.348  -6.181 -15.593  0.00  0.00    -0.646 OA
ENDBRANCH   5  14
ENDBRANCH   4   5
BRANCH   3  17
HETATM   17  C           1     -31.662  -6.040 -17.615  0.00  0.00     0.283 C 
BRANCH  17  18
HETATM   18  N           1     -32.763  -6.994 -17.260  0.00  0.00    -0.066 N 
HETATM   19  H           1     -33.638  -6.459 -17.058  0.00  0.00     0.275 HD
HETATM   20  H           1     -32.931  -7.646 -18.060  0.00  0.00     0.275 HD
HETATM   21  H           1     -32.488  -7.544 -16.415  0.00  0.00     0.275 HD
ENDBRANCH  17  18
BRANCH  17  22
HETATM   22  C           1     -31.613  -4.918 -16.587  0.00  0.00     0.145 C 
BRANCH  22  23
HETATM   23  C           1     -32.026  -3.620 -17.238  0.00  0.00     0.217 C 
HETATM   24  O           1     -31.185  -2.858 -17.653  0.00  0.00    -0.274 OA
HETATM   25  N           1     -33.352  -3.306 -17.359  0.00  0.00    -0.370 N 
HETATM   26  H           1     -34.056  -3.944 -17.011  0.00  0.00     0.159 HD
HETATM   27  H           1     -33.628  -2.436 -17.796  0.00  0.00     0.159 HD
ENDBRANCH  22  23
ENDBRANCH  17  22
ENDBRANCH   3  17
TORSDOF 11
ENDMDL
MODEL 4
REMARK VINA RESULT:      -6.0     13.163     15.229
REMARK  11 active torsions:
REMARK  status: ('A' for Active; 'I' for Inactive)
REMARK    1  A    between atoms: N_3  and  C_21 
REMARK    2  A    between atoms: C_11  and  C_27 
REMARK    3  A    between atoms: C_11  and  C_12 
REMARK    4  A    between atoms: C_12  and  C_13 
REMARK    5  A    between atoms: C_13  and  C_14 
REMARK    6  A    between atoms: C_14  and  C_15 
REMARK    7  A    between atoms: C_14  and  N_23 
REMARK       I    between atoms: N_18  and  C_19 
REMARK    8  A    between atoms: C_19  and  C_20 
REMARK    9  A    between atoms: C_20  and  C_21 
REMARK   10  A    between atoms: C_21  and  C_22 
REMARK       I    between atoms: C_22  and  N_23 
REMARK   11  A    between atoms: N_25  and  C_27 
ROOT
HETATM    1  O           1     -23.315  -3.336  -8.530  0.00  0.00    -0.271 OA
HETATM    2  H           1     -21.771  -5.915  -9.428  0.00  0.00     0.163 HD
HETATM    3  C           1     -23.038  -4.293  -9.214  0.00  0.00     0.249 C 
HETATM    4  N           1     -22.003  -5.115  -8.855  0.00  0.00    -0.345 N 
ENDROOT
BRANCH   4   5
HETATM    5  C           1     -21.241  -4.837  -7.652  0.00  0.00     0.185 C 
BRANCH   5   6
HETATM    6  C           1     -21.118  -6.110  -6.826  0.00  0.00     0.036 C 
BRANCH   6   7
HETATM    7  C           1     -21.991  -5.995  -5.583  0.00  0.00     0.004 C 
BRANCH   7   8
HETATM    8  C           1     -21.107  -5.909  -4.346  0.00  0.00     0.027 C 
BRANCH   8   9
HETATM    9  C           1     -21.703  -6.763  -3.234  0.00  0.00     0.229 C 
BRANCH   9  10
HETATM   10  N           1     -22.325  -5.873  -2.199  0.00  0.00    -0.079 N 
HETATM   11  H           1     -21.956  -4.901  -2.308  0.00  0.00     0.274 HD
HETATM   12  H           1     -22.089  -6.230  -1.246  0.00  0.00     0.274 HD
HETATM   13  H           1     -23.362  -5.867  -2.322  0.00  0.00     0.274 HD
ENDBRANCH   9  10
ENDBRANCH   8   9
ENDBRANCH   7   8
ENDBRANCH   6   7
ENDBRANCH   5   6
BRANCH   5  14
HETATM   14  C           1     -19.865  -4.348  -8.032  0.00  0.00     0.196 C 
HETATM   15  O           1     -18.904  -4.520  -7.252  0.00  0.00    -0.646 OA
HETATM   16  O           1     -19.686  -3.772  -9.127  0.00  0.00    -0.646 OA
ENDBRANCH   5  14
ENDBRANCH   4   5
BRANCH   3  17
HETATM   17  C           1     -23.831  -4.581 -10.465  0.00  0.00     0.283 C 
BRANCH  17  18
HETATM   18  N           1     -24.863  -3.511 -10.661  0.00  0.00    -0.066 N 
HETATM   19  H           1     -25.803  -3.879 -10.394  0.00  0.00     0.275 HD
HETATM   20  H           1     -24.628  -2.688 -10.060  0.00  0.00     0.275 HD
HETATM   21  H           1     -24.874  -3.218 -11.664  0.00  0.00     0.275 HD
ENDBRANCH  17  18
BRANCH  17  22
HETATM   22  C           1     -22.895  -4.609 -11.665  0.00  0.00     0.145 C 
BRANCH  22  23
HETATM   23  C           1     -22.358  -3.221 -11.918  0.00  0.00     0.217 C 
HETATM   24  O           1     -23.047  -2.399 -12.475  0.00  0.00    -0.274 OA
HETATM   25  N           1     -21.093  -2.892 -11.515  0.00  0.00    -0.370 N 
HETATM   26  H           1     -20.516  -3.580 -11.047  0.00  0.00     0.159 HD
HETATM   27  H           1     -20.733  -1.961 -11.683  0.00  0.00     0.159 HD
ENDBRANCH  22  23
ENDBRANCH  17  22
ENDBRANCH   3  17
TORSDOF 11
ENDMDL
MODEL 5
REMARK VINA RESULT:      -5.8     14.794     16.900
REMARK  11 active torsions:
REMARK  status: ('A' for Active; 'I' for Inactive)
REMARK    1  A    between atoms: N_3  and  C_21 
REMARK    2  A    between atoms: C_11  and  C_27 
REMARK    3  A    between atoms: C_11  and  C_12 
REMARK    4  A    between atoms: C_12  and  C_13 
REMARK    5  A    between atoms: C_13  and  C_14 
REMARK    6  A    between atoms: C_14  and  C_15 
REMARK    7  A    between atoms: C_14  and  N_23 
REMARK       I    between atoms: N_18  and  C_19 
REMARK    8  A    between atoms: C_19  and  C_20 
REMARK    9  A    between atoms: C_20  and  C_21 
REMARK   10  A    between atoms: C_21  and  C_22 
REMARK       I    between atoms: C_22  and  N_23 
REMARK   11  A    between atoms: N_25  and  C_27 
ROOT
HETATM    1  O           1     -20.388  -4.378  -6.490  0.00  0.00    -0.271 OA
HETATM    2  H           1     -22.171  -6.928  -6.887  0.00  0.00     0.163 HD
HETATM    3  C           1     -21.164  -5.126  -7.035  0.00  0.00     0.249 C 
HETATM    4  N           1     -21.522  -6.301  -6.430  0.00  0.00    -0.345 N 
ENDROOT
BRANCH   4   5
HETATM    5  C           1     -20.970  -6.647  -5.135  0.00  0.00     0.185 C 
BRANCH   5   6
HETATM    6  C           1     -22.044  -6.485  -4.067  0.00  0.00     0.036 C 
BRANCH   6   7
HETATM    7  C           1     -21.396  -6.061  -2.756  0.00  0.00     0.004 C 
BRANCH   7   8
HETATM    8  C           1     -22.260  -6.521  -1.589  0.00  0.00     0.027 C 
BRANCH   8   9
HETATM    9  C           1     -21.839  -7.922  -1.166  0.00  0.00     0.229 C 
BRANCH   9  10
HETATM   10  N           1     -20.389  -8.129  -1.491  0.00  0.00    -0.079 N 
HETATM   11  H           1     -20.289  -8.945  -2.136  0.00  0.00     0.274 HD
HETATM   12  H           1     -19.858  -8.314  -0.610  0.00  0.00     0.274 HD
HETATM   13  H           1     -20.010  -7.271  -1.952  0.00  0.00     0.274 HD
ENDBRANCH   9  10
ENDBRANCH   8   9
ENDBRANCH   7   8
ENDBRANCH   6   7
ENDBRANCH   5   6
BRANCH   5  14
HETATM   14  C           1     -20.495  -8.079  -5.158  0.00  0.00     0.196 C 
HETATM   15  O           1     -21.069  -8.917  -5.886  0.00  0.00    -0.646 OA
HETATM   16  O           1     -19.526  -8.428  -4.450  0.00  0.00    -0.646 OA
ENDBRANCH   5  14
ENDBRANCH   4   5
BRANCH   3  17
HETATM   17  C           1     -21.738  -4.767  -8.383  0.00  0.00     0.283 C 
BRANCH  17  18
HETATM   18  N           1     -22.894  -3.828  -8.200  0.00  0.00    -0.066 N 
HETATM   19  H           1     -23.569  -4.235  -7.515  0.00  0.00     0.275 HD
HETATM   20  H           1     -22.543  -2.911  -7.841  0.00  0.00     0.275 HD
HETATM   21  H           1     -23.373  -3.683  -9.118  0.00  0.00     0.275 HD
ENDBRANCH  17  18
BRANCH  17  22
HETATM   22  C           1     -20.667  -4.092  -9.229  0.00  0.00     0.145 C 
BRANCH  22  23
HETATM   23  C           1     -21.086  -4.109 -10.679  0.00  0.00     0.217 C 
HETATM   24  O           1     -22.148  -4.590 -10.995  0.00  0.00    -0.274 OA
HETATM   25  N           1     -20.264  -3.579 -11.636  0.00  0.00    -0.370 N 
HETATM   26  H           1     -19.374  -3.175 -11.371  0.00  0.00     0.159 HD
HETATM   27  H           1     -20.546  -3.589 -12.608  0.00  0.00     0.159 HD
ENDBRANCH  22  23
ENDBRANCH  17  22
ENDBRANCH   3  17
TORSDOF 11
ENDMDL
MODEL 6
REMARK VINA RESULT:      -5.7     12.858     14.589
REMARK  11 active torsions:
REMARK  status: ('A' for Active; 'I' for Inactive)
REMARK    1  A    between atoms: N_3  and  C_21 
REMARK    2  A    between atoms: C_11  and  C_27 
REMARK    3  A    between atoms: C_11  and  C_12 
REMARK    4  A    between atoms: C_12  and  C_13 
REMARK    5  A    between atoms: C_13  and  C_14 
REMARK    6  A    between atoms: C_14  and  C_15 
REMARK    7  A    between atoms: C_14  and  N_23 
REMARK       I    between atoms: N_18  and  C_19 
REMARK    8  A    between atoms: C_19  and  C_20 
REMARK    9  A    between atoms: C_20  and  C_21 
REMARK   10  A    between atoms: C_21  and  C_22 
REMARK       I    between atoms: C_22  and  N_23 
REMARK   11  A    between atoms: N_25  and  C_27 
ROOT
HETATM    1  O           1     -21.502  -2.258 -11.565  0.00  0.00    -0.271 OA
HETATM    2  H           1     -22.714  -4.902 -10.390  0.00  0.00     0.163 HD
HETATM    3  C           1     -22.148  -3.278 -11.542  0.00  0.00     0.249 C 
HETATM    4  N           1     -22.174  -4.047 -10.410  0.00  0.00    -0.345 N 
ENDROOT
BRANCH   4   5
HETATM    5  C           1     -21.426  -3.635  -9.238  0.00  0.00     0.185 C 
BRANCH   5   6
HETATM    6  C           1     -22.200  -4.016  -7.983  0.00  0.00     0.036 C 
BRANCH   6   7
HETATM    7  C           1     -21.866  -5.451  -7.596  0.00  0.00     0.004 C 
BRANCH   7   8
HETATM    8  C           1     -21.854  -5.578  -6.078  0.00  0.00     0.027 C 
BRANCH   8   9
HETATM    9  C           1     -20.494  -6.091  -5.622  0.00  0.00     0.229 C 
BRANCH   9  10
HETATM   10  N           1     -19.813  -6.788  -6.762  0.00  0.00    -0.079 N 
HETATM   11  H           1     -20.350  -6.622  -7.643  0.00  0.00     0.274 HD
HETATM   12  H           1     -19.772  -7.815  -6.568  0.00  0.00     0.274 HD
HETATM   13  H           1     -18.843  -6.416  -6.870  0.00  0.00     0.274 HD
ENDBRANCH   9  10
ENDBRANCH   8   9
ENDBRANCH   7   8
ENDBRANCH   6   7
ENDBRANCH   5   6
BRANCH   5  14
HETATM   14  C           1     -20.084  -4.326  -9.230  0.00  0.00     0.196 C 
HETATM   15  O           1     -19.287  -4.132  -8.287  0.00  0.00    -0.646 OA
HETATM   16  O           1     -19.770  -5.092 -10.166  0.00  0.00    -0.646 OA
ENDBRANCH   5  14
ENDBRANCH   4   5
BRANCH   3  17
HETATM   17  C           1     -22.927  -3.706 -12.762  0.00  0.00     0.283 C 
BRANCH  17  18
HETATM   18  N           1     -23.688  -4.961 -12.454  0.00  0.00    -0.066 N 
HETATM   19  H           1     -23.392  -5.720 -13.108  0.00  0.00     0.275 HD
HETATM   20  H           1     -23.492  -5.254 -11.469  0.00  0.00     0.275 HD
HETATM   21  H           1     -24.712  -4.783 -12.566  0.00  0.00     0.275 HD
ENDBRANCH  17  18
BRANCH  17  22
HETATM   22  C           1     -23.902  -2.605 -13.156  0.00  0.00     0.145 C 
BRANCH  22  23
HETATM   23  C           1     -23.505  -2.037 -14.496  0.00  0.00     0.217 C 
HETATM   24  O           1     -22.728  -2.638 -15.201  0.00  0.00    -0.274 OA
HETATM   25  N           1     -24.025  -0.843 -14.916  0.00  0.00    -0.370 N 
HETATM   26  H           1     -24.676  -0.340 -14.326  0.00  0.00     0.159 HD
HETATM   27  H           1     -23.759  -0.462 -15.815  0.00  0.00     0.159 HD
ENDBRANCH  22  23
ENDBRANCH  17  22
ENDBRANCH   3  17
TORSDOF 11
ENDMDL
MODEL 7
REMARK VINA RESULT:      -5.7     13.191     15.222
REMARK  11 active torsions:
REMARK  status: ('A' for Active; 'I' for Inactive)
REMARK    1  A    between atoms: N_3  and  C_21 
REMARK    2  A    between atoms: C_11  and  C_27 
REMARK    3  A    between atoms: C_11  and  C_12 
REMARK    4  A    between atoms: C_12  and  C_13 
REMARK    5  A    between atoms: C_13  and  C_14 
REMARK    6  A    between atoms: C_14  and  C_15 
REMARK    7  A    between atoms: C_14  and  N_23 
REMARK       I    between atoms: N_18  and  C_19 
REMARK    8  A    between atoms: C_19  and  C_20 
REMARK    9  A    between atoms: C_20  and  C_21 
REMARK   10  A    between atoms: C_21  and  C_22 
REMARK       I    between atoms: C_22  and  N_23 
REMARK   11  A    between atoms: N_25  and  C_27 
ROOT
HETATM    1  O           1     -22.282  -3.230  -8.301  0.00  0.00    -0.271 OA
HETATM    2  H           1     -22.409  -6.363  -8.238  0.00  0.00     0.163 HD
HETATM    3  C           1     -22.555  -4.346  -8.675  0.00  0.00     0.249 C 
HETATM    4  N           1     -22.182  -5.429  -7.925  0.00  0.00    -0.345 N 
ENDROOT
BRANCH   4   5
HETATM    5  C           1     -21.461  -5.236  -6.681  0.00  0.00     0.185 C 
BRANCH   5   6
HETATM    6  C           1     -22.044  -6.149  -5.611  0.00  0.00     0.036 C 
BRANCH   6   7
HETATM    7  C           1     -21.265  -5.973  -4.314  0.00  0.00     0.004 C 
BRANCH   7   8
HETATM    8  C           1     -20.860  -7.338  -3.775  0.00  0.00     0.027 C 
BRANCH   8   9
HETATM    9  C           1     -21.482  -8.430  -4.635  0.00  0.00     0.229 C 
BRANCH   9  10
HETATM   10  N           1     -20.398  -9.183  -5.348  0.00  0.00    -0.079 N 
HETATM   11  H           1     -20.523 -10.208  -5.190  0.00  0.00     0.274 HD
HETATM   12  H           1     -19.466  -8.884  -4.980  0.00  0.00     0.274 HD
HETATM   13  H           1     -20.448  -8.981  -6.372  0.00  0.00     0.274 HD
ENDBRANCH   9  10
ENDBRANCH   8   9
ENDBRANCH   7   8
ENDBRANCH   6   7
ENDBRANCH   5   6
BRANCH   5  14
HETATM   14  C           1     -20.004  -5.569  -6.889  0.00  0.00     0.196 C 
HETATM   15  O           1     -19.660  -6.748  -7.121  0.00  0.00    -0.646 OA
HETATM   16  O           1     -19.142  -4.666  -6.830  0.00  0.00    -0.646 OA
ENDBRANCH   5  14
ENDBRANCH   4   5
BRANCH   3  17
HETATM   17  C           1     -23.304  -4.547  -9.969  0.00  0.00     0.283 C 
BRANCH  17  18
HETATM   18  N           1     -24.776  -4.617  -9.688  0.00  0.00    -0.066 N 
HETATM   19  H           1     -24.990  -5.494  -9.163  0.00  0.00     0.275 HD
HETATM   20  H           1     -25.061  -3.789  -9.115  0.00  0.00     0.275 HD
HETATM   21  H           1     -25.303  -4.613 -10.590  0.00  0.00     0.275 HD
ENDBRANCH  17  18
BRANCH  17  22
HETATM   22  C           1     -23.022  -3.381 -10.907  0.00  0.00     0.145 C 
BRANCH  22  23
HETATM   23  C           1     -23.980  -3.430 -12.072  0.00  0.00     0.217 C 
HETATM   24  O           1     -25.094  -2.975 -11.958  0.00  0.00    -0.274 OA
HETATM   25  N           1     -23.588  -3.987 -13.258  0.00  0.00    -0.370 N 
HETATM   26  H           1     -22.655  -4.368 -13.354  0.00  0.00     0.159 HD
HETATM   27  H           1     -24.230  -4.020 -14.040  0.00  0.00     0.159 HD
ENDBRANCH  22  23
ENDBRANCH  17  22
ENDBRANCH   3  17
TORSDOF 11
ENDMDL
MODEL 8
REMARK VINA RESULT:      -5.6     14.662     16.802
REMARK  11 active torsions:
REMARK  status: ('A' for Active; 'I' for Inactive)
REMARK    1  A    between atoms: N_3  and  C_21 
REMARK    2  A    between atoms: C_11  and  C_27 
REMARK    3  A    between atoms: C_11  and  C_12 
REMARK    4  A    between atoms: C_12  and  C_13 
REMARK    5  A    between atoms: C_13  and  C_14 
REMARK    6  A    between atoms: C_14  and  C_15 
REMARK    7  A    between atoms: C_14  and  N_23 
REMARK       I    between atoms: N_18  and  C_19 
REMARK    8  A    between atoms: C_19  and  C_20 
REMARK    9  A    between atoms: C_20  and  C_21 
REMARK   10  A    between atoms: C_21  and  C_22 
REMARK       I    between atoms: C_22  and  N_23 
REMARK   11  A    between atoms: N_25  and  C_27 
ROOT
HETATM    1  O           1     -19.593  -4.566  -5.969  0.00  0.00    -0.271 OA
HETATM    2  H           1     -22.449  -5.841  -6.206  0.00  0.00     0.163 HD
HETATM    3  C           1     -20.695  -4.765  -6.423  0.00  0.00     0.249 C 
HETATM    4  N           1     -21.527  -5.674  -5.826  0.00  0.00    -0.345 N 
ENDROOT
BRANCH   4   5
HETATM    5  C           1     -21.086  -6.396  -4.649  0.00  0.00     0.185 C 
BRANCH   5   6
HETATM    6  C           1     -22.207  -6.419  -3.618  0.00  0.00     0.036 C 
BRANCH   6   7
HETATM    7  C           1     -21.647  -6.046  -2.251  0.00  0.00     0.004 C 
BRANCH   7   8
HETATM    8  C           1     -22.162  -7.027  -1.206  0.00  0.00     0.027 C 
BRANCH   8   9
HETATM    9  C           1     -21.155  -8.155  -1.028  0.00  0.00     0.229 C 
BRANCH   9  10
HETATM   10  N           1     -21.701  -9.414  -1.635  0.00  0.00    -0.079 N 
HETATM   11  H           1     -20.911 -10.007  -1.977  0.00  0.00     0.274 HD
HETATM   12  H           1     -22.327  -9.171  -2.435  0.00  0.00     0.274 HD
HETATM   13  H           1     -22.246  -9.940  -0.915  0.00  0.00     0.274 HD
ENDBRANCH   9  10
ENDBRANCH   8   9
ENDBRANCH   7   8
ENDBRANCH   6   7
ENDBRANCH   5   6
BRANCH   5  14
HETATM   14  C           1     -20.727  -7.811  -5.033  0.00  0.00     0.196 C 
HETATM   15  O           1     -21.431  -8.764  -4.634  0.00  0.00    -0.646 OA
HETATM   16  O           1     -19.728  -8.029  -5.751  0.00  0.00    -0.646 OA
ENDBRANCH   5  14
ENDBRANCH   4   5
BRANCH   3  17
HETATM   17  C           1     -21.154  -4.013  -7.648  0.00  0.00     0.283 C 
BRANCH  17  18
HETATM   18  N           1     -20.068  -4.031  -8.682  0.00  0.00    -0.066 N 
HETATM   19  H           1     -19.267  -3.444  -8.358  0.00  0.00     0.275 HD
HETATM   20  H           1     -19.742  -5.014  -8.827  0.00  0.00     0.275 HD
HETATM   21  H           1     -20.438  -3.650  -9.582  0.00  0.00     0.275 HD
ENDBRANCH  17  18
BRANCH  17  22
HETATM   22  C           1     -22.403  -4.676  -8.213  0.00  0.00     0.145 C 
BRANCH  22  23
HETATM   23  C           1     -23.070  -3.740  -9.192  0.00  0.00     0.217 C 
HETATM   24  O           1     -22.470  -3.362 -10.170  0.00  0.00    -0.274 OA
HETATM   25  N           1     -24.354  -3.320  -8.972  0.00  0.00    -0.370 N 
HETATM   26  H           1     -24.856  -3.637  -8.153  0.00  0.00     0.159 HD
HETATM   27  H           1     -24.801  -2.693  -9.629  0.00  0.00     0.159 HD
ENDBRANCH  22  23
ENDBRANCH  17  22
ENDBRANCH   3  17
TORSDOF 11
ENDMDL
MODEL 9
REMARK VINA RESULT:      -5.5     15.290     17.649
REMARK  11 active torsions:
REMARK  status: ('A' for Active; 'I' for Inactive)
REMARK    1  A    between atoms: N_3  and  C_21 
REMARK    2  A    between atoms: C_11  and  C_27 
REMARK    3  A    between atoms: C_11  and  C_12 
REMARK    4  A    between atoms: C_12  and  C_13 
REMARK    5  A    between atoms: C_13  and  C_14 
REMARK    6  A    between atoms: C_14  and  C_15 
REMARK    7  A    between atoms: C_14  and  N_23 
REMARK       I    between atoms: N_18  and  C_19 
REMARK    8  A    between atoms: C_19  and  C_20 
REMARK    9  A    between atoms: C_20  and  C_21 
REMARK   10  A    between atoms: C_21  and  C_22 
REMARK       I    between atoms: C_22  and  N_23 
REMARK   11  A    between atoms: N_25  and  C_27 
ROOT
HETATM    1  O           1     -20.787  -5.467  -4.484  0.00  0.00    -0.271 OA
HETATM    2  H           1     -20.402  -7.734  -6.618  0.00  0.00     0.163 HD
HETATM    3  C           1     -20.744  -5.978  -5.578  0.00  0.00     0.249 C 
HETATM    4  N           1     -20.439  -7.306  -5.702  0.00  0.00    -0.345 N 
ENDROOT
BRANCH   4   5
HETATM    5  C           1     -20.167  -8.101  -4.519  0.00  0.00     0.185 C 
BRANCH   5   6
HETATM    6  C           1     -21.438  -8.820  -4.089  0.00  0.00     0.036 C 
BRANCH   6   7
HETATM    7  C           1     -21.393  -9.078  -2.589  0.00  0.00     0.004 C 
BRANCH   7   8
HETATM    8  C           1     -20.900  -7.828  -1.873  0.00  0.00     0.027 C 
BRANCH   8   9
HETATM    9  C           1     -22.086  -7.086  -1.269  0.00  0.00     0.229 C 
BRANCH   9  10
HETATM   10  N           1     -22.368  -5.854  -2.076  0.00  0.00    -0.079 N 
HETATM   11  H           1     -21.488  -5.302  -2.190  0.00  0.00     0.274 HD
HETATM   12  H           1     -23.083  -5.272  -1.584  0.00  0.00     0.274 HD
HETATM   13  H           1     -22.732  -6.128  -3.017  0.00  0.00     0.274 HD
ENDBRANCH   9  10
ENDBRANCH   8   9
ENDBRANCH   7   8
ENDBRANCH   6   7
ENDBRANCH   5   6
BRANCH   5  14
HETATM   14  C           1     -19.095  -9.116  -4.832  0.00  0.00     0.196 C 
HETATM   15  O           1     -18.139  -9.278  -4.044  0.00  0.00    -0.646 OA
HETATM   16  O           1     -19.164  -9.796  -5.878  0.00  0.00    -0.646 OA
ENDBRANCH   5  14
ENDBRANCH   4   5
BRANCH   3  17
HETATM   17  C           1     -21.027  -5.151  -6.808  0.00  0.00     0.283 C 
BRANCH  17  18
HETATM   18  N           1     -20.535  -5.879  -8.023  0.00  0.00    -0.066 N 
HETATM   19  H           1     -20.240  -6.845  -7.757  0.00  0.00     0.275 HD
HETATM   20  H           1     -21.303  -5.932  -8.731  0.00  0.00     0.275 HD
HETATM   21  H           1     -19.721  -5.366  -8.431  0.00  0.00     0.275 HD
ENDBRANCH  17  18
BRANCH  17  22
HETATM   22  C           1     -22.527  -4.916  -6.930  0.00  0.00     0.145 C 
BRANCH  22  23
HETATM   23  C           1     -22.803  -4.039  -8.127  0.00  0.00     0.217 C 
HETATM   24  O           1     -21.886  -3.530  -8.727  0.00  0.00    -0.274 OA
HETATM   25  N           1     -24.091  -3.820  -8.533  0.00  0.00    -0.370 N 
HETATM   26  H           1     -24.859  -4.247  -8.030  0.00  0.00     0.159 HD
HETATM   27  H           1     -24.276  -3.232  -9.335  0.00  0.00     0.159 HD
ENDBRANCH  22  23
ENDBRANCH  17  22
ENDBRANCH   3  17
TORSDOF 11
ENDMDL
