MODEL 1
REMARK VINA RESULT:      -5.3      0.000      0.000
REMARK  6 active torsions:
REMARK  status: ('A' for Active; 'I' for Inactive)
REMARK    1  A    between atoms: C_5  and  C_13 
REMARK    2  A    between atoms: C_5  and  N_6 
REMARK       I    between atoms: N_6  and  C_7 
REMARK    3  A    between atoms: C_7  and  C_8 
REMARK    4  A    between atoms: C_8  and  C_9 
REMARK    5  A    between atoms: C_8  and  N_11 
REMARK    6  A    between atoms: C_9  and  S_10 
ROOT
HETATM    1  N           1     -23.610  -3.147 -11.650  0.00  0.00    -0.349 N 
HETATM    2  C           1     -24.121  -3.313 -10.391  0.00  0.00     0.249 C 
HETATM    3  O           1     -25.312  -3.240 -10.208  0.00  0.00    -0.271 OA
HETATM    4  H           1     -22.612  -3.208 -11.804  0.00  0.00     0.163 HD
ENDROOT
BRANCH   2   5
HETATM    5  C           1     -23.195  -3.586  -9.232  0.00  0.00     0.283 C 
BRANCH   5   6
HETATM    6  C           1     -22.180  -4.648  -9.631  0.00  0.00     0.113 C 
BRANCH   6   7
HETATM    7  S           1     -20.591  -4.302  -8.825  0.00  0.00    -0.180 SA
HETATM    8  H           1     -19.962  -3.869  -9.933  0.00  0.00     0.101 HD
ENDBRANCH   6   7
ENDBRANCH   5   6
BRANCH   5   9
HETATM    9  N           1     -23.993  -4.075  -8.058  0.00  0.00    -0.066 N 
HETATM   10  H           1     -23.726  -5.062  -7.842  0.00  0.00     0.275 HD
HETATM   11  H           1     -23.796  -3.471  -7.229  0.00  0.00     0.275 HD
HETATM   12  H           1     -25.011  -4.033  -8.289  0.00  0.00     0.275 HD
ENDBRANCH   5   9
ENDBRANCH   2   5
BRANCH   1  13
HETATM   13  C           1     -24.500  -2.885 -12.764  0.00  0.00     0.235 C 
BRANCH  13  14
HETATM   14  C           1     -23.700  -2.380 -13.940  0.00  0.00     0.191 C 
HETATM   15  O           1     -22.599  -2.902 -14.217  0.00  0.00    -0.647 OA
HETATM   16  O           1     -24.139  -1.441 -14.638  0.00  0.00    -0.647 OA
ENDBRANCH  13  14
ENDBRANCH   1  13
TORSDOF 6
ENDMDL
MODEL 2
REMARK VINA RESULT:      -5.1      2.002      2.161
REMARK  6 active torsions:
REMARK  status: ('A' for Active; 'I' for Inactive)
REMARK    1  A    between atoms: C_5  and  C_13 
REMARK    2  A    between atoms: C_5  and  N_6 
REMARK       I    between atoms: N_6  and  C_7 
REMARK    3  A    between atoms: C_7  and  C_8 
REMARK    4  A    between atoms: C_8  and  C_9 
REMARK    5  A    between atoms: C_8  and  N_11 
REMARK    6  A    between atoms: C_9  and  S_10 
ROOT
HETATM    1  N           1     -22.698  -2.931 -12.483  0.00  0.00    -0.349 N 
HETATM    2  C           1     -22.590  -4.103 -11.785  0.00  0.00     0.249 C 
HETATM    3  O           1     -23.508  -4.888 -11.778  0.00  0.00    -0.271 OA
HETATM    4  H           1     -21.930  -2.272 -12.490  0.00  0.00     0.163 HD
ENDROOT
BRANCH   2   5
HETATM    5  C           1     -21.325  -4.414 -11.025  0.00  0.00     0.283 C 
BRANCH   5   6
HETATM    6  C           1     -21.592  -4.312  -9.529  0.00  0.00     0.113 C 
BRANCH   6   7
HETATM    7  S           1     -20.027  -4.468  -8.623  0.00  0.00    -0.180 SA
HETATM    8  H           1     -19.277  -4.793  -9.692  0.00  0.00     0.101 HD
ENDBRANCH   6   7
ENDBRANCH   5   6
BRANCH   5   9
HETATM    9  N           1     -20.257  -3.432 -11.409  0.00  0.00    -0.066 N 
HETATM   10  H           1     -20.315  -2.592 -10.788  0.00  0.00     0.275 HD
HETATM   11  H           1     -19.319  -3.879 -11.303  0.00  0.00     0.275 HD
HETATM   12  H           1     -20.395  -3.139 -12.403  0.00  0.00     0.275 HD
ENDBRANCH   5   9
ENDBRANCH   2   5
BRANCH   1  13
HETATM   13  C           1     -23.914  -2.631 -13.214  0.00  0.00     0.235 C 
BRANCH  13  14
HETATM   14  C           1     -23.563  -2.077 -14.573  0.00  0.00     0.191 C 
HETATM   15  O           1     -22.676  -2.625 -15.261  0.00  0.00    -0.647 OA
HETATM   16  O           1     -24.161  -1.070 -15.010  0.00  0.00    -0.647 OA
ENDBRANCH  13  14
ENDBRANCH   1  13
TORSDOF 6
ENDMDL
MODEL 3
REMARK VINA RESULT:      -5.1      1.839      1.985
REMARK  6 active torsions:
REMARK  status: ('A' for Active; 'I' for Inactive)
REMARK    1  A    between atoms: C_5  and  C_13 
REMARK    2  A    between atoms: C_5  and  N_6 
REMARK       I    between atoms: N_6  and  C_7 
REMARK    3  A    between atoms: C_7  and  C_8 
REMARK    4  A    between atoms: C_8  and  C_9 
REMARK    5  A    between atoms: C_8  and  N_11 
REMARK    6  A    between atoms: C_9  and  S_10 
ROOT
HETATM    1  N           1     -22.900  -3.048 -11.253  0.00  0.00    -0.349 N 
HETATM    2  C           1     -22.228  -3.748 -10.288  0.00  0.00     0.249 C 
HETATM    3  O           1     -21.296  -4.453 -10.592  0.00  0.00    -0.271 OA
HETATM    4  H           1     -23.682  -2.458 -10.998  0.00  0.00     0.163 HD
ENDROOT
BRANCH   2   5
HETATM    5  C           1     -22.652  -3.639  -8.844  0.00  0.00     0.283 C 
BRANCH   5   6
HETATM    6  C           1     -22.070  -4.804  -8.054  0.00  0.00     0.113 C 
BRANCH   6   7
HETATM    7  S           1     -20.802  -4.188  -6.912  0.00  0.00    -0.180 SA
HETATM    8  H           1     -21.160  -4.964  -5.872  0.00  0.00     0.101 HD
ENDBRANCH   6   7
ENDBRANCH   5   6
BRANCH   5   9
HETATM    9  N           1     -24.150  -3.676  -8.759  0.00  0.00    -0.066 N 
HETATM   10  H           1     -24.471  -3.037  -7.996  0.00  0.00     0.275 HD
HETATM   11  H           1     -24.557  -3.365  -9.669  0.00  0.00     0.275 HD
HETATM   12  H           1     -24.462  -4.651  -8.549  0.00  0.00     0.275 HD
ENDBRANCH   5   9
ENDBRANCH   2   5
BRANCH   1  13
HETATM   13  C           1     -22.494  -3.152 -12.641  0.00  0.00     0.235 C 
BRANCH  13  14
HETATM   14  C           1     -23.700  -2.994 -13.533  0.00  0.00     0.191 C 
HETATM   15  O           1     -24.839  -2.884 -13.031  0.00  0.00    -0.647 OA
HETATM   16  O           1     -23.560  -2.974 -14.775  0.00  0.00    -0.647 OA
ENDBRANCH  13  14
ENDBRANCH   1  13
TORSDOF 6
ENDMDL
MODEL 4
REMARK VINA RESULT:      -5.0     11.722     12.386
REMARK  6 active torsions:
REMARK  status: ('A' for Active; 'I' for Inactive)
REMARK    1  A    between atoms: C_5  and  C_13 
REMARK    2  A    between atoms: C_5  and  N_6 
REMARK       I    between atoms: N_6  and  C_7 
REMARK    3  A    between atoms: C_7  and  C_8 
REMARK    4  A    between atoms: C_8  and  C_9 
REMARK    5  A    between atoms: C_8  and  N_11 
REMARK    6  A    between atoms: C_9  and  S_10 
ROOT
HETATM    1  N           1     -34.911  -0.344 -14.209  0.00  0.00    -0.349 N 
HETATM    2  C           1     -35.497  -0.975 -13.146  0.00  0.00     0.249 C 
HETATM    3  O           1     -36.700  -1.064 -13.084  0.00  0.00    -0.271 OA
HETATM    4  H           1     -33.904  -0.269 -14.261  0.00  0.00     0.163 HD
ENDROOT
BRANCH   2   5
HETATM    5  C           1     -34.640  -1.560 -12.051  0.00  0.00     0.283 C 
BRANCH   5   6
HETATM    6  C           1     -34.523  -3.066 -12.247  0.00  0.00     0.113 C 
BRANCH   6   7
HETATM    7  S           1     -33.734  -3.807 -10.789  0.00  0.00    -0.180 SA
HETATM    8  H           1     -32.471  -3.691 -11.238  0.00  0.00     0.101 HD
ENDBRANCH   6   7
ENDBRANCH   5   6
BRANCH   5   9
HETATM    9  N           1     -35.270  -1.278 -10.718  0.00  0.00    -0.066 N 
HETATM   10  H           1     -36.235  -0.901 -10.861  0.00  0.00     0.275 HD
HETATM   11  H           1     -35.321  -2.162 -10.164  0.00  0.00     0.275 HD
HETATM   12  H           1     -34.694  -0.574 -10.204  0.00  0.00     0.275 HD
ENDBRANCH   5   9
ENDBRANCH   2   5
BRANCH   1  13
HETATM   13  C           1     -35.734   0.219 -15.262  0.00  0.00     0.235 C 
BRANCH  13  14
HETATM   14  C           1     -35.867  -0.778 -16.387  0.00  0.00     0.191 C 
HETATM   15  O           1     -36.904  -0.800 -17.084  0.00  0.00    -0.647 OA
HETATM   16  O           1     -34.939  -1.582 -16.621  0.00  0.00    -0.647 OA
ENDBRANCH  13  14
ENDBRANCH   1  13
TORSDOF 6
ENDMDL
MODEL 5
REMARK VINA RESULT:      -4.8      3.252      5.257
REMARK  6 active torsions:
REMARK  status: ('A' for Active; 'I' for Inactive)
REMARK    1  A    between atoms: C_5  and  C_13 
REMARK    2  A    between atoms: C_5  and  N_6 
REMARK       I    between atoms: N_6  and  C_7 
REMARK    3  A    between atoms: C_7  and  C_8 
REMARK    4  A    between atoms: C_8  and  C_9 
REMARK    5  A    between atoms: C_8  and  N_11 
REMARK    6  A    between atoms: C_9  and  S_10 
ROOT
HETATM    1  N           1     -22.624  -3.793  -9.780  0.00  0.00    -0.349 N 
HETATM    2  C           1     -23.388  -3.222 -10.761  0.00  0.00     0.249 C 
HETATM    3  O           1     -24.565  -3.028 -10.574  0.00  0.00    -0.271 OA
HETATM    4  H           1     -21.637  -3.956  -9.937  0.00  0.00     0.163 HD
ENDROOT
BRANCH   2   5
HETATM    5  C           1     -22.760  -2.834 -12.077  0.00  0.00     0.283 C 
BRANCH   5   6
HETATM    6  C           1     -23.838  -2.744 -13.148  0.00  0.00     0.113 C 
BRANCH   6   7
HETATM    7  S           1     -23.072  -2.352 -14.747  0.00  0.00    -0.180 SA
HETATM    8  H           1     -23.255  -1.021 -14.667  0.00  0.00     0.101 HD
ENDBRANCH   6   7
ENDBRANCH   5   6
BRANCH   5   9
HETATM    9  N           1     -21.748  -3.869 -12.472  0.00  0.00    -0.066 N 
HETATM   10  H           1     -20.849  -3.688 -11.971  0.00  0.00     0.275 HD
HETATM   11  H           1     -22.103  -4.818 -12.216  0.00  0.00     0.275 HD
HETATM   12  H           1     -21.587  -3.822 -13.503  0.00  0.00     0.275 HD
ENDBRANCH   5   9
ENDBRANCH   2   5
BRANCH   1  13
HETATM   13  C           1     -23.227  -4.167  -8.516  0.00  0.00     0.235 C 
BRANCH  13  14
HETATM   14  C           1     -22.162  -4.232  -7.448  0.00  0.00     0.191 C 
HETATM   15  O           1     -21.442  -3.236  -7.222  0.00  0.00    -0.647 OA
HETATM   16  O           1     -22.001  -5.283  -6.791  0.00  0.00    -0.647 OA
ENDBRANCH  13  14
ENDBRANCH   1  13
TORSDOF 6
ENDMDL
MODEL 6
REMARK VINA RESULT:      -4.7      2.288      2.853
REMARK  6 active torsions:
REMARK  status: ('A' for Active; 'I' for Inactive)
REMARK    1  A    between atoms: C_5  and  C_13 
REMARK    2  A    between atoms: C_5  and  N_6 
REMARK       I    between atoms: N_6  and  C_7 
REMARK    3  A    between atoms: C_7  and  C_8 
REMARK    4  A    between atoms: C_8  and  C_9 
REMARK    5  A    between atoms: C_8  and  N_11 
REMARK    6  A    between atoms: C_9  and  S_10 
ROOT
HETATM    1  N           1     -23.143  -4.302  -9.878  0.00  0.00    -0.349 N 
HETATM    2  C           1     -21.992  -4.132  -9.157  0.00  0.00     0.249 C 
HETATM    3  O           1     -20.960  -3.863  -9.722  0.00  0.00    -0.271 OA
HETATM    4  H           1     -24.009  -4.527  -9.405  0.00  0.00     0.163 HD
ENDROOT
BRANCH   2   5
HETATM    5  C           1     -22.014  -4.282  -7.656  0.00  0.00     0.283 C 
BRANCH   5   6
HETATM    6  C           1     -21.264  -5.547  -7.261  0.00  0.00     0.113 C 
BRANCH   6   7
HETATM    7  S           1     -20.676  -5.392  -5.550  0.00  0.00    -0.180 SA
HETATM    8  H           1     -21.885  -5.167  -5.005  0.00  0.00     0.101 HD
ENDBRANCH   6   7
ENDBRANCH   5   6
BRANCH   5   9
HETATM    9  N           1     -23.436  -4.376  -7.184  0.00  0.00    -0.066 N 
HETATM   10  H           1     -23.469  -4.903  -6.282  0.00  0.00     0.275 HD
HETATM   11  H           1     -23.818  -3.415  -7.039  0.00  0.00     0.275 HD
HETATM   12  H           1     -24.008  -4.876  -7.901  0.00  0.00     0.275 HD
ENDBRANCH   5   9
ENDBRANCH   2   5
BRANCH   1  13
HETATM   13  C           1     -23.123  -4.158 -11.321  0.00  0.00     0.235 C 
BRANCH  13  14
HETATM   14  C           1     -24.282  -3.295 -11.758  0.00  0.00     0.191 C 
HETATM   15  O           1     -25.252  -3.116 -10.992  0.00  0.00    -0.647 OA
HETATM   16  O           1     -24.270  -2.760 -12.888  0.00  0.00    -0.647 OA
ENDBRANCH  13  14
ENDBRANCH   1  13
TORSDOF 6
ENDMDL
MODEL 7
REMARK VINA RESULT:      -4.7      3.741      5.869
REMARK  6 active torsions:
REMARK  status: ('A' for Active; 'I' for Inactive)
REMARK    1  A    between atoms: C_5  and  C_13 
REMARK    2  A    between atoms: C_5  and  N_6 
REMARK       I    between atoms: N_6  and  C_7 
REMARK    3  A    between atoms: C_7  and  C_8 
REMARK    4  A    between atoms: C_8  and  C_9 
REMARK    5  A    between atoms: C_8  and  N_11 
REMARK    6  A    between atoms: C_9  and  S_10 
ROOT
HETATM    1  N           1     -22.636  -4.000  -7.769  0.00  0.00    -0.349 N 
HETATM    2  C           1     -22.487  -4.045  -9.128  0.00  0.00     0.249 C 
HETATM    3  O           1     -21.402  -4.263  -9.610  0.00  0.00    -0.271 OA
HETATM    4  H           1     -23.546  -3.818  -7.364  0.00  0.00     0.163 HD
ENDROOT
BRANCH   2   5
HETATM    5  C           1     -23.680  -3.822 -10.025  0.00  0.00     0.283 C 
BRANCH   5   6
HETATM    6  C           1     -23.283  -2.918 -11.184  0.00  0.00     0.113 C 
BRANCH   6   7
HETATM    7  S           1     -24.071  -3.506 -12.710  0.00  0.00    -0.180 SA
HETATM    8  H           1     -24.248  -2.288 -13.255  0.00  0.00     0.101 HD
ENDBRANCH   6   7
ENDBRANCH   5   6
BRANCH   5   9
HETATM    9  N           1     -24.781  -3.172  -9.240  0.00  0.00    -0.066 N 
HETATM   10  H           1     -25.668  -3.711  -9.371  0.00  0.00     0.275 HD
HETATM   11  H           1     -24.527  -3.163  -8.227  0.00  0.00     0.275 HD
HETATM   12  H           1     -24.917  -2.193  -9.576  0.00  0.00     0.275 HD
ENDBRANCH   5   9
ENDBRANCH   2   5
BRANCH   1  13
HETATM   13  C           1     -21.491  -4.214  -6.906  0.00  0.00     0.235 C 
BRANCH  13  14
HETATM   14  C           1     -21.543  -5.610  -6.335  0.00  0.00     0.191 C 
HETATM   15  O           1     -22.151  -5.825  -5.265  0.00  0.00    -0.647 OA
HETATM   16  O           1     -20.977  -6.551  -6.933  0.00  0.00    -0.647 OA
ENDBRANCH  13  14
ENDBRANCH   1  13
TORSDOF 6
ENDMDL
MODEL 8
REMARK VINA RESULT:      -4.5     12.984     13.431
REMARK  6 active torsions:
REMARK  status: ('A' for Active; 'I' for Inactive)
REMARK    1  A    between atoms: C_5  and  C_13 
REMARK    2  A    between atoms: C_5  and  N_6 
REMARK       I    between atoms: N_6  and  C_7 
REMARK    3  A    between atoms: C_7  and  C_8 
REMARK    4  A    between atoms: C_8  and  C_9 
REMARK    5  A    between atoms: C_8  and  N_11 
REMARK    6  A    between atoms: C_9  and  S_10 
ROOT
HETATM    1  N           1     -36.609  -0.169 -13.520  0.00  0.00    -0.349 N 
HETATM    2  C           1     -35.952  -0.234 -12.321  0.00  0.00     0.249 C 
HETATM    3  O           1     -34.828   0.197 -12.225  0.00  0.00    -0.271 OA
HETATM    4  H           1     -37.551  -0.530 -13.601  0.00  0.00     0.163 HD
ENDROOT
BRANCH   2   5
HETATM    5  C           1     -36.631  -0.845 -11.121  0.00  0.00     0.283 C 
BRANCH   5   6
HETATM    6  C           1     -37.864  -0.026 -10.763  0.00  0.00     0.113 C 
BRANCH   6   7
HETATM    7  S           1     -37.503   1.012  -9.319  0.00  0.00    -0.180 SA
HETATM    8  H           1     -36.557   1.760  -9.916  0.00  0.00     0.101 HD
ENDBRANCH   6   7
ENDBRANCH   5   6
BRANCH   5   9
HETATM    9  N           1     -35.682  -0.852  -9.959  0.00  0.00    -0.066 N 
HETATM   10  H           1     -34.839  -0.280 -10.193  0.00  0.00     0.275 HD
HETATM   11  H           1     -36.156  -0.446  -9.121  0.00  0.00     0.275 HD
HETATM   12  H           1     -35.390  -1.834  -9.754  0.00  0.00     0.275 HD
ENDBRANCH   5   9
ENDBRANCH   2   5
BRANCH   1  13
HETATM   13  C           1     -35.957   0.418 -14.674  0.00  0.00     0.235 C 
BRANCH  13  14
HETATM   14  C           1     -35.842  -0.614 -15.768  0.00  0.00     0.191 C 
HETATM   15  O           1     -35.162  -1.646 -15.585  0.00  0.00    -0.647 OA
HETATM   16  O           1     -36.428  -0.437 -16.858  0.00  0.00    -0.647 OA
ENDBRANCH  13  14
ENDBRANCH   1  13
TORSDOF 6
ENDMDL
MODEL 9
REMARK VINA RESULT:      -4.5      3.468      4.524
REMARK  6 active torsions:
REMARK  status: ('A' for Active; 'I' for Inactive)
REMARK    1  A    between atoms: C_5  and  C_13 
REMARK    2  A    between atoms: C_5  and  N_6 
REMARK       I    between atoms: N_6  and  C_7 
REMARK    3  A    between atoms: C_7  and  C_8 
REMARK    4  A    between atoms: C_8  and  C_9 
REMARK    5  A    between atoms: C_8  and  N_11 
REMARK    6  A    between atoms: C_9  and  S_10 
ROOT
HETATM    1  N           1     -22.232  -4.761  -8.795  0.00  0.00    -0.349 N 
HETATM    2  C           1     -21.629  -4.536  -7.587  0.00  0.00     0.249 C 
HETATM    3  O           1     -21.537  -3.411  -7.158  0.00  0.00    -0.271 OA
HETATM    4  H           1     -22.309  -5.703  -9.155  0.00  0.00     0.163 HD
ENDROOT
BRANCH   2   5
HETATM    5  C           1     -21.078  -5.693  -6.792  0.00  0.00     0.283 C 
BRANCH   5   6
HETATM    6  C           1     -20.676  -5.212  -5.404  0.00  0.00     0.113 C 
BRANCH   6   7
HETATM    7  S           1     -21.403  -6.304  -4.150  0.00  0.00    -0.180 SA
HETATM    8  H           1     -20.301  -6.391  -3.383  0.00  0.00     0.101 HD
ENDBRANCH   6   7
ENDBRANCH   5   6
BRANCH   5   9
HETATM    9  N           1     -19.876  -6.255  -7.493  0.00  0.00    -0.066 N 
HETATM   10  H           1     -20.160  -7.084  -8.063  0.00  0.00     0.275 HD
HETATM   11  H           1     -19.467  -5.526  -8.120  0.00  0.00     0.275 HD
HETATM   12  H           1     -19.165  -6.547  -6.785  0.00  0.00     0.275 HD
ENDBRANCH   5   9
ENDBRANCH   2   5
BRANCH   1  13
HETATM   13  C           1     -22.761  -3.649  -9.560  0.00  0.00     0.235 C 
BRANCH  13  14
HETATM   14  C           1     -24.256  -3.798  -9.698  0.00  0.00     0.191 C 
HETATM   15  O           1     -24.751  -4.912  -9.973  0.00  0.00    -0.647 OA
HETATM   16  O           1     -25.000  -2.806  -9.539  0.00  0.00    -0.647 OA
ENDBRANCH  13  14
ENDBRANCH   1  13
TORSDOF 6
ENDMDL
