MODEL 1
REMARK VINA RESULT:      -5.7      0.000      0.000
REMARK  6 active torsions:
REMARK  status: ('A' for Active; 'I' for Inactive)
REMARK    1  A    between atoms: C_1  and  O_6 
REMARK    2  A    between atoms: C_1  and  C_2 
REMARK    3  A    between atoms: C_2  and  C_9 
REMARK    4  A    between atoms: C_2  and  N_15 
REMARK    5  A    between atoms: N_10  and  C_14 
REMARK    6  A    between atoms: C_14  and  C_16 
REMARK       I    between atoms: N_15  and  C_16 
ROOT
HETATM    1  H           1     -22.808  -1.488 -12.475  0.00  0.00     0.163 HD
HETATM    2  O           1     -23.809  -3.401 -14.750  0.00  0.00    -0.272 OA
HETATM    3  N           1     -23.097  -2.354 -12.911  0.00  0.00    -0.343 N 
HETATM    4  C           1     -23.465  -2.367 -14.230  0.00  0.00     0.243 C 
ENDROOT
BRANCH   3   5
HETATM    5  C           1     -23.122  -3.581 -12.139  0.00  0.00     0.209 C 
BRANCH   5   6
HETATM    6  C           1     -21.697  -3.989 -11.789  0.00  0.00     0.200 C 
BRANCH   6   7
HETATM    7  O           1     -20.910  -2.841 -11.621  0.00  0.00    -0.398 OA
HETATM    8  H           1     -20.363  -2.770 -12.385  0.00  0.00     0.209 HD
ENDBRANCH   6   7
ENDBRANCH   5   6
BRANCH   5   9
HETATM    9  C           1     -23.908  -3.360 -10.870  0.00  0.00     0.198 C 
HETATM   10  O           1     -25.142  -3.166 -10.925  0.00  0.00    -0.646 OA
HETATM   11  O           1     -23.326  -3.370  -9.764  0.00  0.00    -0.646 OA
ENDBRANCH   5   9
ENDBRANCH   3   5
BRANCH   4  12
HETATM   12  C           1     -23.439  -1.090 -15.033  0.00  0.00     0.332 C 
BRANCH  12  13
HETATM   13  N           1     -24.669  -0.286 -14.734  0.00  0.00    -0.071 N 
HETATM   14  H           1     -24.899  -0.365 -13.717  0.00  0.00     0.274 HD
HETATM   15  H           1     -24.497   0.717 -14.974  0.00  0.00     0.274 HD
HETATM   16  H           1     -25.468  -0.648 -15.301  0.00  0.00     0.274 HD
ENDBRANCH  12  13
ENDBRANCH   4  12
TORSDOF 6
ENDMDL
MODEL 2
REMARK VINA RESULT:      -5.2     11.935     13.268
REMARK  6 active torsions:
REMARK  status: ('A' for Active; 'I' for Inactive)
REMARK    1  A    between atoms: C_1  and  O_6 
REMARK    2  A    between atoms: C_1  and  C_2 
REMARK    3  A    between atoms: C_2  and  C_9 
REMARK    4  A    between atoms: C_2  and  N_15 
REMARK    5  A    between atoms: N_10  and  C_14 
REMARK    6  A    between atoms: C_14  and  C_16 
REMARK       I    between atoms: N_15  and  C_16 
ROOT
HETATM    1  H           1     -33.935  -0.866 -14.326  0.00  0.00     0.163 HD
HETATM    2  O           1     -36.534  -1.356 -12.640  0.00  0.00    -0.272 OA
HETATM    3  N           1     -34.919  -0.834 -14.090  0.00  0.00    -0.343 N 
HETATM    4  C           1     -35.361  -1.396 -12.922  0.00  0.00     0.243 C 
ENDROOT
BRANCH   3   5
HETATM    5  C           1     -35.859  -0.191 -14.987  0.00  0.00     0.209 C 
BRANCH   5   6
HETATM    6  C           1     -35.459   1.266 -15.182  0.00  0.00     0.200 C 
BRANCH   6   7
HETATM    7  O           1     -36.392   1.899 -16.015  0.00  0.00    -0.398 OA
HETATM    8  H           1     -36.589   2.732 -15.623  0.00  0.00     0.209 HD
ENDBRANCH   6   7
ENDBRANCH   5   6
BRANCH   5   9
HETATM    9  C           1     -35.845  -0.899 -16.319  0.00  0.00     0.198 C 
HETATM   10  O           1     -36.790  -0.740 -17.122  0.00  0.00    -0.646 OA
HETATM   11  O           1     -34.888  -1.645 -16.621  0.00  0.00    -0.646 OA
ENDBRANCH   5   9
ENDBRANCH   3   5
BRANCH   4  12
HETATM   12  C           1     -34.382  -2.064 -11.989  0.00  0.00     0.332 C 
BRANCH  12  13
HETATM   13  N           1     -34.488  -1.447 -10.626  0.00  0.00    -0.071 N 
HETATM   14  H           1     -33.919  -0.572 -10.594  0.00  0.00     0.274 HD
HETATM   15  H           1     -35.488  -1.219 -10.424  0.00  0.00     0.274 HD
HETATM   16  H           1     -34.133  -2.120  -9.909  0.00  0.00     0.274 HD
ENDBRANCH  12  13
ENDBRANCH   4  12
TORSDOF 6
ENDMDL
MODEL 3
REMARK VINA RESULT:      -5.1      6.948      8.259
REMARK  6 active torsions:
REMARK  status: ('A' for Active; 'I' for Inactive)
REMARK    1  A    between atoms: C_1  and  O_6 
REMARK    2  A    between atoms: C_1  and  C_2 
REMARK    3  A    between atoms: C_2  and  C_9 
REMARK    4  A    between atoms: C_2  and  N_15 
REMARK    5  A    between atoms: N_10  and  C_14 
REMARK    6  A    between atoms: C_14  and  C_16 
REMARK       I    between atoms: N_15  and  C_16 
ROOT
HETATM    1  H           1     -27.765  -7.930 -15.599  0.00  0.00     0.163 HD
HETATM    2  O           1     -26.369  -5.664 -17.258  0.00  0.00    -0.272 OA
HETATM    3  N           1     -27.683  -7.165 -16.256  0.00  0.00    -0.343 N 
HETATM    4  C           1     -26.467  -6.576 -16.473  0.00  0.00     0.243 C 
ENDROOT
BRANCH   3   5
HETATM    5  C           1     -28.855  -6.694 -16.970  0.00  0.00     0.209 C 
BRANCH   5   6
HETATM    6  C           1     -29.689  -7.887 -17.419  0.00  0.00     0.200 C 
BRANCH   6   7
HETATM    7  O           1     -30.520  -7.503 -18.480  0.00  0.00    -0.398 OA
HETATM    8  H           1     -29.958  -7.224 -19.182  0.00  0.00     0.209 HD
ENDBRANCH   6   7
ENDBRANCH   5   6
BRANCH   5   9
HETATM    9  C           1     -29.679  -5.818 -16.058  0.00  0.00     0.198 C 
HETATM   10  O           1     -29.317  -5.632 -14.875  0.00  0.00    -0.646 OA
HETATM   11  O           1     -30.722  -5.278 -16.484  0.00  0.00    -0.646 OA
ENDBRANCH   5   9
ENDBRANCH   3   5
BRANCH   4  12
HETATM   12  C           1     -25.248  -7.066 -15.730  0.00  0.00     0.332 C 
BRANCH  12  13
HETATM   13  N           1     -24.297  -7.705 -16.698  0.00  0.00    -0.071 N 
HETATM   14  H           1     -24.556  -7.434 -17.673  0.00  0.00     0.274 HD
HETATM   15  H           1     -23.324  -7.381 -16.495  0.00  0.00     0.274 HD
HETATM   16  H           1     -24.345  -8.745 -16.600  0.00  0.00     0.274 HD
ENDBRANCH  12  13
ENDBRANCH   4  12
TORSDOF 6
ENDMDL
MODEL 4
REMARK VINA RESULT:      -5.1      1.945      4.140
REMARK  6 active torsions:
REMARK  status: ('A' for Active; 'I' for Inactive)
REMARK    1  A    between atoms: C_1  and  O_6 
REMARK    2  A    between atoms: C_1  and  C_2 
REMARK    3  A    between atoms: C_2  and  C_9 
REMARK    4  A    between atoms: C_2  and  N_15 
REMARK    5  A    between atoms: N_10  and  C_14 
REMARK    6  A    between atoms: C_14  and  C_16 
REMARK       I    between atoms: N_15  and  C_16 
ROOT
HETATM    1  H           1     -21.392  -3.945 -13.541  0.00  0.00     0.163 HD
HETATM    2  O           1     -22.176  -2.969 -10.665  0.00  0.00    -0.272 OA
HETATM    3  N           1     -21.915  -3.450 -12.830  0.00  0.00    -0.343 N 
HETATM    4  C           1     -21.553  -3.560 -11.514  0.00  0.00     0.243 C 
ENDROOT
BRANCH   3   5
HETATM    5  C           1     -23.047  -2.625 -13.204  0.00  0.00     0.209 C 
BRANCH   5   6
HETATM    6  C           1     -22.937  -2.252 -14.677  0.00  0.00     0.200 C 
BRANCH   6   7
HETATM    7  O           1     -22.270  -3.273 -15.370  0.00  0.00    -0.398 OA
HETATM    8  H           1     -21.684  -2.854 -15.977  0.00  0.00     0.209 HD
ENDBRANCH   6   7
ENDBRANCH   5   6
BRANCH   5   9
HETATM    9  C           1     -24.325  -3.392 -12.973  0.00  0.00     0.198 C 
HETATM   10  O           1     -25.077  -3.083 -12.023  0.00  0.00    -0.646 OA
HETATM   11  O           1     -24.634  -4.337 -13.731  0.00  0.00    -0.646 OA
ENDBRANCH   5   9
ENDBRANCH   3   5
BRANCH   4  12
HETATM   12  C           1     -20.375  -4.419 -11.125  0.00  0.00     0.332 C 
BRANCH  12  13
HETATM   13  N           1     -20.259  -4.462  -9.630  0.00  0.00    -0.071 N 
HETATM   14  H           1     -20.980  -3.835  -9.206  0.00  0.00     0.274 HD
HETATM   15  H           1     -20.411  -5.441  -9.297  0.00  0.00     0.274 HD
HETATM   16  H           1     -19.306  -4.141  -9.345  0.00  0.00     0.274 HD
ENDBRANCH  12  13
ENDBRANCH   4  12
TORSDOF 6
ENDMDL
MODEL 5
REMARK VINA RESULT:      -5.0      2.102      4.614
REMARK  6 active torsions:
REMARK  status: ('A' for Active; 'I' for Inactive)
REMARK    1  A    between atoms: C_1  and  O_6 
REMARK    2  A    between atoms: C_1  and  C_2 
REMARK    3  A    between atoms: C_2  and  C_9 
REMARK    4  A    between atoms: C_2  and  N_15 
REMARK    5  A    between atoms: N_10  and  C_14 
REMARK    6  A    between atoms: C_14  and  C_16 
REMARK       I    between atoms: N_15  and  C_16 
ROOT
HETATM    1  H           1     -21.136  -2.957 -13.226  0.00  0.00     0.163 HD
HETATM    2  O           1     -22.615  -4.761 -11.130  0.00  0.00    -0.272 OA
HETATM    3  N           1     -21.907  -3.444 -12.788  0.00  0.00    -0.343 N 
HETATM    4  C           1     -21.694  -4.180 -11.653  0.00  0.00     0.243 C 
ENDROOT
BRANCH   3   5
HETATM    5  C           1     -23.236  -3.362 -13.361  0.00  0.00     0.209 C 
BRANCH   5   6
HETATM    6  C           1     -24.185  -2.729 -12.352  0.00  0.00     0.200 C 
BRANCH   6   7
HETATM    7  O           1     -25.510  -2.937 -12.761  0.00  0.00    -0.398 OA
HETATM    8  H           1     -25.907  -3.507 -12.125  0.00  0.00     0.209 HD
ENDBRANCH   6   7
ENDBRANCH   5   6
BRANCH   5   9
HETATM    9  C           1     -23.192  -2.516 -14.610  0.00  0.00     0.198 C 
HETATM   10  O           1     -22.348  -2.760 -15.500  0.00  0.00    -0.646 OA
HETATM   11  O           1     -23.999  -1.574 -14.756  0.00  0.00    -0.646 OA
ENDBRANCH   5   9
ENDBRANCH   3   5
BRANCH   4  12
HETATM   12  C           1     -20.311  -4.266 -11.057  0.00  0.00     0.332 C 
BRANCH  12  13
HETATM   13  N           1     -20.415  -4.388  -9.566  0.00  0.00    -0.071 N 
HETATM   14  H           1     -21.418  -4.320  -9.280  0.00  0.00     0.274 HD
HETATM   15  H           1     -20.030  -5.312  -9.265  0.00  0.00     0.274 HD
HETATM   16  H           1     -19.870  -3.619  -9.114  0.00  0.00     0.274 HD
ENDBRANCH  12  13
ENDBRANCH   4  12
TORSDOF 6
ENDMDL
MODEL 6
REMARK VINA RESULT:      -4.9      6.997      8.515
REMARK  6 active torsions:
REMARK  status: ('A' for Active; 'I' for Inactive)
REMARK    1  A    between atoms: C_1  and  O_6 
REMARK    2  A    between atoms: C_1  and  C_2 
REMARK    3  A    between atoms: C_2  and  C_9 
REMARK    4  A    between atoms: C_2  and  N_15 
REMARK    5  A    between atoms: N_10  and  C_14 
REMARK    6  A    between atoms: C_14  and  C_16 
REMARK       I    between atoms: N_15  and  C_16 
ROOT
HETATM    1  H           1     -27.279  -5.694 -17.371  0.00  0.00     0.163 HD
HETATM    2  O           1     -27.143  -7.741 -14.998  0.00  0.00    -0.272 OA
HETATM    3  N           1     -27.616  -6.359 -16.686  0.00  0.00    -0.343 N 
HETATM    4  C           1     -26.740  -6.948 -15.815  0.00  0.00     0.243 C 
ENDROOT
BRANCH   3   5
HETATM    5  C           1     -29.027  -6.687 -16.629  0.00  0.00     0.209 C 
BRANCH   5   6
HETATM    6  C           1     -29.720  -5.771 -15.628  0.00  0.00     0.200 C 
BRANCH   6   7
HETATM    7  O           1     -30.881  -5.240 -16.206  0.00  0.00    -0.398 OA
HETATM    8  H           1     -30.921  -4.332 -15.957  0.00  0.00     0.209 HD
ENDBRANCH   6   7
ENDBRANCH   5   6
BRANCH   5   9
HETATM    9  C           1     -29.642  -6.498 -17.994  0.00  0.00     0.198 C 
HETATM   10  O           1     -29.372  -5.478 -18.665  0.00  0.00    -0.646 OA
HETATM   11  O           1     -30.420  -7.361 -18.454  0.00  0.00    -0.646 OA
ENDBRANCH   5   9
ENDBRANCH   3   5
BRANCH   4  12
HETATM   12  C           1     -25.271  -6.607 -15.875  0.00  0.00     0.332 C 
BRANCH  12  13
HETATM   13  N           1     -24.593  -7.489 -16.881  0.00  0.00    -0.071 N 
HETATM   14  H           1     -25.314  -7.973 -17.462  0.00  0.00     0.274 HD
HETATM   15  H           1     -23.981  -6.908 -17.498  0.00  0.00     0.274 HD
HETATM   16  H           1     -24.011  -8.201 -16.384  0.00  0.00     0.274 HD
ENDBRANCH  12  13
ENDBRANCH   4  12
TORSDOF 6
ENDMDL
MODEL 7
REMARK VINA RESULT:      -4.9      3.074      4.942
REMARK  6 active torsions:
REMARK  status: ('A' for Active; 'I' for Inactive)
REMARK    1  A    between atoms: C_1  and  O_6 
REMARK    2  A    between atoms: C_1  and  C_2 
REMARK    3  A    between atoms: C_2  and  C_9 
REMARK    4  A    between atoms: C_2  and  N_15 
REMARK    5  A    between atoms: N_10  and  C_14 
REMARK    6  A    between atoms: C_14  and  C_16 
REMARK       I    between atoms: N_15  and  C_16 
ROOT
HETATM    1  H           1     -24.007  -4.397  -9.131  0.00  0.00     0.163 HD
HETATM    2  O           1     -20.966  -3.671  -8.889  0.00  0.00    -0.272 OA
HETATM    3  N           1     -23.103  -4.043  -9.415  0.00  0.00    -0.343 N 
HETATM    4  C           1     -22.045  -4.093  -8.548  0.00  0.00     0.243 C 
ENDROOT
BRANCH   3   5
HETATM    5  C           1     -22.929  -3.483 -10.742  0.00  0.00     0.209 C 
BRANCH   5   6
HETATM    6  C           1     -22.199  -4.488 -11.624  0.00  0.00     0.200 C 
BRANCH   6   7
HETATM    7  O           1     -21.610  -3.818 -12.706  0.00  0.00    -0.398 OA
HETATM    8  H           1     -22.198  -3.907 -13.436  0.00  0.00     0.209 HD
ENDBRANCH   6   7
ENDBRANCH   5   6
BRANCH   5   9
HETATM    9  C           1     -24.281  -3.177 -11.338  0.00  0.00     0.198 C 
HETATM   10  O           1     -25.300  -3.187 -10.614  0.00  0.00    -0.646 OA
HETATM   11  O           1     -24.382  -2.914 -12.556  0.00  0.00    -0.646 OA
ENDBRANCH   5   9
ENDBRANCH   3   5
BRANCH   4  12
HETATM   12  C           1     -22.227  -4.675  -7.168  0.00  0.00     0.332 C 
BRANCH  12  13
HETATM   13  N           1     -23.668  -4.569  -6.767  0.00  0.00    -0.071 N 
HETATM   14  H           1     -24.039  -3.633  -7.045  0.00  0.00     0.274 HD
HETATM   15  H           1     -24.219  -5.318  -7.244  0.00  0.00     0.274 HD
HETATM   16  H           1     -23.750  -4.683  -5.731  0.00  0.00     0.274 HD
ENDBRANCH  12  13
ENDBRANCH   4  12
TORSDOF 6
ENDMDL
MODEL 8
REMARK VINA RESULT:      -4.8      1.457      2.457
REMARK  6 active torsions:
REMARK  status: ('A' for Active; 'I' for Inactive)
REMARK    1  A    between atoms: C_1  and  O_6 
REMARK    2  A    between atoms: C_1  and  C_2 
REMARK    3  A    between atoms: C_2  and  C_9 
REMARK    4  A    between atoms: C_2  and  N_15 
REMARK    5  A    between atoms: N_10  and  C_14 
REMARK    6  A    between atoms: C_14  and  C_16 
REMARK       I    between atoms: N_15  and  C_16 
ROOT
HETATM    1  H           1     -21.403  -3.546 -13.266  0.00  0.00     0.163 HD
HETATM    2  O           1     -24.339  -2.443 -13.244  0.00  0.00    -0.272 OA
HETATM    3  N           1     -22.320  -3.328 -12.895  0.00  0.00    -0.343 N 
HETATM    4  C           1     -23.246  -2.702 -13.686  0.00  0.00     0.243 C 
ENDROOT
BRANCH   3   5
HETATM    5  C           1     -22.651  -3.678 -11.528  0.00  0.00     0.209 C 
BRANCH   5   6
HETATM    6  C           1     -23.409  -4.999 -11.512  0.00  0.00     0.200 C 
BRANCH   6   7
HETATM    7  O           1     -24.139  -5.105 -10.320  0.00  0.00    -0.398 OA
HETATM    8  H           1     -24.869  -5.673 -10.495  0.00  0.00     0.209 HD
ENDBRANCH   6   7
ENDBRANCH   5   6
BRANCH   5   9
HETATM    9  C           1     -21.381  -3.816 -10.724  0.00  0.00     0.198 C 
HETATM   10  O           1     -20.323  -3.291 -11.132  0.00  0.00    -0.646 OA
HETATM   11  O           1     -21.388  -4.455  -9.650  0.00  0.00    -0.646 OA
ENDBRANCH   5   9
ENDBRANCH   3   5
BRANCH   4  12
HETATM   12  C           1     -22.901  -2.338 -15.109  0.00  0.00     0.332 C 
BRANCH  12  13
HETATM   13  N           1     -23.569  -1.046 -15.471  0.00  0.00    -0.071 N 
HETATM   14  H           1     -23.423  -0.850 -16.487  0.00  0.00     0.274 HD
HETATM   15  H           1     -24.593  -1.116 -15.275  0.00  0.00     0.274 HD
HETATM   16  H           1     -23.158  -0.270 -14.904  0.00  0.00     0.274 HD
ENDBRANCH  12  13
ENDBRANCH   4  12
TORSDOF 6
ENDMDL
MODEL 9
REMARK VINA RESULT:      -4.5      8.464      9.685
REMARK  6 active torsions:
REMARK  status: ('A' for Active; 'I' for Inactive)
REMARK    1  A    between atoms: C_1  and  O_6 
REMARK    2  A    between atoms: C_1  and  C_2 
REMARK    3  A    between atoms: C_2  and  C_9 
REMARK    4  A    between atoms: C_2  and  N_15 
REMARK    5  A    between atoms: N_10  and  C_14 
REMARK    6  A    between atoms: C_14  and  C_16 
REMARK       I    between atoms: N_15  and  C_16 
ROOT
HETATM    1  H           1     -27.146  -8.089 -18.634  0.00  0.00     0.163 HD
HETATM    2  O           1     -28.363  -5.253 -19.192  0.00  0.00    -0.272 OA
HETATM    3  N           1     -27.279  -7.202 -19.104  0.00  0.00    -0.343 N 
HETATM    4  C           1     -28.205  -6.311 -18.633  0.00  0.00     0.243 C 
ENDROOT
BRANCH   3   5
HETATM    5  C           1     -26.489  -6.877 -20.275  0.00  0.00     0.209 C 
BRANCH   5   6
HETATM    6  C           1     -25.070  -6.524 -19.847  0.00  0.00     0.200 C 
BRANCH   6   7
HETATM    7  O           1     -24.529  -7.582 -19.104  0.00  0.00    -0.398 OA
HETATM    8  H           1     -23.835  -7.222 -18.579  0.00  0.00     0.209 HD
ENDBRANCH   6   7
ENDBRANCH   5   6
BRANCH   5   9
HETATM    9  C           1     -26.454  -8.066 -21.203  0.00  0.00     0.198 C 
HETATM   10  O           1     -27.498  -8.718 -21.423  0.00  0.00    -0.646 OA
HETATM   11  O           1     -25.382  -8.399 -21.753  0.00  0.00    -0.646 OA
ENDBRANCH   5   9
ENDBRANCH   3   5
BRANCH   4  12
HETATM   12  C           1     -29.027  -6.650 -17.414  0.00  0.00     0.332 C 
BRANCH  12  13
HETATM   13  N           1     -28.173  -7.380 -16.421  0.00  0.00    -0.071 N 
HETATM   14  H           1     -28.177  -8.402 -16.642  0.00  0.00     0.274 HD
HETATM   15  H           1     -27.193  -7.018 -16.472  0.00  0.00     0.274 HD
HETATM   16  H           1     -28.550  -7.230 -15.458  0.00  0.00     0.274 HD
ENDBRANCH  12  13
ENDBRANCH   4  12
TORSDOF 6
ENDMDL
