MODEL 1
REMARK VINA RESULT:      -8.5      0.000      0.000
REMARK  10 active torsions:
REMARK  status: ('A' for Active; 'I' for Inactive)
REMARK    1  A    between atoms: C_2  and  C_27 
REMARK    2  A    between atoms: C_2  and  C_21 
REMARK    3  A    between atoms: C_6  and  C_7 
REMARK    4  A    between atoms: C_7  and  C_8 
REMARK    5  A    between atoms: C_8  and  C_9 
REMARK    6  A    between atoms: C_8  and  N_12 
REMARK       I    between atoms: C_9  and  N_13 
REMARK    7  A    between atoms: N_13  and  C_20 
REMARK       I    between atoms: N_14  and  C_29 
REMARK    8  A    between atoms: C_20  and  C_21 
REMARK    9  A    between atoms: C_20  and  C_30 
REMARK       I    between atoms: N_22  and  C_29 
REMARK   10  A    between atoms: N_22  and  C_27 
ROOT
HETATM    1  H           1     -22.024  -5.683  -9.023  0.00  0.00     0.163 HD
HETATM    2  C           1     -21.534  -4.318  -7.547  0.00  0.00     0.249 C 
HETATM    3  O           1     -21.538  -3.150  -7.237  0.00  0.00    -0.271 OA
HETATM    4  N           1     -22.028  -4.705  -8.764  0.00  0.00    -0.345 N 
ENDROOT
BRANCH   4   5
HETATM    5  C           1     -22.556  -3.713  -9.680  0.00  0.00     0.185 C 
BRANCH   5   6
HETATM    6  C           1     -21.972  -3.941 -11.068  0.00  0.00     0.038 C 
BRANCH   6   7
HETATM    7  C           1     -22.199  -2.702 -11.925  0.00  0.00     0.023 C 
BRANCH   7   8
HETATM    8  C           1     -23.062  -3.067 -13.126  0.00  0.00     0.138 C 
BRANCH   8   9
HETATM    9  N           1     -23.886  -1.910 -13.506  0.00  0.00    -0.227 N 
HETATM   10  H           1     -24.594  -1.526 -12.832  0.00  0.00     0.177 HD
HETATM   11  C           1     -23.743  -1.379 -14.646  0.00  0.00     0.665 C 
HETATM   12  N           1     -24.473  -0.356 -14.982  0.00  0.00    -0.235 N 
HETATM   13  N           1     -22.890  -1.842 -15.458  0.00  0.00    -0.235 N 
HETATM   14  H           1     -25.176   0.027 -14.311  0.00  0.00     0.174 HD
HETATM   15  H           1     -24.355   0.083 -15.923  0.00  0.00     0.174 HD
HETATM   16  H           1     -22.771  -1.401 -16.404  0.00  0.00     0.174 HD
HETATM   17  H           1     -22.302  -2.668 -15.187  0.00  0.00     0.174 HD
ENDBRANCH   8   9
ENDBRANCH   7   8
ENDBRANCH   6   7
ENDBRANCH   5   6
BRANCH   5  18
HETATM   18  C           1     -24.059  -3.838  -9.742  0.00  0.00     0.196 C 
HETATM   19  O           1     -24.583  -4.912 -10.111  0.00  0.00    -0.646 OA
HETATM   20  O           1     -24.780  -2.868  -9.424  0.00  0.00    -0.646 OA
ENDBRANCH   5  18
ENDBRANCH   4   5
BRANCH   2  21
HETATM   21  C           1     -20.984  -5.349  -6.592  0.00  0.00     0.278 C 
BRANCH  21  22
HETATM   22  C           1     -22.116  -5.911  -5.743  0.00  0.00     0.081 C 
BRANCH  22  23
HETATM   23  C           1     -21.544  -6.743  -4.636  0.00  0.00    -0.056 A 
HETATM   24  C           1     -20.864  -7.923  -4.932  0.00  0.00     0.007 A 
HETATM   25  C           1     -20.332  -8.699  -3.902  0.00  0.00     0.001 A 
HETATM   26  C           1     -20.481  -8.292  -2.576  0.00  0.00     0.000 A 
HETATM   27  C           1     -21.162  -7.111  -2.280  0.00  0.00     0.001 A 
HETATM   28  C           1     -21.694  -6.336  -3.310  0.00  0.00     0.007 A 
ENDBRANCH  22  23
ENDBRANCH  21  22
BRANCH  21  29
HETATM   29  N           1     -19.961  -4.708  -5.702  0.00  0.00    -0.066 N 
HETATM   30  H           1     -19.015  -5.092  -5.925  0.00  0.00     0.275 HD
HETATM   31  H           1     -19.962  -3.675  -5.857  0.00  0.00     0.275 HD
HETATM   32  H           1     -20.192  -4.912  -4.704  0.00  0.00     0.275 HD
ENDBRANCH  21  29
ENDBRANCH   2  21
TORSDOF 10
ENDMDL
MODEL 2
REMARK VINA RESULT:      -8.0      0.930      1.161
REMARK  10 active torsions:
REMARK  status: ('A' for Active; 'I' for Inactive)
REMARK    1  A    between atoms: C_2  and  C_27 
REMARK    2  A    between atoms: C_2  and  C_21 
REMARK    3  A    between atoms: C_6  and  C_7 
REMARK    4  A    between atoms: C_7  and  C_8 
REMARK    5  A    between atoms: C_8  and  C_9 
REMARK    6  A    between atoms: C_8  and  N_12 
REMARK       I    between atoms: C_9  and  N_13 
REMARK    7  A    between atoms: N_13  and  C_20 
REMARK       I    between atoms: N_14  and  C_29 
REMARK    8  A    between atoms: C_20  and  C_21 
REMARK    9  A    between atoms: C_20  and  C_30 
REMARK       I    between atoms: N_22  and  C_29 
REMARK   10  A    between atoms: N_22  and  C_27 
ROOT
HETATM    1  H           1     -23.018  -5.782  -8.216  0.00  0.00     0.163 HD
HETATM    2  C           1     -21.424  -4.832  -7.301  0.00  0.00     0.249 C 
HETATM    3  O           1     -20.735  -3.839  -7.291  0.00  0.00    -0.271 OA
HETATM    4  N           1     -22.442  -4.951  -8.208  0.00  0.00    -0.345 N 
ENDROOT
BRANCH   4   5
HETATM    5  C           1     -22.693  -3.885  -9.158  0.00  0.00     0.185 C 
BRANCH   5   6
HETATM    6  C           1     -21.870  -4.121 -10.417  0.00  0.00     0.038 C 
BRANCH   6   7
HETATM    7  C           1     -21.976  -2.906 -11.330  0.00  0.00     0.023 C 
BRANCH   7   8
HETATM    8  C           1     -22.695  -3.298 -12.615  0.00  0.00     0.138 C 
BRANCH   8   9
HETATM    9  N           1     -23.503  -2.164 -13.089  0.00  0.00    -0.227 N 
HETATM   10  H           1     -24.129  -1.650 -12.421  0.00  0.00     0.177 HD
HETATM   11  C           1     -23.443  -1.809 -14.302  0.00  0.00     0.665 C 
HETATM   12  N           1     -24.158  -0.806 -14.721  0.00  0.00    -0.235 N 
HETATM   13  N           1     -22.689  -2.429 -15.107  0.00  0.00    -0.235 N 
HETATM   14  H           1     -24.781  -0.294 -14.056  0.00  0.00     0.174 HD
HETATM   15  H           1     -24.109  -0.512 -15.723  0.00  0.00     0.174 HD
HETATM   16  H           1     -22.639  -2.133 -16.114  0.00  0.00     0.174 HD
HETATM   17  H           1     -22.112  -3.237 -14.769  0.00  0.00     0.174 HD
ENDBRANCH   8   9
ENDBRANCH   7   8
ENDBRANCH   6   7
ENDBRANCH   5   6
BRANCH   5  18
HETATM   18  C           1     -24.159  -3.866  -9.515  0.00  0.00     0.196 C 
HETATM   19  O           1     -24.820  -2.812  -9.389  0.00  0.00    -0.646 OA
HETATM   20  O           1     -24.714  -4.904  -9.937  0.00  0.00    -0.646 OA
ENDBRANCH   5  18
ENDBRANCH   4   5
BRANCH   2  21
HETATM   21  C           1     -21.161  -5.940  -6.311  0.00  0.00     0.278 C 
BRANCH  21  22
HETATM   22  C           1     -20.802  -5.340  -4.958  0.00  0.00     0.081 C 
BRANCH  22  23
HETATM   23  C           1     -21.152  -6.310  -3.872  0.00  0.00    -0.056 A 
HETATM   24  C           1     -20.927  -7.673  -4.057  0.00  0.00     0.007 A 
HETATM   25  C           1     -21.254  -8.577  -3.046  0.00  0.00     0.001 A 
HETATM   26  C           1     -21.804  -8.116  -1.850  0.00  0.00     0.000 A 
HETATM   27  C           1     -22.029  -6.751  -1.665  0.00  0.00     0.001 A 
HETATM   28  C           1     -21.703  -5.848  -2.677  0.00  0.00     0.007 A 
ENDBRANCH  22  23
ENDBRANCH  21  22
BRANCH  21  29
HETATM   29  N           1     -20.024  -6.786  -6.800  0.00  0.00    -0.066 N 
HETATM   30  H           1     -20.167  -7.774  -6.492  0.00  0.00     0.275 HD
HETATM   31  H           1     -19.986  -6.749  -7.844  0.00  0.00     0.275 HD
HETATM   32  H           1     -19.127  -6.425  -6.405  0.00  0.00     0.275 HD
ENDBRANCH  21  29
ENDBRANCH   2  21
TORSDOF 10
ENDMDL
MODEL 3
REMARK VINA RESULT:      -7.6      3.707      9.607
REMARK  10 active torsions:
REMARK  status: ('A' for Active; 'I' for Inactive)
REMARK    1  A    between atoms: C_2  and  C_27 
REMARK    2  A    between atoms: C_2  and  C_21 
REMARK    3  A    between atoms: C_6  and  C_7 
REMARK    4  A    between atoms: C_7  and  C_8 
REMARK    5  A    between atoms: C_8  and  C_9 
REMARK    6  A    between atoms: C_8  and  N_12 
REMARK       I    between atoms: C_9  and  N_13 
REMARK    7  A    between atoms: N_13  and  C_20 
REMARK       I    between atoms: N_14  and  C_29 
REMARK    8  A    between atoms: C_20  and  C_21 
REMARK    9  A    between atoms: C_20  and  C_30 
REMARK       I    between atoms: N_22  and  C_29 
REMARK   10  A    between atoms: N_22  and  C_27 
ROOT
HETATM    1  H           1     -22.514  -6.549  -5.978  0.00  0.00     0.163 HD
HETATM    2  C           1     -20.965  -5.245  -6.406  0.00  0.00     0.249 C 
HETATM    3  O           1     -19.824  -4.942  -6.147  0.00  0.00    -0.271 OA
HETATM    4  N           1     -21.558  -6.296  -5.761  0.00  0.00    -0.345 N 
ENDROOT
BRANCH   4   5
HETATM    5  C           1     -20.817  -7.046  -4.766  0.00  0.00     0.185 C 
BRANCH   5   6
HETATM    6  C           1     -21.721  -7.345  -3.577  0.00  0.00     0.038 C 
BRANCH   6   7
HETATM    7  C           1     -21.655  -6.191  -2.584  0.00  0.00     0.023 C 
BRANCH   7   8
HETATM    8  C           1     -22.281  -6.621  -1.264  0.00  0.00     0.138 C 
BRANCH   8   9
HETATM    9  N           1     -22.082  -8.066  -1.075  0.00  0.00    -0.227 N 
HETATM   10  H           1     -21.425  -8.592  -1.703  0.00  0.00     0.177 HD
HETATM   11  C           1     -22.704  -8.675  -0.156  0.00  0.00     0.665 C 
HETATM   12  N           1     -22.529  -9.953   0.010  0.00  0.00    -0.235 N 
HETATM   13  N           1     -23.496  -8.041   0.600  0.00  0.00    -0.235 N 
HETATM   14  H           1     -21.875 -10.476  -0.615  0.00  0.00     0.174 HD
HETATM   15  H           1     -23.042 -10.456   0.768  0.00  0.00     0.174 HD
HETATM   16  H           1     -24.012  -8.547   1.363  0.00  0.00     0.174 HD
HETATM   17  H           1     -23.638  -7.010   0.466  0.00  0.00     0.174 HD
ENDBRANCH   8   9
ENDBRANCH   7   8
ENDBRANCH   6   7
ENDBRANCH   5   6
BRANCH   5  18
HETATM   18  C           1     -20.339  -8.343  -5.369  0.00  0.00     0.196 C 
HETATM   19  O           1     -19.119  -8.523  -5.579  0.00  0.00    -0.646 OA
HETATM   20  O           1     -21.160  -9.240  -5.659  0.00  0.00    -0.646 OA
ENDBRANCH   5  18
ENDBRANCH   4   5
BRANCH   2  21
HETATM   21  C           1     -21.734  -4.463  -7.443  0.00  0.00     0.278 C 
BRANCH  21  22
HETATM   22  C           1     -21.181  -4.771  -8.827  0.00  0.00     0.081 C 
BRANCH  22  23
HETATM   23  C           1     -22.055  -4.140  -9.867  0.00  0.00    -0.056 A 
HETATM   24  C           1     -21.481  -3.481 -10.953  0.00  0.00     0.007 A 
HETATM   25  C           1     -22.294  -2.892 -11.921  0.00  0.00     0.001 A 
HETATM   26  C           1     -23.682  -2.965 -11.803  0.00  0.00     0.000 A 
HETATM   27  C           1     -24.256  -3.625 -10.716  0.00  0.00     0.001 A 
HETATM   28  C           1     -23.443  -4.213  -9.748  0.00  0.00     0.007 A 
ENDBRANCH  22  23
ENDBRANCH  21  22
BRANCH  21  29
HETATM   29  N           1     -21.596  -2.996  -7.164  0.00  0.00    -0.066 N 
HETATM   30  H           1     -22.265  -2.720  -6.410  0.00  0.00     0.275 HD
HETATM   31  H           1     -20.620  -2.789  -6.855  0.00  0.00     0.275 HD
HETATM   32  H           1     -21.809  -2.456  -8.033  0.00  0.00     0.275 HD
ENDBRANCH  21  29
ENDBRANCH   2  21
TORSDOF 10
ENDMDL
MODEL 4
REMARK VINA RESULT:      -7.5      2.030      3.179
REMARK  10 active torsions:
REMARK  status: ('A' for Active; 'I' for Inactive)
REMARK    1  A    between atoms: C_2  and  C_27 
REMARK    2  A    between atoms: C_2  and  C_21 
REMARK    3  A    between atoms: C_6  and  C_7 
REMARK    4  A    between atoms: C_7  and  C_8 
REMARK    5  A    between atoms: C_8  and  C_9 
REMARK    6  A    between atoms: C_8  and  N_12 
REMARK       I    between atoms: C_9  and  N_13 
REMARK    7  A    between atoms: N_13  and  C_20 
REMARK       I    between atoms: N_14  and  C_29 
REMARK    8  A    between atoms: C_20  and  C_21 
REMARK    9  A    between atoms: C_20  and  C_30 
REMARK       I    between atoms: N_22  and  C_29 
REMARK   10  A    between atoms: N_22  and  C_27 
ROOT
HETATM    1  H           1     -22.858  -4.950  -6.034  0.00  0.00     0.163 HD
HETATM    2  C           1     -21.513  -6.521  -5.978  0.00  0.00     0.249 C 
HETATM    3  O           1     -20.630  -7.092  -6.575  0.00  0.00    -0.271 OA
HETATM    4  N           1     -22.119  -5.427  -6.533  0.00  0.00    -0.345 N 
ENDROOT
BRANCH   4   5
HETATM    5  C           1     -21.701  -4.952  -7.838  0.00  0.00     0.185 C 
BRANCH   5   6
HETATM    6  C           1     -22.921  -4.495  -8.627  0.00  0.00     0.038 C 
BRANCH   6   7
HETATM    7  C           1     -22.475  -3.911  -9.961  0.00  0.00     0.023 C 
BRANCH   7   8
HETATM    8  C           1     -23.412  -4.389 -11.063  0.00  0.00     0.138 C 
BRANCH   8   9
HETATM    9  N           1     -22.770  -4.192 -12.371  0.00  0.00    -0.227 N 
HETATM   10  H           1     -22.005  -4.840 -12.684  0.00  0.00     0.177 HD
HETATM   11  C           1     -23.139  -3.240 -13.120  0.00  0.00     0.665 C 
HETATM   12  N           1     -22.570  -3.065 -14.276  0.00  0.00    -0.235 N 
HETATM   13  N           1     -24.060  -2.458 -12.742  0.00  0.00    -0.235 N 
HETATM   14  H           1     -21.810  -3.711 -14.588  0.00  0.00     0.174 HD
HETATM   15  H           1     -22.875  -2.279 -14.895  0.00  0.00     0.174 HD
HETATM   16  H           1     -24.366  -1.668 -13.364  0.00  0.00     0.174 HD
HETATM   17  H           1     -24.518  -2.599 -11.809  0.00  0.00     0.174 HD
ENDBRANCH   8   9
ENDBRANCH   7   8
ENDBRANCH   6   7
ENDBRANCH   5   6
BRANCH   5  18
HETATM   18  C           1     -20.750  -3.793  -7.669  0.00  0.00     0.196 C 
HETATM   19  O           1     -19.596  -3.856  -8.149  0.00  0.00    -0.646 OA
HETATM   20  O           1     -21.115  -2.769  -7.052  0.00  0.00    -0.646 OA
ENDBRANCH   5  18
ENDBRANCH   4   5
BRANCH   2  21
HETATM   21  C           1     -21.945  -7.017  -4.620  0.00  0.00     0.278 C 
BRANCH  21  22
HETATM   22  C           1     -21.096  -6.357  -3.543  0.00  0.00     0.081 C 
BRANCH  22  23
HETATM   23  C           1     -21.335  -7.038  -2.230  0.00  0.00    -0.056 A 
HETATM   24  C           1     -20.476  -8.050  -1.803  0.00  0.00     0.007 A 
HETATM   25  C           1     -20.699  -8.685  -0.582  0.00  0.00     0.001 A 
HETATM   26  C           1     -21.780  -8.306   0.214  0.00  0.00     0.000 A 
HETATM   27  C           1     -22.640  -7.293  -0.214  0.00  0.00     0.001 A 
HETATM   28  C           1     -22.417  -6.659  -1.436  0.00  0.00     0.007 A 
ENDBRANCH  22  23
ENDBRANCH  21  22
BRANCH  21  29
HETATM   29  N           1     -21.770  -8.505  -4.553  0.00  0.00    -0.066 N 
HETATM   30  H           1     -21.423  -8.857  -5.474  0.00  0.00     0.275 HD
HETATM   31  H           1     -21.079  -8.742  -3.807  0.00  0.00     0.275 HD
HETATM   32  H           1     -22.689  -8.953  -4.334  0.00  0.00     0.275 HD
ENDBRANCH  21  29
ENDBRANCH   2  21
TORSDOF 10
ENDMDL
MODEL 5
REMARK VINA RESULT:      -7.3      2.715      4.261
REMARK  10 active torsions:
REMARK  status: ('A' for Active; 'I' for Inactive)
REMARK    1  A    between atoms: C_2  and  C_27 
REMARK    2  A    between atoms: C_2  and  C_21 
REMARK    3  A    between atoms: C_6  and  C_7 
REMARK    4  A    between atoms: C_7  and  C_8 
REMARK    5  A    between atoms: C_8  and  C_9 
REMARK    6  A    between atoms: C_8  and  N_12 
REMARK       I    between atoms: C_9  and  N_13 
REMARK    7  A    between atoms: N_13  and  C_20 
REMARK       I    between atoms: N_14  and  C_29 
REMARK    8  A    between atoms: C_20  and  C_21 
REMARK    9  A    between atoms: C_20  and  C_30 
REMARK       I    between atoms: N_22  and  C_29 
REMARK   10  A    between atoms: N_22  and  C_27 
ROOT
HETATM    1  H           1     -22.329  -6.476  -5.633  0.00  0.00     0.163 HD
HETATM    2  C           1     -20.689  -7.732  -5.510  0.00  0.00     0.249 C 
HETATM    3  O           1     -19.585  -7.966  -5.943  0.00  0.00    -0.271 OA
HETATM    4  N           1     -21.405  -6.672  -5.996  0.00  0.00    -0.345 N 
ENDROOT
BRANCH   4   5
HETATM    5  C           1     -20.839  -5.828  -7.030  0.00  0.00     0.185 C 
BRANCH   5   6
HETATM    6  C           1     -21.947  -5.018  -7.689  0.00  0.00     0.038 C 
BRANCH   6   7
HETATM    7  C           1     -21.469  -4.506  -9.042  0.00  0.00     0.023 C 
BRANCH   7   8
HETATM    8  C           1     -22.620  -3.811  -9.757  0.00  0.00     0.138 C 
BRANCH   8   9
HETATM    9  N           1     -22.149  -3.287 -11.048  0.00  0.00    -0.227 N 
HETATM   10  H           1     -21.480  -2.477 -11.073  0.00  0.00     0.177 HD
HETATM   11  C           1     -22.550  -3.811 -12.128  0.00  0.00     0.665 C 
HETATM   12  N           1     -22.133  -3.347 -13.269  0.00  0.00    -0.235 N 
HETATM   13  N           1     -23.356  -4.787 -12.096  0.00  0.00    -0.235 N 
HETATM   14  H           1     -21.467  -2.542 -13.295  0.00  0.00     0.174 HD
HETATM   15  H           1     -22.464  -3.780 -14.161  0.00  0.00     0.174 HD
HETATM   16  H           1     -23.688  -5.222 -12.993  0.00  0.00     0.174 HD
HETATM   17  H           1     -23.692  -5.161 -11.176  0.00  0.00     0.174 HD
ENDBRANCH   8   9
ENDBRANCH   7   8
ENDBRANCH   6   7
ENDBRANCH   5   6
BRANCH   5  18
HETATM   18  C           1     -19.829  -4.890  -6.417  0.00  0.00     0.196 C 
HETATM   19  O           1     -18.774  -4.617  -7.031  0.00  0.00    -0.646 OA
HETATM   20  O           1     -20.048  -4.383  -5.295  0.00  0.00    -0.646 OA
ENDBRANCH   5  18
ENDBRANCH   4   5
BRANCH   2  21
HETATM   21  C           1     -21.276  -8.610  -4.432  0.00  0.00     0.278 C 
BRANCH  21  22
HETATM   22  C           1     -20.407  -8.535  -3.184  0.00  0.00     0.081 C 
BRANCH  22  23
HETATM   23  C           1     -21.281  -8.440  -1.972  0.00  0.00    -0.056 A 
HETATM   24  C           1     -21.643  -9.597  -1.282  0.00  0.00     0.007 A 
HETATM   25  C           1     -22.458  -9.509  -0.153  0.00  0.00     0.001 A 
HETATM   26  C           1     -22.909  -8.264   0.286  0.00  0.00     0.000 A 
HETATM   27  C           1     -22.546  -7.107  -0.404  0.00  0.00     0.001 A 
HETATM   28  C           1     -21.733  -7.195  -1.533  0.00  0.00     0.007 A 
ENDBRANCH  22  23
ENDBRANCH  21  22
BRANCH  21  29
HETATM   29  N           1     -21.330 -10.028  -4.919  0.00  0.00    -0.066 N 
HETATM   30  H           1     -22.297 -10.246  -5.251  0.00  0.00     0.275 HD
HETATM   31  H           1     -20.656 -10.152  -5.708  0.00  0.00     0.275 HD
HETATM   32  H           1     -21.077 -10.674  -4.138  0.00  0.00     0.275 HD
ENDBRANCH  21  29
ENDBRANCH   2  21
TORSDOF 10
ENDMDL
MODEL 6
REMARK VINA RESULT:      -7.3      2.631      3.947
REMARK  10 active torsions:
REMARK  status: ('A' for Active; 'I' for Inactive)
REMARK    1  A    between atoms: C_2  and  C_27 
REMARK    2  A    between atoms: C_2  and  C_21 
REMARK    3  A    between atoms: C_6  and  C_7 
REMARK    4  A    between atoms: C_7  and  C_8 
REMARK    5  A    between atoms: C_8  and  C_9 
REMARK    6  A    between atoms: C_8  and  N_12 
REMARK       I    between atoms: C_9  and  N_13 
REMARK    7  A    between atoms: N_13  and  C_20 
REMARK       I    between atoms: N_14  and  C_29 
REMARK    8  A    between atoms: C_20  and  C_21 
REMARK    9  A    between atoms: C_20  and  C_30 
REMARK       I    between atoms: N_22  and  C_29 
REMARK   10  A    between atoms: N_22  and  C_27 
ROOT
HETATM    1  H           1     -20.655  -4.505  -5.794  0.00  0.00     0.163 HD
HETATM    2  C           1     -21.038  -6.534  -5.925  0.00  0.00     0.249 C 
HETATM    3  O           1     -21.365  -7.435  -6.661  0.00  0.00    -0.271 OA
HETATM    4  N           1     -20.928  -5.259  -6.411  0.00  0.00    -0.345 N 
ENDROOT
BRANCH   4   5
HETATM    5  C           1     -21.201  -4.990  -7.809  0.00  0.00     0.185 C 
BRANCH   5   6
HETATM    6  C           1     -22.202  -3.848  -7.921  0.00  0.00     0.038 C 
BRANCH   6   7
HETATM    7  C           1     -23.492  -4.361  -8.549  0.00  0.00     0.023 C 
BRANCH   7   8
HETATM    8  C           1     -23.822  -3.530  -9.782  0.00  0.00     0.138 C 
BRANCH   8   9
HETATM    9  N           1     -22.619  -3.392 -10.616  0.00  0.00    -0.227 N 
HETATM   10  H           1     -21.825  -2.783 -10.296  0.00  0.00     0.177 HD
HETATM   11  C           1     -22.540  -4.006 -11.719  0.00  0.00     0.665 C 
HETATM   12  N           1     -21.476  -3.884 -12.457  0.00  0.00    -0.235 N 
HETATM   13  N           1     -23.497  -4.740 -12.105  0.00  0.00    -0.235 N 
HETATM   14  H           1     -20.686  -3.279 -12.138  0.00  0.00     0.174 HD
HETATM   15  H           1     -21.411  -4.391 -13.368  0.00  0.00     0.174 HD
HETATM   16  H           1     -23.432  -5.250 -13.021  0.00  0.00     0.174 HD
HETATM   17  H           1     -24.355  -4.838 -11.510  0.00  0.00     0.174 HD
ENDBRANCH   8   9
ENDBRANCH   7   8
ENDBRANCH   6   7
ENDBRANCH   5   6
BRANCH   5  18
HETATM   18  C           1     -19.920  -4.603  -8.506  0.00  0.00     0.196 C 
HETATM   19  O           1     -19.856  -4.626  -9.755  0.00  0.00    -0.646 OA
HETATM   20  O           1     -18.923  -4.259  -7.835  0.00  0.00    -0.646 OA
ENDBRANCH   5  18
ENDBRANCH   4   5
BRANCH   2  21
HETATM   21  C           1     -20.753  -6.815  -4.470  0.00  0.00     0.278 C 
BRANCH  21  22
HETATM   22  C           1     -20.830  -8.314  -4.217  0.00  0.00     0.081 C 
BRANCH  22  23
HETATM   23  C           1     -19.446  -8.877  -4.123  0.00  0.00    -0.056 A 
HETATM   24  C           1     -18.818  -8.980  -2.882  0.00  0.00     0.007 A 
HETATM   25  C           1     -17.528  -9.503  -2.793  0.00  0.00     0.001 A 
HETATM   26  C           1     -16.867  -9.926  -3.947  0.00  0.00     0.000 A 
HETATM   27  C           1     -17.495  -9.824  -5.188  0.00  0.00     0.001 A 
HETATM   28  C           1     -18.785  -9.299  -5.276  0.00  0.00     0.007 A 
ENDBRANCH  22  23
ENDBRANCH  21  22
BRANCH  21  29
HETATM   29  N           1     -21.768  -6.111  -3.618  0.00  0.00    -0.066 N 
HETATM   30  H           1     -21.459  -5.128  -3.449  0.00  0.00     0.275 HD
HETATM   31  H           1     -22.691  -6.107  -4.107  0.00  0.00     0.275 HD
HETATM   32  H           1     -21.859  -6.609  -2.704  0.00  0.00     0.275 HD
ENDBRANCH  21  29
ENDBRANCH   2  21
TORSDOF 10
ENDMDL
MODEL 7
REMARK VINA RESULT:      -7.0      4.282      9.267
REMARK  10 active torsions:
REMARK  status: ('A' for Active; 'I' for Inactive)
REMARK    1  A    between atoms: C_2  and  C_27 
REMARK    2  A    between atoms: C_2  and  C_21 
REMARK    3  A    between atoms: C_6  and  C_7 
REMARK    4  A    between atoms: C_7  and  C_8 
REMARK    5  A    between atoms: C_8  and  C_9 
REMARK    6  A    between atoms: C_8  and  N_12 
REMARK       I    between atoms: C_9  and  N_13 
REMARK    7  A    between atoms: N_13  and  C_20 
REMARK       I    between atoms: N_14  and  C_29 
REMARK    8  A    between atoms: C_20  and  C_21 
REMARK    9  A    between atoms: C_20  and  C_30 
REMARK       I    between atoms: N_22  and  C_29 
REMARK   10  A    between atoms: N_22  and  C_27 
ROOT
HETATM    1  H           1     -19.947  -6.635  -4.866  0.00  0.00     0.163 HD
HETATM    2  C           1     -21.635  -5.744  -5.665  0.00  0.00     0.249 C 
HETATM    3  O           1     -22.843  -5.708  -5.639  0.00  0.00    -0.271 OA
HETATM    4  N           1     -20.958  -6.605  -4.844  0.00  0.00    -0.345 N 
ENDROOT
BRANCH   4   5
HETATM    5  C           1     -21.690  -7.473  -3.942  0.00  0.00     0.185 C 
BRANCH   5   6
HETATM    6  C           1     -21.042  -8.851  -3.925  0.00  0.00     0.038 C 
BRANCH   6   7
HETATM    7  C           1     -19.726  -8.804  -4.691  0.00  0.00     0.023 C 
BRANCH   7   8
HETATM    8  C           1     -18.600  -9.307  -3.796  0.00  0.00     0.138 C 
BRANCH   8   9
HETATM    9  N           1     -17.535  -9.886  -4.628  0.00  0.00    -0.227 N 
HETATM   10  H           1     -17.762 -10.274  -5.577  0.00  0.00     0.177 HD
HETATM   11  C           1     -16.344  -9.918  -4.200  0.00  0.00     0.665 C 
HETATM   12  N           1     -15.403 -10.431  -4.936  0.00  0.00    -0.235 N 
HETATM   13  N           1     -16.070  -9.450  -3.056  0.00  0.00    -0.235 N 
HETATM   14  H           1     -15.629 -10.816  -5.880  0.00  0.00     0.174 HD
HETATM   15  H           1     -14.419 -10.457  -4.582  0.00  0.00     0.174 HD
HETATM   16  H           1     -15.082  -9.476  -2.701  0.00  0.00     0.174 HD
HETATM   17  H           1     -16.830  -9.037  -2.462  0.00  0.00     0.174 HD
ENDBRANCH   8   9
ENDBRANCH   7   8
ENDBRANCH   6   7
ENDBRANCH   5   6
BRANCH   5  18
HETATM   18  C           1     -21.662  -6.890  -2.551  0.00  0.00     0.196 C 
HETATM   19  O           1     -22.422  -5.942  -2.255  0.00  0.00    -0.646 OA
HETATM   20  O           1     -20.881  -7.354  -1.693  0.00  0.00    -0.646 OA
ENDBRANCH   5  18
ENDBRANCH   4   5
BRANCH   2  21
HETATM   21  C           1     -20.875  -4.840  -6.603  0.00  0.00     0.278 C 
BRANCH  21  22
HETATM   22  C           1     -20.626  -5.564  -7.919  0.00  0.00     0.081 C 
BRANCH  22  23
HETATM   23  C           1     -21.155  -4.740  -9.051  0.00  0.00    -0.056 A 
HETATM   24  C           1     -22.481  -4.308  -9.039  0.00  0.00     0.007 A 
HETATM   25  C           1     -22.975  -3.541 -10.094  0.00  0.00     0.001 A 
HETATM   26  C           1     -22.142  -3.205 -11.161  0.00  0.00     0.000 A 
HETATM   27  C           1     -20.815  -3.637 -11.173  0.00  0.00     0.001 A 
HETATM   28  C           1     -20.322  -4.404 -10.118  0.00  0.00     0.007 A 
ENDBRANCH  22  23
ENDBRANCH  21  22
BRANCH  21  29
HETATM   29  N           1     -19.561  -4.467  -5.981  0.00  0.00    -0.066 N 
HETATM   30  H           1     -19.492  -3.427  -5.911  0.00  0.00     0.275 HD
HETATM   31  H           1     -19.497  -4.885  -5.025  0.00  0.00     0.275 HD
HETATM   32  H           1     -18.781  -4.829  -6.574  0.00  0.00     0.275 HD
ENDBRANCH  21  29
ENDBRANCH   2  21
TORSDOF 10
ENDMDL
MODEL 8
REMARK VINA RESULT:      -7.0      5.059      9.744
REMARK  10 active torsions:
REMARK  status: ('A' for Active; 'I' for Inactive)
REMARK    1  A    between atoms: C_2  and  C_27 
REMARK    2  A    between atoms: C_2  and  C_21 
REMARK    3  A    between atoms: C_6  and  C_7 
REMARK    4  A    between atoms: C_7  and  C_8 
REMARK    5  A    between atoms: C_8  and  C_9 
REMARK    6  A    between atoms: C_8  and  N_12 
REMARK       I    between atoms: C_9  and  N_13 
REMARK    7  A    between atoms: N_13  and  C_20 
REMARK       I    between atoms: N_14  and  C_29 
REMARK    8  A    between atoms: C_20  and  C_21 
REMARK    9  A    between atoms: C_20  and  C_30 
REMARK       I    between atoms: N_22  and  C_29 
REMARK   10  A    between atoms: N_22  and  C_27 
ROOT
HETATM    1  H           1     -21.234  -8.036  -4.044  0.00  0.00     0.163 HD
HETATM    2  C           1     -20.369  -7.186  -5.720  0.00  0.00     0.249 C 
HETATM    3  O           1     -19.440  -7.240  -6.491  0.00  0.00    -0.271 OA
HETATM    4  N           1     -20.456  -8.082  -4.689  0.00  0.00    -0.345 N 
ENDROOT
BRANCH   4   5
HETATM    5  C           1     -19.434  -9.096  -4.521  0.00  0.00     0.185 C 
BRANCH   5   6
HETATM    6  C           1     -19.064  -9.206  -3.048  0.00  0.00     0.038 C 
BRANCH   6   7
HETATM    7  C           1     -20.009  -8.345  -2.220  0.00  0.00     0.023 C 
BRANCH   7   8
HETATM    8  C           1     -20.736  -9.220  -1.207  0.00  0.00     0.138 C 
BRANCH   8   9
HETATM    9  N           1     -21.614  -8.382  -0.377  0.00  0.00    -0.227 N 
HETATM   10  H           1     -21.284  -7.440  -0.050  0.00  0.00     0.177 HD
HETATM   11  C           1     -22.766  -8.796  -0.057  0.00  0.00     0.665 C 
HETATM   12  N           1     -23.542  -8.054   0.678  0.00  0.00    -0.235 N 
HETATM   13  N           1     -23.163  -9.931  -0.451  0.00  0.00    -0.235 N 
HETATM   14  H           1     -23.214  -7.117   1.003  0.00  0.00     0.174 HD
HETATM   15  H           1     -24.494  -8.396   0.943  0.00  0.00     0.174 HD
HETATM   16  H           1     -24.120 -10.275  -0.185  0.00  0.00     0.174 HD
HETATM   17  H           1     -22.537 -10.529  -1.043  0.00  0.00     0.174 HD
ENDBRANCH   8   9
ENDBRANCH   7   8
ENDBRANCH   6   7
ENDBRANCH   5   6
BRANCH   5  18
HETATM   18  C           1     -19.959 -10.424  -5.007  0.00  0.00     0.196 C 
HETATM   19  O           1     -19.675 -11.473  -4.389  0.00  0.00    -0.646 OA
HETATM   20  O           1     -20.681 -10.476  -6.026  0.00  0.00    -0.646 OA
ENDBRANCH   5  18
ENDBRANCH   4   5
BRANCH   2  21
HETATM   21  C           1     -21.433  -6.131  -5.897  0.00  0.00     0.278 C 
BRANCH  21  22
HETATM   22  C           1     -20.780  -4.806  -6.266  0.00  0.00     0.081 C 
BRANCH  22  23
HETATM   23  C           1     -21.123  -4.458  -7.682  0.00  0.00    -0.056 A 
HETATM   24  C           1     -20.139  -4.509  -8.670  0.00  0.00     0.007 A 
HETATM   25  C           1     -20.457  -4.184  -9.989  0.00  0.00     0.001 A 
HETATM   26  C           1     -21.760  -3.810 -10.319  0.00  0.00     0.000 A 
HETATM   27  C           1     -22.744  -3.759  -9.331  0.00  0.00     0.001 A 
HETATM   28  C           1     -22.425  -4.083  -8.012  0.00  0.00     0.007 A 
ENDBRANCH  22  23
ENDBRANCH  21  22
BRANCH  21  29
HETATM   29  N           1     -22.195  -5.972  -4.614  0.00  0.00    -0.066 N 
HETATM   30  H           1     -22.696  -5.055  -4.617  0.00  0.00     0.275 HD
HETATM   31  H           1     -22.889  -6.748  -4.522  0.00  0.00     0.275 HD
HETATM   32  H           1     -21.529  -6.001  -3.809  0.00  0.00     0.275 HD
ENDBRANCH  21  29
ENDBRANCH   2  21
TORSDOF 10
ENDMDL
MODEL 9
REMARK VINA RESULT:      -6.7      3.988      9.705
REMARK  10 active torsions:
REMARK  status: ('A' for Active; 'I' for Inactive)
REMARK    1  A    between atoms: C_2  and  C_27 
REMARK    2  A    between atoms: C_2  and  C_21 
REMARK    3  A    between atoms: C_6  and  C_7 
REMARK    4  A    between atoms: C_7  and  C_8 
REMARK    5  A    between atoms: C_8  and  C_9 
REMARK    6  A    between atoms: C_8  and  N_12 
REMARK       I    between atoms: C_9  and  N_13 
REMARK    7  A    between atoms: N_13  and  C_20 
REMARK       I    between atoms: N_14  and  C_29 
REMARK    8  A    between atoms: C_20  and  C_21 
REMARK    9  A    between atoms: C_20  and  C_30 
REMARK       I    between atoms: N_22  and  C_29 
REMARK   10  A    between atoms: N_22  and  C_27 
ROOT
HETATM    1  H           1     -19.725  -6.859  -4.903  0.00  0.00     0.163 HD
HETATM    2  C           1     -21.328  -5.827  -5.708  0.00  0.00     0.249 C 
HETATM    3  O           1     -22.527  -5.676  -5.674  0.00  0.00    -0.271 OA
HETATM    4  N           1     -20.728  -6.732  -4.874  0.00  0.00    -0.345 N 
ENDROOT
BRANCH   4   5
HETATM    5  C           1     -21.531  -7.510  -3.951  0.00  0.00     0.185 C 
BRANCH   5   6
HETATM    6  C           1     -20.950  -8.911  -3.827  0.00  0.00     0.038 C 
BRANCH   6   7
HETATM    7  C           1     -22.082  -9.927  -3.741  0.00  0.00     0.023 C 
BRANCH   7   8
HETATM    8  C           1     -21.952 -10.724  -2.449  0.00  0.00     0.138 C 
BRANCH   8   9
HETATM    9  N           1     -22.483  -9.932  -1.330  0.00  0.00    -0.227 N 
HETATM   10  H           1     -23.464  -9.561  -1.368  0.00  0.00     0.177 HD
HETATM   11  C           1     -21.756  -9.697  -0.320  0.00  0.00     0.665 C 
HETATM   12  N           1     -22.225  -8.996   0.669  0.00  0.00    -0.235 N 
HETATM   13  N           1     -20.572 -10.144  -0.275  0.00  0.00    -0.235 N 
HETATM   14  H           1     -23.202  -8.627   0.632  0.00  0.00     0.174 HD
HETATM   15  H           1     -21.625  -8.801   1.503  0.00  0.00     0.174 HD
HETATM   16  H           1     -19.969  -9.948   0.563  0.00  0.00     0.174 HD
HETATM   17  H           1     -20.194 -10.709  -1.074  0.00  0.00     0.174 HD
ENDBRANCH   8   9
ENDBRANCH   7   8
ENDBRANCH   6   7
ENDBRANCH   5   6
BRANCH   5  18
HETATM   18  C           1     -21.525  -6.843  -2.597  0.00  0.00     0.196 C 
HETATM   19  O           1     -22.321  -5.910  -2.355  0.00  0.00    -0.646 OA
HETATM   20  O           1     -20.724  -7.225  -1.716  0.00  0.00    -0.646 OA
ENDBRANCH   5  18
ENDBRANCH   4   5
BRANCH   2  21
HETATM   21  C           1     -20.494  -5.017  -6.669  0.00  0.00     0.278 C 
BRANCH  21  22
HETATM   22  C           1     -21.329  -3.875  -7.231  0.00  0.00     0.081 C 
BRANCH  22  23
HETATM   23  C           1     -21.503  -4.062  -8.707  0.00  0.00    -0.056 A 
HETATM   24  C           1     -20.437  -3.814  -9.571  0.00  0.00     0.007 A 
HETATM   25  C           1     -20.599  -3.987 -10.946  0.00  0.00     0.001 A 
HETATM   26  C           1     -21.827  -4.409 -11.455  0.00  0.00     0.000 A 
HETATM   27  C           1     -22.893  -4.657 -10.590  0.00  0.00     0.001 A 
HETATM   28  C           1     -22.732  -4.484  -9.216  0.00  0.00     0.007 A 
ENDBRANCH  22  23
ENDBRANCH  21  22
BRANCH  21  29
HETATM   29  N           1     -20.031  -5.898  -7.792  0.00  0.00    -0.066 N 
HETATM   30  H           1     -19.320  -6.575  -7.434  0.00  0.00     0.275 HD
HETATM   31  H           1     -20.846  -6.423  -8.182  0.00  0.00     0.275 HD
HETATM   32  H           1     -19.604  -5.309  -8.542  0.00  0.00     0.275 HD
ENDBRANCH  21  29
ENDBRANCH   2  21
TORSDOF 10
ENDMDL
