MODEL 1
REMARK VINA RESULT:      -6.4      0.000      0.000
REMARK  7 active torsions:
REMARK  status: ('A' for Active; 'I' for Inactive)
REMARK       I    between atoms: C_1  and  N_7 
REMARK    1  A    between atoms: C_1  and  C_9 
REMARK    2  A    between atoms: N_7  and  C_17 
REMARK    3  A    between atoms: C_9  and  N_10 
REMARK    4  A    between atoms: C_11  and  C_17 
REMARK    5  A    between atoms: C_13  and  C_15 
REMARK    6  A    between atoms: C_15  and  C_16 
REMARK    7  A    between atoms: C_16  and  C_17 
ROOT
HETATM    1  C           1     -23.469  -2.097 -14.325  0.00  0.00     0.243 C 
HETATM    2  N           1     -23.552  -2.183 -12.961  0.00  0.00    -0.345 N 
HETATM    3  H           1     -24.016  -1.454 -12.435  0.00  0.00     0.163 HD
HETATM    4  O           1     -22.915  -2.967 -14.953  0.00  0.00    -0.272 OA
ENDROOT
BRANCH   2   5
HETATM    5  C           1     -22.972  -3.319 -12.271  0.00  0.00     0.186 C 
BRANCH   5   6
HETATM    6  C           1     -24.006  -3.930 -11.356  0.00  0.00     0.196 C 
HETATM    7  O           1     -24.945  -3.232 -10.921  0.00  0.00    -0.646 OA
HETATM    8  O           1     -23.922  -5.136 -11.036  0.00  0.00    -0.646 OA
ENDBRANCH   5   6
BRANCH   5   9
HETATM    9  C           1     -21.776  -2.855 -11.449  0.00  0.00     0.046 C 
BRANCH   9  10
HETATM   10  C           1     -20.866  -4.042 -11.161  0.00  0.00     0.116 C 
BRANCH  10  11
HETATM   11  C           1     -20.748  -4.236  -9.669  0.00  0.00     0.172 C 
HETATM   12  O           1     -19.749  -4.814  -9.190  0.00  0.00    -0.648 OA
HETATM   13  O           1     -21.650  -3.817  -8.911  0.00  0.00    -0.648 OA
ENDBRANCH  10  11
ENDBRANCH   9  10
ENDBRANCH   5   9
ENDBRANCH   2   5
BRANCH   1  14
HETATM   14  C           1     -24.071  -0.914 -15.044  0.00  0.00     0.332 C 
BRANCH  14  15
HETATM   15  N           1     -23.088  -0.383 -16.045  0.00  0.00    -0.071 N 
HETATM   16  H           1     -22.434   0.280 -15.573  0.00  0.00     0.274 HD
HETATM   17  H           1     -22.544  -1.177 -16.453  0.00  0.00     0.274 HD
HETATM   18  H           1     -23.601   0.116 -16.807  0.00  0.00     0.274 HD
ENDBRANCH  14  15
ENDBRANCH   1  14
TORSDOF 7
ENDMDL
MODEL 2
REMARK VINA RESULT:      -6.1     12.488     14.455
REMARK  7 active torsions:
REMARK  status: ('A' for Active; 'I' for Inactive)
REMARK       I    between atoms: C_1  and  N_7 
REMARK    1  A    between atoms: C_1  and  C_9 
REMARK    2  A    between atoms: N_7  and  C_17 
REMARK    3  A    between atoms: C_9  and  N_10 
REMARK    4  A    between atoms: C_11  and  C_17 
REMARK    5  A    between atoms: C_13  and  C_15 
REMARK    6  A    between atoms: C_15  and  C_16 
REMARK    7  A    between atoms: C_16  and  C_17 
ROOT
HETATM    1  C           1     -37.276  -0.002 -10.965  0.00  0.00     0.243 C 
HETATM    2  N           1     -36.096   0.175 -11.636  0.00  0.00    -0.345 N 
HETATM    3  H           1     -35.430   0.865 -11.315  0.00  0.00     0.163 HD
HETATM    4  O           1     -38.071  -0.827 -11.347  0.00  0.00    -0.272 OA
ENDROOT
BRANCH   2   5
HETATM    5  C           1     -35.802  -0.627 -12.807  0.00  0.00     0.186 C 
BRANCH   5   6
HETATM    6  C           1     -34.767  -1.668 -12.456  0.00  0.00     0.196 C 
HETATM    7  O           1     -34.576  -2.641 -13.217  0.00  0.00    -0.646 OA
HETATM    8  O           1     -34.099  -1.556 -11.405  0.00  0.00    -0.646 OA
ENDBRANCH   5   6
BRANCH   5   9
HETATM    9  C           1     -35.265   0.272 -13.914  0.00  0.00     0.046 C 
BRANCH   9  10
HETATM   10  C           1     -36.317   0.418 -15.006  0.00  0.00     0.116 C 
BRANCH  10  11
HETATM   11  C           1     -36.015  -0.545 -16.128  0.00  0.00     0.172 C 
HETATM   12  O           1     -34.922  -1.151 -16.155  0.00  0.00    -0.648 OA
HETATM   13  O           1     -36.858  -0.737 -17.031  0.00  0.00    -0.648 OA
ENDBRANCH  10  11
ENDBRANCH   9  10
ENDBRANCH   5   9
ENDBRANCH   2   5
BRANCH   1  14
HETATM   14  C           1     -37.583   0.833  -9.745  0.00  0.00     0.332 C 
BRANCH  14  15
HETATM   15  N           1     -36.301   1.256  -9.093  0.00  0.00    -0.071 N 
HETATM   16  H           1     -35.759   0.409  -8.806  0.00  0.00     0.274 HD
HETATM   17  H           1     -35.734   1.817  -9.769  0.00  0.00     0.274 HD
HETATM   18  H           1     -36.513   1.836  -8.250  0.00  0.00     0.274 HD
ENDBRANCH  14  15
ENDBRANCH   1  14
TORSDOF 7
ENDMDL
MODEL 3
REMARK VINA RESULT:      -6.0     11.653     12.864
REMARK  7 active torsions:
REMARK  status: ('A' for Active; 'I' for Inactive)
REMARK       I    between atoms: C_1  and  N_7 
REMARK    1  A    between atoms: C_1  and  C_9 
REMARK    2  A    between atoms: N_7  and  C_17 
REMARK    3  A    between atoms: C_9  and  N_10 
REMARK    4  A    between atoms: C_11  and  C_17 
REMARK    5  A    between atoms: C_13  and  C_15 
REMARK    6  A    between atoms: C_15  and  C_16 
REMARK    7  A    between atoms: C_16  and  C_17 
ROOT
HETATM    1  C           1     -35.254  -0.215 -13.439  0.00  0.00     0.243 C 
HETATM    2  N           1     -34.831  -0.480 -12.164  0.00  0.00    -0.345 N 
HETATM    3  H           1     -34.135   0.111 -11.729  0.00  0.00     0.163 HD
HETATM    4  O           1     -36.086  -0.919 -13.958  0.00  0.00    -0.272 OA
ENDROOT
BRANCH   2   5
HETATM    5  C           1     -35.382  -1.607 -11.438  0.00  0.00     0.186 C 
BRANCH   5   6
HETATM    6  C           1     -36.443  -1.119 -10.482  0.00  0.00     0.196 C 
HETATM    7  O           1     -36.113  -0.614  -9.388  0.00  0.00    -0.646 OA
HETATM    8  O           1     -37.652  -1.220 -10.786  0.00  0.00    -0.646 OA
ENDBRANCH   5   6
BRANCH   5   9
HETATM    9  C           1     -34.271  -2.297 -10.656  0.00  0.00     0.046 C 
BRANCH   9  10
HETATM   10  C           1     -33.371  -3.061 -11.618  0.00  0.00     0.116 C 
BRANCH  10  11
HETATM   11  C           1     -34.220  -3.904 -12.539  0.00  0.00     0.172 C 
HETATM   12  O           1     -34.908  -4.838 -12.075  0.00  0.00    -0.648 OA
HETATM   13  O           1     -34.234  -3.667 -13.767  0.00  0.00    -0.648 OA
ENDBRANCH  10  11
ENDBRANCH   9  10
ENDBRANCH   5   9
ENDBRANCH   2   5
BRANCH   1  14
HETATM   14  C           1     -34.681   0.959 -14.195  0.00  0.00     0.332 C 
BRANCH  14  15
HETATM   15  N           1     -35.715   1.501 -15.137  0.00  0.00    -0.071 N 
HETATM   16  H           1     -36.213   2.301 -14.686  0.00  0.00     0.274 HD
HETATM   17  H           1     -35.249   1.831 -16.013  0.00  0.00     0.274 HD
HETATM   18  H           1     -36.402   0.749 -15.370  0.00  0.00     0.274 HD
ENDBRANCH  14  15
ENDBRANCH   1  14
TORSDOF 7
ENDMDL
MODEL 4
REMARK VINA RESULT:      -5.9      2.927      5.771
REMARK  7 active torsions:
REMARK  status: ('A' for Active; 'I' for Inactive)
REMARK       I    between atoms: C_1  and  N_7 
REMARK    1  A    between atoms: C_1  and  C_9 
REMARK    2  A    between atoms: N_7  and  C_17 
REMARK    3  A    between atoms: C_9  and  N_10 
REMARK    4  A    between atoms: C_11  and  C_17 
REMARK    5  A    between atoms: C_13  and  C_15 
REMARK    6  A    between atoms: C_15  and  C_16 
REMARK    7  A    between atoms: C_16  and  C_17 
ROOT
HETATM    1  C           1     -21.524  -4.441  -8.113  0.00  0.00     0.243 C 
HETATM    2  N           1     -22.029  -4.735  -9.351  0.00  0.00    -0.345 N 
HETATM    3  H           1     -21.917  -5.664  -9.736  0.00  0.00     0.163 HD
HETATM    4  O           1     -21.658  -3.333  -7.652  0.00  0.00    -0.272 OA
ENDROOT
BRANCH   2   5
HETATM    5  C           1     -22.725  -3.714 -10.110  0.00  0.00     0.186 C 
BRANCH   5   6
HETATM    6  C           1     -24.207  -3.811  -9.842  0.00  0.00     0.196 C 
HETATM    7  O           1     -24.849  -2.793  -9.508  0.00  0.00    -0.646 OA
HETATM    8  O           1     -24.792  -4.910  -9.956  0.00  0.00    -0.646 OA
ENDBRANCH   5   6
BRANCH   5   9
HETATM    9  C           1     -22.461  -3.921 -11.596  0.00  0.00     0.046 C 
BRANCH   9  10
HETATM   10  C           1     -22.747  -2.627 -12.348  0.00  0.00     0.116 C 
BRANCH  10  11
HETATM   11  C           1     -23.804  -2.877 -13.396  0.00  0.00     0.172 C 
HETATM   12  O           1     -25.010  -2.917 -13.071  0.00  0.00    -0.648 OA
HETATM   13  O           1     -23.473  -3.045 -14.590  0.00  0.00    -0.648 OA
ENDBRANCH  10  11
ENDBRANCH   9  10
ENDBRANCH   5   9
ENDBRANCH   2   5
BRANCH   1  14
HETATM   14  C           1     -20.800  -5.504  -7.322  0.00  0.00     0.332 C 
BRANCH  14  15
HETATM   15  N           1     -19.724  -4.866  -6.495  0.00  0.00    -0.071 N 
HETATM   16  H           1     -20.142  -4.125  -5.890  0.00  0.00     0.274 HD
HETATM   17  H           1     -19.271  -5.591  -5.893  0.00  0.00     0.274 HD
HETATM   18  H           1     -19.007  -4.439  -7.124  0.00  0.00     0.274 HD
ENDBRANCH  14  15
ENDBRANCH   1  14
TORSDOF 7
ENDMDL
MODEL 5
REMARK VINA RESULT:      -5.6      4.206      7.117
REMARK  7 active torsions:
REMARK  status: ('A' for Active; 'I' for Inactive)
REMARK       I    between atoms: C_1  and  N_7 
REMARK    1  A    between atoms: C_1  and  C_9 
REMARK    2  A    between atoms: N_7  and  C_17 
REMARK    3  A    between atoms: C_9  and  N_10 
REMARK    4  A    between atoms: C_11  and  C_17 
REMARK    5  A    between atoms: C_13  and  C_15 
REMARK    6  A    between atoms: C_15  and  C_16 
REMARK    7  A    between atoms: C_16  and  C_17 
ROOT
HETATM    1  C           1     -21.213  -5.862  -6.202  0.00  0.00     0.243 C 
HETATM    2  N           1     -21.481  -4.712  -6.894  0.00  0.00    -0.345 N 
HETATM    3  H           1     -21.573  -3.834  -6.400  0.00  0.00     0.163 HD
HETATM    4  O           1     -21.103  -6.910  -6.791  0.00  0.00    -0.272 OA
ENDROOT
BRANCH   2   5
HETATM    5  C           1     -21.634  -4.753  -8.335  0.00  0.00     0.186 C 
BRANCH   5   6
HETATM    6  C           1     -20.332  -4.360  -8.990  0.00  0.00     0.196 C 
HETATM    7  O           1     -19.457  -3.762  -8.329  0.00  0.00    -0.646 OA
HETATM    8  O           1     -20.130  -4.634 -10.193  0.00  0.00    -0.646 OA
ENDBRANCH   5   6
BRANCH   5   9
HETATM    9  C           1     -22.729  -3.781  -8.755  0.00  0.00     0.046 C 
BRANCH   9  10
HETATM   10  C           1     -23.679  -4.473  -9.725  0.00  0.00     0.116 C 
BRANCH  10  11
HETATM   11  C           1     -24.548  -3.440 -10.401  0.00  0.00     0.172 C 
HETATM   12  O           1     -24.130  -2.837 -11.413  0.00  0.00    -0.648 OA
HETATM   13  O           1     -25.686  -3.188  -9.949  0.00  0.00    -0.648 OA
ENDBRANCH  10  11
ENDBRANCH   9  10
ENDBRANCH   5   9
ENDBRANCH   2   5
BRANCH   1  14
HETATM   14  C           1     -21.054  -5.820  -4.701  0.00  0.00     0.332 C 
BRANCH  14  15
HETATM   15  N           1     -22.328  -6.268  -4.050  0.00  0.00    -0.071 N 
HETATM   16  H           1     -22.460  -5.754  -3.149  0.00  0.00     0.274 HD
HETATM   17  H           1     -23.133  -6.067  -4.685  0.00  0.00     0.274 HD
HETATM   18  H           1     -22.281  -7.295  -3.861  0.00  0.00     0.274 HD
ENDBRANCH  14  15
ENDBRANCH   1  14
TORSDOF 7
ENDMDL
MODEL 6
REMARK VINA RESULT:      -5.3      8.083      9.734
REMARK  7 active torsions:
REMARK  status: ('A' for Active; 'I' for Inactive)
REMARK       I    between atoms: C_1  and  N_7 
REMARK    1  A    between atoms: C_1  and  C_9 
REMARK    2  A    between atoms: N_7  and  C_17 
REMARK    3  A    between atoms: C_9  and  N_10 
REMARK    4  A    between atoms: C_11  and  C_17 
REMARK    5  A    between atoms: C_13  and  C_15 
REMARK    6  A    between atoms: C_15  and  C_16 
REMARK    7  A    between atoms: C_16  and  C_17 
ROOT
HETATM    1  C           1     -26.441  -6.353 -18.250  0.00  0.00     0.243 C 
HETATM    2  N           1     -27.782  -6.583 -18.402  0.00  0.00    -0.345 N 
HETATM    3  H           1     -28.135  -6.959 -19.273  0.00  0.00     0.163 HD
HETATM    4  O           1     -26.019  -5.906 -17.210  0.00  0.00    -0.272 OA
ENDROOT
BRANCH   2   5
HETATM    5  C           1     -28.696  -6.289 -17.316  0.00  0.00     0.186 C 
BRANCH   5   6
HETATM    6  C           1     -28.801  -7.491 -16.408  0.00  0.00     0.196 C 
HETATM    7  O           1     -29.413  -8.510 -16.791  0.00  0.00    -0.646 OA
HETATM    8  O           1     -28.274  -7.466 -15.275  0.00  0.00    -0.646 OA
ENDBRANCH   5   6
BRANCH   5   9
HETATM    9  C           1     -30.070  -5.960 -17.885  0.00  0.00     0.046 C 
BRANCH   9  10
HETATM   10  C           1     -31.002  -5.543 -16.755  0.00  0.00     0.116 C 
BRANCH  10  11
HETATM   11  C           1     -31.678  -4.242 -17.115  0.00  0.00     0.172 C 
HETATM   12  O           1     -32.832  -4.001 -16.700  0.00  0.00    -0.648 OA
HETATM   13  O           1     -31.083  -3.405 -17.828  0.00  0.00    -0.648 OA
ENDBRANCH  10  11
ENDBRANCH   9  10
ENDBRANCH   5   9
ENDBRANCH   2   5
BRANCH   1  14
HETATM   14  C           1     -25.489  -6.659 -19.381  0.00  0.00     0.332 C 
BRANCH  14  15
HETATM   15  N           1     -24.329  -7.451 -18.857  0.00  0.00    -0.071 N 
HETATM   16  H           1     -24.085  -8.205 -19.538  0.00  0.00     0.274 HD
HETATM   17  H           1     -23.505  -6.820 -18.729  0.00  0.00     0.274 HD
HETATM   18  H           1     -24.585  -7.881 -17.939  0.00  0.00     0.274 HD
ENDBRANCH  14  15
ENDBRANCH   1  14
TORSDOF 7
ENDMDL
MODEL 7
REMARK VINA RESULT:      -5.2      3.403      5.227
REMARK  7 active torsions:
REMARK  status: ('A' for Active; 'I' for Inactive)
REMARK       I    between atoms: C_1  and  N_7 
REMARK    1  A    between atoms: C_1  and  C_9 
REMARK    2  A    between atoms: N_7  and  C_17 
REMARK    3  A    between atoms: C_9  and  N_10 
REMARK    4  A    between atoms: C_11  and  C_17 
REMARK    5  A    between atoms: C_13  and  C_15 
REMARK    6  A    between atoms: C_15  and  C_16 
REMARK    7  A    between atoms: C_16  and  C_17 
ROOT
HETATM    1  C           1     -22.365  -4.281  -7.825  0.00  0.00     0.243 C 
HETATM    2  N           1     -23.336  -4.484  -8.768  0.00  0.00    -0.345 N 
HETATM    3  H           1     -24.087  -5.138  -8.588  0.00  0.00     0.163 HD
HETATM    4  O           1     -21.469  -3.500  -8.040  0.00  0.00    -0.272 OA
ENDROOT
BRANCH   2   5
HETATM    5  C           1     -23.288  -3.763 -10.025  0.00  0.00     0.186 C 
BRANCH   5   6
HETATM    6  C           1     -24.656  -3.204 -10.335  0.00  0.00     0.196 C 
HETATM    7  O           1     -25.384  -2.787  -9.409  0.00  0.00    -0.646 OA
HETATM    8  O           1     -25.058  -3.157 -11.518  0.00  0.00    -0.646 OA
ENDBRANCH   5   6
BRANCH   5   9
HETATM    9  C           1     -22.863  -4.713 -11.137  0.00  0.00     0.046 C 
BRANCH   9  10
HETATM   10  C           1     -21.846  -4.021 -12.035  0.00  0.00     0.116 C 
BRANCH  10  11
HETATM   11  C           1     -20.570  -3.787 -11.263  0.00  0.00     0.172 C 
HETATM   12  O           1     -20.134  -2.625 -11.113  0.00  0.00    -0.648 OA
HETATM   13  O           1     -19.949  -4.756 -10.773  0.00  0.00    -0.648 OA
ENDBRANCH  10  11
ENDBRANCH   9  10
ENDBRANCH   5   9
ENDBRANCH   2   5
BRANCH   1  14
HETATM   14  C           1     -22.414  -5.032  -6.517  0.00  0.00     0.332 C 
BRANCH  14  15
HETATM   15  N           1     -21.033  -5.483  -6.147  0.00  0.00    -0.071 N 
HETATM   16  H           1     -21.068  -6.015  -5.248  0.00  0.00     0.274 HD
HETATM   17  H           1     -20.654  -6.101  -6.900  0.00  0.00     0.274 HD
HETATM   18  H           1     -20.411  -4.650  -6.035  0.00  0.00     0.274 HD
ENDBRANCH  14  15
ENDBRANCH   1  14
TORSDOF 7
ENDMDL
MODEL 8
REMARK VINA RESULT:      -5.2      3.278      6.321
REMARK  7 active torsions:
REMARK  status: ('A' for Active; 'I' for Inactive)
REMARK       I    between atoms: C_1  and  N_7 
REMARK    1  A    between atoms: C_1  and  C_9 
REMARK    2  A    between atoms: N_7  and  C_17 
REMARK    3  A    between atoms: C_9  and  N_10 
REMARK    4  A    between atoms: C_11  and  C_17 
REMARK    5  A    between atoms: C_13  and  C_15 
REMARK    6  A    between atoms: C_15  and  C_16 
REMARK    7  A    between atoms: C_16  and  C_17 
ROOT
HETATM    1  C           1     -21.042  -4.841  -7.536  0.00  0.00     0.243 C 
HETATM    2  N           1     -21.521  -3.934  -8.442  0.00  0.00    -0.345 N 
HETATM    3  H           1     -21.668  -2.972  -8.166  0.00  0.00     0.163 HD
HETATM    4  O           1     -20.867  -5.989  -7.866  0.00  0.00    -0.272 OA
ENDROOT
BRANCH   2   5
HETATM    5  C           1     -21.820  -4.352  -9.798  0.00  0.00     0.186 C 
BRANCH   5   6
HETATM    6  C           1     -20.701  -3.919 -10.714  0.00  0.00     0.196 C 
HETATM    7  O           1     -19.774  -4.711 -10.984  0.00  0.00    -0.646 OA
HETATM    8  O           1     -20.704  -2.768 -11.204  0.00  0.00    -0.646 OA
ENDBRANCH   5   6
BRANCH   5   9
HETATM    9  C           1     -23.125  -3.710 -10.250  0.00  0.00     0.046 C 
BRANCH   9  10
HETATM   10  C           1     -23.658  -4.448 -11.472  0.00  0.00     0.116 C 
BRANCH  10  11
HETATM   11  C           1     -24.043  -3.447 -12.535  0.00  0.00     0.172 C 
HETATM   12  O           1     -23.206  -3.094 -13.393  0.00  0.00    -0.648 OA
HETATM   13  O           1     -25.199  -2.972 -12.556  0.00  0.00    -0.648 OA
ENDBRANCH  10  11
ENDBRANCH   9  10
ENDBRANCH   5   9
ENDBRANCH   2   5
BRANCH   1  14
HETATM   14  C           1     -20.732  -4.406  -6.125  0.00  0.00     0.332 C 
BRANCH  14  15
HETATM   15  N           1     -20.631  -5.613  -5.240  0.00  0.00    -0.071 N 
HETATM   16  H           1     -20.795  -6.476  -5.806  0.00  0.00     0.274 HD
HETATM   17  H           1     -19.677  -5.654  -4.814  0.00  0.00     0.274 HD
HETATM   18  H           1     -21.348  -5.552  -4.482  0.00  0.00     0.274 HD
ENDBRANCH  14  15
ENDBRANCH   1  14
TORSDOF 7
ENDMDL
MODEL 9
REMARK VINA RESULT:      -5.0      6.058      8.190
REMARK  7 active torsions:
REMARK  status: ('A' for Active; 'I' for Inactive)
REMARK       I    between atoms: C_1  and  N_7 
REMARK    1  A    between atoms: C_1  and  C_9 
REMARK    2  A    between atoms: N_7  and  C_17 
REMARK    3  A    between atoms: C_9  and  N_10 
REMARK    4  A    between atoms: C_11  and  C_17 
REMARK    5  A    between atoms: C_13  and  C_15 
REMARK    6  A    between atoms: C_15  and  C_16 
REMARK    7  A    between atoms: C_16  and  C_17 
ROOT
HETATM    1  C           1     -21.448  -4.515  -6.961  0.00  0.00     0.243 C 
HETATM    2  N           1     -22.003  -5.549  -6.257  0.00  0.00    -0.345 N 
HETATM    3  H           1     -22.945  -5.853  -6.463  0.00  0.00     0.163 HD
HETATM    4  O           1     -20.322  -4.152  -6.716  0.00  0.00    -0.272 OA
ENDROOT
BRANCH   2   5
HETATM    5  C           1     -21.239  -6.208  -5.215  0.00  0.00     0.186 C 
BRANCH   5   6
HETATM    6  C           1     -20.613  -7.464  -5.770  0.00  0.00     0.196 C 
HETATM    7  O           1     -19.494  -7.412  -6.324  0.00  0.00    -0.646 OA
HETATM    8  O           1     -21.214  -8.557  -5.675  0.00  0.00    -0.646 OA
ENDBRANCH   5   6
BRANCH   5   9
HETATM    9  C           1     -22.165  -6.568  -4.060  0.00  0.00     0.046 C 
BRANCH   9  10
HETATM   10  C           1     -21.527  -6.138  -2.745  0.00  0.00     0.116 C 
BRANCH  10  11
HETATM   11  C           1     -21.903  -7.118  -1.660  0.00  0.00     0.172 C 
HETATM   12  O           1     -21.446  -8.281  -1.682  0.00  0.00    -0.648 OA
HETATM   13  O           1     -22.672  -6.766  -0.739  0.00  0.00    -0.648 OA
ENDBRANCH  10  11
ENDBRANCH   9  10
ENDBRANCH   5   9
ENDBRANCH   2   5
BRANCH   1  14
HETATM   14  C           1     -22.242  -3.828  -8.045  0.00  0.00     0.332 C 
BRANCH  14  15
HETATM   15  N           1     -23.699  -4.142  -7.873  0.00  0.00    -0.071 N 
HETATM   16  H           1     -24.226  -3.830  -8.720  0.00  0.00     0.274 HD
HETATM   17  H           1     -23.821  -5.173  -7.748  0.00  0.00     0.274 HD
HETATM   18  H           1     -24.066  -3.644  -7.031  0.00  0.00     0.274 HD
ENDBRANCH  14  15
ENDBRANCH   1  14
TORSDOF 7
ENDMDL
