MODEL 1
REMARK VINA RESULT:      -6.1      0.000      0.000
REMARK  5 active torsions:
REMARK  status: ('A' for Active; 'I' for Inactive)
REMARK    1  A    between atoms: C_2  and  C_4 
REMARK    2  A    between atoms: C_4  and  C_5 
REMARK    3  A    between atoms: C_4  and  N_8 
REMARK       I    between atoms: N_8  and  C_9 
REMARK    4  A    between atoms: C_9  and  C_10 
REMARK    5  A    between atoms: C_10  and  N_16 
ROOT
HETATM    1  N           1     -22.078  -4.739  -8.835  0.00  0.00    -0.344 N 
HETATM    2  C           1     -21.583  -4.381  -7.609  0.00  0.00     0.248 C 
HETATM    3  H           1     -22.067  -5.709  -9.121  0.00  0.00     0.163 HD
HETATM    4  O           1     -21.596  -3.222  -7.268  0.00  0.00    -0.271 OA
ENDROOT
BRANCH   1   5
HETATM    5  C           1     -22.618  -3.727  -9.722  0.00  0.00     0.189 C 
BRANCH   5   6
HETATM    6  C           1     -22.062  -3.933 -11.125  0.00  0.00     0.010 C 
HETATM    7  C           1     -22.482  -2.769 -12.013  0.00  0.00     0.012 C 
HETATM    8  C           1     -20.542  -4.003 -11.062  0.00  0.00     0.012 C 
ENDBRANCH   5   6
BRANCH   5   9
HETATM    9  C           1     -24.124  -3.840  -9.755  0.00  0.00     0.197 C 
HETATM   10  O           1     -24.830  -2.843  -9.493  0.00  0.00    -0.646 OA
HETATM   11  O           1     -24.662  -4.930 -10.043  0.00  0.00    -0.646 OA
ENDBRANCH   5   9
ENDBRANCH   1   5
BRANCH   2  12
HETATM   12  C           1     -21.020  -5.433  -6.687  0.00  0.00     0.270 C 
HETATM   13  C           1     -20.297  -4.759  -5.527  0.00  0.00     0.050 C 
BRANCH  12  14
HETATM   14  N           1     -20.054  -6.296  -7.443  0.00  0.00    -0.067 N 
HETATM   15  H           1     -19.096  -5.881  -7.383  0.00  0.00     0.275 HD
HETATM   16  H           1     -20.348  -6.353  -8.444  0.00  0.00     0.275 HD
HETATM   17  H           1     -20.044  -7.255  -7.028  0.00  0.00     0.275 HD
ENDBRANCH  12  14
ENDBRANCH   2  12
TORSDOF 5
ENDMDL
MODEL 2
REMARK VINA RESULT:      -5.7     11.953     13.863
REMARK  5 active torsions:
REMARK  status: ('A' for Active; 'I' for Inactive)
REMARK    1  A    between atoms: C_2  and  C_4 
REMARK    2  A    between atoms: C_4  and  C_5 
REMARK    3  A    between atoms: C_4  and  N_8 
REMARK       I    between atoms: N_8  and  C_9 
REMARK    4  A    between atoms: C_9  and  C_10 
REMARK    5  A    between atoms: C_10  and  N_16 
ROOT
HETATM    1  N           1     -35.128  -1.761 -12.796  0.00  0.00    -0.344 N 
HETATM    2  C           1     -34.233  -2.528 -12.099  0.00  0.00     0.248 C 
HETATM    3  H           1     -35.644  -2.162 -13.568  0.00  0.00     0.163 HD
HETATM    4  O           1     -33.616  -2.048 -11.177  0.00  0.00    -0.271 OA
ENDROOT
BRANCH   1   5
HETATM    5  C           1     -35.336  -0.374 -12.428  0.00  0.00     0.189 C 
BRANCH   5   6
HETATM    6  C           1     -35.657   0.439 -13.674  0.00  0.00     0.010 C 
HETATM    7  C           1     -34.546   1.452 -13.919  0.00  0.00     0.012 C 
HETATM    8  C           1     -35.769  -0.494 -14.873  0.00  0.00     0.012 C 
ENDBRANCH   5   6
BRANCH   5   9
HETATM    9  C           1     -36.487  -0.280 -11.454  0.00  0.00     0.197 C 
HETATM   10  O           1     -37.546  -0.904 -11.678  0.00  0.00    -0.646 OA
HETATM   11  O           1     -36.379   0.421 -10.426  0.00  0.00    -0.646 OA
ENDBRANCH   5   9
ENDBRANCH   1   5
BRANCH   2  12
HETATM   12  C           1     -34.015  -3.970 -12.483  0.00  0.00     0.270 C 
HETATM   13  C           1     -32.751  -4.491 -11.812  0.00  0.00     0.050 C 
BRANCH  12  14
HETATM   14  N           1     -33.869  -4.075 -13.972  0.00  0.00    -0.067 N 
HETATM   15  H           1     -32.858  -4.191 -14.215  0.00  0.00     0.275 HD
HETATM   16  H           1     -34.238  -3.206 -14.420  0.00  0.00     0.275 HD
HETATM   17  H           1     -34.407  -4.901 -14.319  0.00  0.00     0.275 HD
ENDBRANCH  12  14
ENDBRANCH   2  12
TORSDOF 5
ENDMDL
MODEL 3
REMARK VINA RESULT:      -5.5     12.217     13.459
REMARK  5 active torsions:
REMARK  status: ('A' for Active; 'I' for Inactive)
REMARK    1  A    between atoms: C_2  and  C_4 
REMARK    2  A    between atoms: C_4  and  C_5 
REMARK    3  A    between atoms: C_4  and  N_8 
REMARK       I    between atoms: N_8  and  C_9 
REMARK    4  A    between atoms: C_9  and  C_10 
REMARK    5  A    between atoms: C_10  and  N_16 
ROOT
HETATM    1  N           1     -33.476  -3.970 -14.316  0.00  0.00    -0.344 N 
HETATM    2  C           1     -34.006  -4.522 -15.452  0.00  0.00     0.248 C 
HETATM    3  H           1     -32.586  -3.492 -14.355  0.00  0.00     0.163 HD
HETATM    4  O           1     -35.070  -5.094 -15.405  0.00  0.00    -0.271 OA
ENDROOT
BRANCH   1   5
HETATM    5  C           1     -34.191  -4.071 -13.059  0.00  0.00     0.189 C 
BRANCH   5   6
HETATM    6  C           1     -33.198  -4.304 -11.928  0.00  0.00     0.010 C 
HETATM    7  C           1     -33.006  -3.010 -11.148  0.00  0.00     0.012 C 
HETATM    8  C           1     -33.735  -5.384 -10.997  0.00  0.00     0.012 C 
ENDBRANCH   5   6
BRANCH   5   9
HETATM    9  C           1     -34.950  -2.790 -12.808  0.00  0.00     0.197 C 
HETATM   10  O           1     -35.738  -2.710 -11.842  0.00  0.00    -0.646 OA
HETATM   11  O           1     -34.788  -1.810 -13.567  0.00  0.00    -0.646 OA
ENDBRANCH   5   9
ENDBRANCH   1   5
BRANCH   2  12
HETATM   12  C           1     -33.262  -4.418 -16.759  0.00  0.00     0.270 C 
HETATM   13  C           1     -31.779  -4.674 -16.522  0.00  0.00     0.050 C 
BRANCH  12  14
HETATM   14  N           1     -33.446  -3.044 -17.332  0.00  0.00    -0.067 N 
HETATM   15  H           1     -33.220  -3.059 -18.353  0.00  0.00     0.275 HD
HETATM   16  H           1     -32.809  -2.375 -16.843  0.00  0.00     0.275 HD
HETATM   17  H           1     -34.438  -2.741 -17.199  0.00  0.00     0.275 HD
ENDBRANCH  12  14
ENDBRANCH   2  12
TORSDOF 5
ENDMDL
MODEL 4
REMARK VINA RESULT:      -5.0      9.968     11.781
REMARK  5 active torsions:
REMARK  status: ('A' for Active; 'I' for Inactive)
REMARK    1  A    between atoms: C_2  and  C_4 
REMARK    2  A    between atoms: C_4  and  C_5 
REMARK    3  A    between atoms: C_4  and  N_8 
REMARK       I    between atoms: N_8  and  C_9 
REMARK    4  A    between atoms: C_9  and  C_10 
REMARK    5  A    between atoms: C_10  and  N_16 
ROOT
HETATM    1  N           1     -27.932  -6.884 -17.911  0.00  0.00    -0.344 N 
HETATM    2  C           1     -27.647  -6.135 -19.022  0.00  0.00     0.248 C 
HETATM    3  H           1     -27.411  -7.730 -17.724  0.00  0.00     0.163 HD
HETATM    4  O           1     -28.269  -5.124 -19.244  0.00  0.00    -0.271 OA
ENDROOT
BRANCH   1   5
HETATM    5  C           1     -28.981  -6.463 -17.003  0.00  0.00     0.189 C 
BRANCH   5   6
HETATM    6  C           1     -30.231  -7.295 -17.251  0.00  0.00     0.010 C 
HETATM    7  C           1     -31.451  -6.384 -17.276  0.00  0.00     0.012 C 
HETATM    8  C           1     -30.105  -8.013 -18.589  0.00  0.00     0.012 C 
ENDBRANCH   5   6
BRANCH   5   9
HETATM    9  C           1     -28.520  -6.658 -15.578  0.00  0.00     0.197 C 
HETATM   10  O           1     -29.082  -6.038 -14.650  0.00  0.00    -0.646 OA
HETATM   11  O           1     -27.577  -7.438 -15.328  0.00  0.00    -0.646 OA
ENDBRANCH   5   9
ENDBRANCH   1   5
BRANCH   2  12
HETATM   12  C           1     -26.556  -6.573 -19.967  0.00  0.00     0.270 C 
HETATM   13  C           1     -27.027  -7.786 -20.759  0.00  0.00     0.050 C 
BRANCH  12  14
HETATM   14  N           1     -25.330  -6.935 -19.182  0.00  0.00    -0.067 N 
HETATM   15  H           1     -24.524  -6.355 -19.511  0.00  0.00     0.275 HD
HETATM   16  H           1     -25.113  -7.947 -19.324  0.00  0.00     0.275 HD
HETATM   17  H           1     -25.499  -6.754 -18.167  0.00  0.00     0.275 HD
ENDBRANCH  12  14
ENDBRANCH   2  12
TORSDOF 5
ENDMDL
MODEL 5
REMARK VINA RESULT:      -4.8     12.100     14.072
REMARK  5 active torsions:
REMARK  status: ('A' for Active; 'I' for Inactive)
REMARK    1  A    between atoms: C_2  and  C_4 
REMARK    2  A    between atoms: C_4  and  C_5 
REMARK    3  A    between atoms: C_4  and  N_8 
REMARK       I    between atoms: N_8  and  C_9 
REMARK    4  A    between atoms: C_9  and  C_10 
REMARK    5  A    between atoms: C_10  and  N_16 
ROOT
HETATM    1  N           1     -34.858  -1.562 -12.514  0.00  0.00    -0.344 N 
HETATM    2  C           1     -34.664  -2.876 -12.181  0.00  0.00     0.248 C 
HETATM    3  H           1     -34.308  -0.841 -12.066  0.00  0.00     0.163 HD
HETATM    4  O           1     -35.320  -3.738 -12.716  0.00  0.00    -0.271 OA
ENDROOT
BRANCH   1   5
HETATM    5  C           1     -35.849  -1.205 -13.510  0.00  0.00     0.189 C 
BRANCH   5   6
HETATM    6  C           1     -36.691  -0.046 -12.994  0.00  0.00     0.010 C 
HETATM    7  C           1     -38.059  -0.075 -13.664  0.00  0.00     0.012 C 
HETATM    8  C           1     -36.861  -0.175 -11.485  0.00  0.00     0.012 C 
ENDBRANCH   5   6
BRANCH   5   9
HETATM    9  C           1     -35.155  -0.795 -14.787  0.00  0.00     0.197 C 
HETATM   10  O           1     -35.155  -1.564 -15.772  0.00  0.00    -0.646 OA
HETATM   11  O           1     -34.581   0.312 -14.857  0.00  0.00    -0.646 OA
ENDBRANCH   5   9
ENDBRANCH   1   5
BRANCH   2  12
HETATM   12  C           1     -33.632  -3.247 -11.145  0.00  0.00     0.270 C 
HETATM   13  C           1     -33.167  -1.992 -10.418  0.00  0.00     0.050 C 
BRANCH  12  14
HETATM   14  N           1     -32.460  -3.898 -11.817  0.00  0.00    -0.067 N 
HETATM   15  H           1     -31.992  -4.549 -11.145  0.00  0.00     0.275 HD
HETATM   16  H           1     -31.783  -3.164 -12.122  0.00  0.00     0.275 HD
HETATM   17  H           1     -32.789  -4.436 -12.650  0.00  0.00     0.275 HD
ENDBRANCH  12  14
ENDBRANCH   2  12
TORSDOF 5
ENDMDL
MODEL 6
REMARK VINA RESULT:      -4.6      2.219      4.639
REMARK  5 active torsions:
REMARK  status: ('A' for Active; 'I' for Inactive)
REMARK    1  A    between atoms: C_2  and  C_4 
REMARK    2  A    between atoms: C_4  and  C_5 
REMARK    3  A    between atoms: C_4  and  N_8 
REMARK       I    between atoms: N_8  and  C_9 
REMARK    4  A    between atoms: C_9  and  C_10 
REMARK    5  A    between atoms: C_10  and  N_16 
ROOT
HETATM    1  N           1     -22.544  -4.885  -8.073  0.00  0.00    -0.344 N 
HETATM    2  C           1     -22.638  -4.643  -9.418  0.00  0.00     0.248 C 
HETATM    3  H           1     -23.333  -4.696  -7.469  0.00  0.00     0.163 HD
HETATM    4  O           1     -21.696  -4.869 -10.140  0.00  0.00    -0.271 OA
ENDROOT
BRANCH   1   5
HETATM    5  C           1     -21.314  -5.412  -7.516  0.00  0.00     0.189 C 
BRANCH   5   6
HETATM    6  C           1     -20.448  -4.262  -7.020  0.00  0.00     0.010 C 
HETATM    7  C           1     -19.189  -4.171  -7.873  0.00  0.00     0.012 C 
HETATM    8  C           1     -21.229  -2.958  -7.125  0.00  0.00     0.012 C 
ENDBRANCH   5   6
BRANCH   5   9
HETATM    9  C           1     -21.639  -6.332  -6.363  0.00  0.00     0.197 C 
HETATM   10  O           1     -22.392  -5.941  -5.446  0.00  0.00    -0.646 OA
HETATM   11  O           1     -21.153  -7.483  -6.327  0.00  0.00    -0.646 OA
ENDBRANCH   5   9
ENDBRANCH   1   5
BRANCH   2  12
HETATM   12  C           1     -23.918  -4.093  -9.998  0.00  0.00     0.270 C 
HETATM   13  C           1     -23.598  -3.242 -11.220  0.00  0.00     0.050 C 
BRANCH  12  14
HETATM   14  N           1     -24.611  -3.250  -8.969  0.00  0.00    -0.067 N 
HETATM   15  H           1     -25.583  -3.608  -8.824  0.00  0.00     0.275 HD
HETATM   16  H           1     -24.650  -2.260  -9.301  0.00  0.00     0.275 HD
HETATM   17  H           1     -24.085  -3.295  -8.068  0.00  0.00     0.275 HD
ENDBRANCH  12  14
ENDBRANCH   2  12
TORSDOF 5
ENDMDL
MODEL 7
REMARK VINA RESULT:      -4.5      3.956      6.795
REMARK  5 active torsions:
REMARK  status: ('A' for Active; 'I' for Inactive)
REMARK    1  A    between atoms: C_2  and  C_4 
REMARK    2  A    between atoms: C_4  and  C_5 
REMARK    3  A    between atoms: C_4  and  N_8 
REMARK       I    between atoms: N_8  and  C_9 
REMARK    4  A    between atoms: C_9  and  C_10 
REMARK    5  A    between atoms: C_10  and  N_16 
ROOT
HETATM    1  N           1     -20.777  -6.738  -4.694  0.00  0.00    -0.344 N 
HETATM    2  C           1     -21.413  -5.885  -5.557  0.00  0.00     0.248 C 
HETATM    3  H           1     -19.767  -6.793  -4.690  0.00  0.00     0.163 HD
HETATM    4  O           1     -22.619  -5.820  -5.561  0.00  0.00    -0.271 OA
ENDROOT
BRANCH   1   5
HETATM    5  C           1     -21.552  -7.562  -3.786  0.00  0.00     0.189 C 
BRANCH   5   6
HETATM    6  C           1     -20.908  -8.937  -3.675  0.00  0.00     0.010 C 
HETATM    7  C           1     -21.962 -10.011  -3.911  0.00  0.00     0.012 C 
HETATM    8  C           1     -19.806  -9.067  -4.719  0.00  0.00     0.012 C 
ENDBRANCH   5   6
BRANCH   5   9
HETATM    9  C           1     -21.588  -6.910  -2.424  0.00  0.00     0.197 C 
HETATM   10  O           1     -20.915  -7.388  -1.486  0.00  0.00    -0.646 OA
HETATM   11  O           1     -22.291  -5.895  -2.236  0.00  0.00    -0.646 OA
ENDBRANCH   5   9
ENDBRANCH   1   5
BRANCH   2  12
HETATM   12  C           1     -20.607  -5.029  -6.502  0.00  0.00     0.270 C 
HETATM   13  C           1     -21.516  -3.994  -7.151  0.00  0.00     0.050 C 
BRANCH  12  14
HETATM   14  N           1     -19.997  -5.895  -7.564  0.00  0.00    -0.067 N 
HETATM   15  H           1     -20.028  -5.393  -8.481  0.00  0.00     0.275 HD
HETATM   16  H           1     -20.535  -6.787  -7.636  0.00  0.00     0.275 HD
HETATM   17  H           1     -19.004  -6.106  -7.316  0.00  0.00     0.275 HD
ENDBRANCH  12  14
ENDBRANCH   2  12
TORSDOF 5
ENDMDL
MODEL 8
REMARK VINA RESULT:      -4.5      6.650      9.177
REMARK  5 active torsions:
REMARK  status: ('A' for Active; 'I' for Inactive)
REMARK    1  A    between atoms: C_2  and  C_4 
REMARK    2  A    between atoms: C_4  and  C_5 
REMARK    3  A    between atoms: C_4  and  N_8 
REMARK       I    between atoms: N_8  and  C_9 
REMARK    4  A    between atoms: C_9  and  C_10 
REMARK    5  A    between atoms: C_10  and  N_16 
ROOT
HETATM    1  N           1     -21.594  -8.549  -2.624  0.00  0.00    -0.344 N 
HETATM    2  C           1     -20.414  -8.522  -3.317  0.00  0.00     0.248 C 
HETATM    3  H           1     -22.421  -8.119  -3.016  0.00  0.00     0.163 HD
HETATM    4  O           1     -19.426  -9.036  -2.848  0.00  0.00    -0.271 OA
ENDROOT
BRANCH   1   5
HETATM    5  C           1     -21.659  -9.196  -1.328  0.00  0.00     0.189 C 
BRANCH   5   6
HETATM    6  C           1     -22.354  -8.273  -0.335  0.00  0.00     0.010 C 
HETATM    7  C           1     -21.601  -8.295   0.989  0.00  0.00     0.012 C 
HETATM    8  C           1     -22.370  -6.854  -0.888  0.00  0.00     0.012 C 
ENDBRANCH   5   6
BRANCH   5   9
HETATM    9  C           1     -22.437 -10.485  -1.448  0.00  0.00     0.197 C 
HETATM   10  O           1     -21.945 -11.457  -2.059  0.00  0.00    -0.646 OA
HETATM   11  O           1     -23.573 -10.578  -0.936  0.00  0.00    -0.646 OA
ENDBRANCH   5   9
ENDBRANCH   1   5
BRANCH   2  12
HETATM   12  C           1     -20.346  -7.848  -4.665  0.00  0.00     0.270 C 
HETATM   13  C           1     -21.101  -6.526  -4.612  0.00  0.00     0.050 C 
BRANCH  12  14
HETATM   14  N           1     -20.969  -8.737  -5.700  0.00  0.00    -0.067 N 
HETATM   15  H           1     -21.951  -8.425  -5.881  0.00  0.00     0.275 HD
HETATM   16  H           1     -20.974  -9.723  -5.354  0.00  0.00     0.275 HD
HETATM   17  H           1     -20.417  -8.682  -6.586  0.00  0.00     0.275 HD
ENDBRANCH  12  14
ENDBRANCH   2  12
TORSDOF 5
ENDMDL
MODEL 9
REMARK VINA RESULT:      -4.5      7.321      9.223
REMARK  5 active torsions:
REMARK  status: ('A' for Active; 'I' for Inactive)
REMARK    1  A    between atoms: C_2  and  C_4 
REMARK    2  A    between atoms: C_4  and  C_5 
REMARK    3  A    between atoms: C_4  and  N_8 
REMARK       I    between atoms: N_8  and  C_9 
REMARK    4  A    between atoms: C_9  and  C_10 
REMARK    5  A    between atoms: C_10  and  N_16 
ROOT
HETATM    1  N           1     -21.986  -9.290  -1.708  0.00  0.00    -0.344 N 
HETATM    2  C           1     -21.702 -10.127  -0.662  0.00  0.00     0.248 C 
HETATM    3  H           1     -22.753  -9.503  -2.332  0.00  0.00     0.163 HD
HETATM    4  O           1     -20.786  -9.873   0.084  0.00  0.00    -0.271 OA
ENDROOT
BRANCH   1   5
HETATM    5  C           1     -21.187  -8.099  -1.920  0.00  0.00     0.189 C 
BRANCH   5   6
HETATM    6  C           1     -20.646  -8.098  -3.344  0.00  0.00     0.010 C 
HETATM    7  C           1     -19.319  -8.846  -3.382  0.00  0.00     0.012 C 
HETATM    8  C           1     -21.644  -8.786  -4.266  0.00  0.00     0.012 C 
ENDBRANCH   5   6
BRANCH   5   9
HETATM    9  C           1     -22.044  -6.874  -1.707  0.00  0.00     0.197 C 
HETATM   10  O           1     -22.007  -5.934  -2.529  0.00  0.00    -0.646 OA
HETATM   11  O           1     -22.790  -6.801  -0.707  0.00  0.00    -0.646 OA
ENDBRANCH   5   9
ENDBRANCH   1   5
BRANCH   2  12
HETATM   12  C           1     -22.533 -11.367  -0.442  0.00  0.00     0.270 C 
HETATM   13  C           1     -23.977 -10.969  -0.165  0.00  0.00     0.050 C 
BRANCH  12  14
HETATM   14  N           1     -21.992 -12.129   0.731  0.00  0.00    -0.067 N 
HETATM   15  H           1     -21.189 -12.723   0.419  0.00  0.00     0.275 HD
HETATM   16  H           1     -22.744 -12.738   1.126  0.00  0.00     0.275 HD
HETATM   17  H           1     -21.666 -11.459   1.463  0.00  0.00     0.275 HD
ENDBRANCH  12  14
ENDBRANCH   2  12
TORSDOF 5
ENDMDL
