MODEL 1
REMARK VINA RESULT:      -7.3      0.000      0.000
REMARK  12 active torsions:
REMARK  status: ('A' for Active; 'I' for Inactive)
REMARK    1  A    between atoms: C_5  and  C_25 
REMARK    2  A    between atoms: C_5  and  C_14 
REMARK    3  A    between atoms: C_11  and  C_13 
REMARK    4  A    between atoms: C_11  and  C_20 
REMARK    5  A    between atoms: N_12  and  C_13 
REMARK    6  A    between atoms: C_13  and  C_18 
REMARK    7  A    between atoms: C_14  and  C_23 
REMARK    8  A    between atoms: C_16  and  O_17 
REMARK       I    between atoms: C_18  and  N_19 
REMARK    9  A    between atoms: N_19  and  C_27 
REMARK   10  A    between atoms: C_23  and  C_27 
REMARK   11  A    between atoms: N_24  and  C_25 
REMARK   12  A    between atoms: C_27  and  C_28 
ROOT
HETATM    1  O           1     -34.994  -4.878 -15.310  0.00  0.00    -0.271 OA
HETATM    2  H           1     -32.334  -3.704 -14.132  0.00  0.00     0.163 HD
HETATM    3  C           1     -33.856  -4.475 -15.305  0.00  0.00     0.249 C 
HETATM    4  N           1     -33.288  -4.042 -14.136  0.00  0.00    -0.345 N 
ENDROOT
BRANCH   3   5
HETATM    5  C           1     -33.059  -4.449 -16.585  0.00  0.00     0.278 C 
BRANCH   5   6
HETATM    6  C           1     -31.580  -4.619 -16.267  0.00  0.00     0.081 C 
BRANCH   6   7
HETATM    7  C           1     -31.021  -5.750 -17.072  0.00  0.00    -0.056 A 
HETATM    8  C           1     -29.641  -5.886 -17.219  0.00  0.00     0.010 A 
HETATM    9  C           1     -29.120  -6.940 -17.970  0.00  0.00     0.037 A 
HETATM   10  C           1     -29.979  -7.858 -18.574  0.00  0.00     0.065 A 
HETATM   11  C           1     -31.359  -7.721 -18.428  0.00  0.00     0.037 A 
HETATM   12  C           1     -31.880  -6.668 -17.677  0.00  0.00     0.010 A 
BRANCH  10  13
HETATM   13  O           1     -29.473  -8.881 -19.303  0.00  0.00    -0.361 OA
HETATM   14  H           1     -28.635  -9.155 -18.897  0.00  0.00     0.217 HD
ENDBRANCH  10  13
ENDBRANCH   6   7
ENDBRANCH   5   6
BRANCH   5  15
HETATM   15  N           1     -33.273  -3.137 -17.281  0.00  0.00    -0.066 N 
HETATM   16  H           1     -34.255  -2.814 -17.119  0.00  0.00     0.275 HD
HETATM   17  H           1     -32.606  -2.428 -16.901  0.00  0.00     0.275 HD
HETATM   18  H           1     -33.110  -3.255 -18.306  0.00  0.00     0.275 HD
ENDBRANCH   5  15
ENDBRANCH   3   5
BRANCH   4  19
HETATM   19  C           1     -34.054  -4.066 -12.905  0.00  0.00     0.185 C 
BRANCH  19  20
HETATM   20  C           1     -33.176  -4.576 -11.770  0.00  0.00     0.036 C 
BRANCH  20  21
HETATM   21  C           1     -34.051  -5.206 -10.694  0.00  0.00     0.004 C 
BRANCH  21  22
HETATM   22  C           1     -34.610  -6.528 -11.203  0.00  0.00     0.027 C 
BRANCH  22  23
HETATM   23  C           1     -34.638  -7.541 -10.065  0.00  0.00     0.229 C 
BRANCH  23  24
HETATM   24  N           1     -33.633  -8.621 -10.332  0.00  0.00    -0.079 N 
HETATM   25  H           1     -32.921  -8.274 -11.016  0.00  0.00     0.274 HD
HETATM   26  H           1     -33.159  -8.884  -9.440  0.00  0.00     0.274 HD
HETATM   27  H           1     -34.117  -9.457 -10.731  0.00  0.00     0.274 HD
ENDBRANCH  23  24
ENDBRANCH  22  23
ENDBRANCH  21  22
ENDBRANCH  20  21
ENDBRANCH  19  20
BRANCH  19  28
HETATM   28  C           1     -34.532  -2.672 -12.584  0.00  0.00     0.196 C 
HETATM   29  O           1     -33.955  -2.001 -11.701  0.00  0.00    -0.646 OA
HETATM   30  O           1     -35.506  -2.187 -13.200  0.00  0.00    -0.646 OA
ENDBRANCH  19  28
ENDBRANCH   4  19
TORSDOF 12
ENDMDL
MODEL 2
REMARK VINA RESULT:      -7.3     12.409     14.539
REMARK  12 active torsions:
REMARK  status: ('A' for Active; 'I' for Inactive)
REMARK    1  A    between atoms: C_5  and  C_25 
REMARK    2  A    between atoms: C_5  and  C_14 
REMARK    3  A    between atoms: C_11  and  C_13 
REMARK    4  A    between atoms: C_11  and  C_20 
REMARK    5  A    between atoms: N_12  and  C_13 
REMARK    6  A    between atoms: C_13  and  C_18 
REMARK    7  A    between atoms: C_14  and  C_23 
REMARK    8  A    between atoms: C_16  and  O_17 
REMARK       I    between atoms: C_18  and  N_19 
REMARK    9  A    between atoms: N_19  and  C_27 
REMARK   10  A    between atoms: C_23  and  C_27 
REMARK   11  A    between atoms: N_24  and  C_25 
REMARK   12  A    between atoms: C_27  and  C_28 
ROOT
HETATM    1  O           1     -21.608  -3.422  -7.322  0.00  0.00    -0.271 OA
HETATM    2  H           1     -22.199  -5.746  -9.345  0.00  0.00     0.163 HD
HETATM    3  C           1     -21.632  -4.550  -7.753  0.00  0.00     0.249 C 
HETATM    4  N           1     -22.180  -4.801  -8.983  0.00  0.00    -0.345 N 
ENDROOT
BRANCH   3   5
HETATM    5  C           1     -21.057  -5.682  -6.938  0.00  0.00     0.278 C 
BRANCH   5   6
HETATM    6  C           1     -20.816  -5.209  -5.511  0.00  0.00     0.081 C 
BRANCH   6   7
HETATM    7  C           1     -21.101  -6.328  -4.559  0.00  0.00    -0.056 A 
HETATM    8  C           1     -21.264  -6.061  -3.199  0.00  0.00     0.010 A 
HETATM    9  C           1     -21.529  -7.104  -2.311  0.00  0.00     0.037 A 
HETATM   10  C           1     -21.632  -8.413  -2.781  0.00  0.00     0.065 A 
HETATM   11  C           1     -21.468  -8.679  -4.141  0.00  0.00     0.037 A 
HETATM   12  C           1     -21.202  -7.637  -5.029  0.00  0.00     0.010 A 
BRANCH  10  13
HETATM   13  O           1     -21.889  -9.425  -1.919  0.00  0.00    -0.361 OA
HETATM   14  H           1     -22.368 -10.118  -2.403  0.00  0.00     0.217 HD
ENDBRANCH  10  13
ENDBRANCH   6   7
ENDBRANCH   5   6
BRANCH   5  15
HETATM   15  N           1     -19.758  -6.125  -7.545  0.00  0.00    -0.066 N 
HETATM   16  H           1     -19.940  -6.544  -8.486  0.00  0.00     0.275 HD
HETATM   17  H           1     -19.123  -5.301  -7.648  0.00  0.00     0.275 HD
HETATM   18  H           1     -19.309  -6.835  -6.926  0.00  0.00     0.275 HD
ENDBRANCH   5  15
ENDBRANCH   3   5
BRANCH   4  19
HETATM   19  C           1     -22.732  -3.713  -9.766  0.00  0.00     0.185 C 
BRANCH  19  20
HETATM   20  C           1     -22.243  -3.823 -11.205  0.00  0.00     0.036 C 
BRANCH  20  21
HETATM   21  C           1     -22.793  -2.659 -12.019  0.00  0.00     0.004 C 
BRANCH  21  22
HETATM   22  C           1     -23.529  -3.195 -13.239  0.00  0.00     0.027 C 
BRANCH  22  23
HETATM   23  C           1     -23.237  -2.305 -14.441  0.00  0.00     0.229 C 
BRANCH  23  24
HETATM   24  N           1     -24.068  -1.059 -14.354  0.00  0.00    -0.079 N 
HETATM   25  H           1     -23.494  -0.284 -13.950  0.00  0.00     0.274 HD
HETATM   26  H           1     -24.393  -0.790 -15.309  0.00  0.00     0.274 HD
HETATM   27  H           1     -24.895  -1.235 -13.740  0.00  0.00     0.274 HD
ENDBRANCH  23  24
ENDBRANCH  22  23
ENDBRANCH  21  22
ENDBRANCH  20  21
ENDBRANCH  19  20
BRANCH  19  28
HETATM   28  C           1     -24.239  -3.791  -9.741  0.00  0.00     0.196 C 
HETATM   29  O           1     -24.814  -4.871  -9.999  0.00  0.00    -0.646 OA
HETATM   30  O           1     -24.912  -2.775  -9.463  0.00  0.00    -0.646 OA
ENDBRANCH  19  28
ENDBRANCH   4  19
TORSDOF 12
ENDMDL
MODEL 3
REMARK VINA RESULT:      -7.2     13.531     14.757
REMARK  12 active torsions:
REMARK  status: ('A' for Active; 'I' for Inactive)
REMARK    1  A    between atoms: C_5  and  C_25 
REMARK    2  A    between atoms: C_5  and  C_14 
REMARK    3  A    between atoms: C_11  and  C_13 
REMARK    4  A    between atoms: C_11  and  C_20 
REMARK    5  A    between atoms: N_12  and  C_13 
REMARK    6  A    between atoms: C_13  and  C_18 
REMARK    7  A    between atoms: C_14  and  C_23 
REMARK    8  A    between atoms: C_16  and  O_17 
REMARK       I    between atoms: C_18  and  N_19 
REMARK    9  A    between atoms: N_19  and  C_27 
REMARK   10  A    between atoms: C_23  and  C_27 
REMARK   11  A    between atoms: N_24  and  C_25 
REMARK   12  A    between atoms: C_27  and  C_28 
ROOT
HETATM    1  O           1     -20.355  -4.944  -5.526  0.00  0.00    -0.271 OA
HETATM    2  H           1     -22.341  -7.370  -5.659  0.00  0.00     0.163 HD
HETATM    3  C           1     -21.294  -5.600  -5.908  0.00  0.00     0.249 C 
HETATM    4  N           1     -21.553  -6.820  -5.340  0.00  0.00    -0.345 N 
ENDROOT
BRANCH   3   5
HETATM    5  C           1     -22.185  -5.076  -7.007  0.00  0.00     0.278 C 
BRANCH   5   6
HETATM    6  C           1     -21.621  -3.764  -7.535  0.00  0.00     0.081 C 
BRANCH   6   7
HETATM    7  C           1     -21.688  -3.757  -9.031  0.00  0.00    -0.056 A 
HETATM    8  C           1     -22.915  -3.589  -9.673  0.00  0.00     0.010 A 
HETATM    9  C           1     -22.977  -3.582 -11.067  0.00  0.00     0.037 A 
HETATM   10  C           1     -21.813  -3.743 -11.818  0.00  0.00     0.065 A 
HETATM   11  C           1     -20.587  -3.912 -11.175  0.00  0.00     0.037 A 
HETATM   12  C           1     -20.524  -3.919  -9.782  0.00  0.00     0.010 A 
BRANCH  10  13
HETATM   13  O           1     -21.874  -3.737 -13.171  0.00  0.00    -0.361 OA
HETATM   14  H           1     -22.355  -4.532 -13.454  0.00  0.00     0.217 HD
ENDBRANCH  10  13
ENDBRANCH   6   7
ENDBRANCH   5   6
BRANCH   5  15
HETATM   15  N           1     -23.565  -4.846  -6.466  0.00  0.00    -0.066 N 
HETATM   16  H           1     -24.271  -5.154  -7.173  0.00  0.00     0.275 HD
HETATM   17  H           1     -23.690  -5.397  -5.587  0.00  0.00     0.275 HD
HETATM   18  H           1     -23.695  -3.831  -6.262  0.00  0.00     0.275 HD
ENDBRANCH   5  15
ENDBRANCH   3   5
BRANCH   4  19
HETATM   19  C           1     -20.697  -7.323  -4.284  0.00  0.00     0.185 C 
BRANCH  19  20
HETATM   20  C           1     -21.548  -7.699  -3.077  0.00  0.00     0.036 C 
BRANCH  20  21
HETATM   21  C           1     -21.874  -6.446  -2.275  0.00  0.00     0.004 C 
BRANCH  21  22
HETATM   22  C           1     -22.365  -6.843  -0.889  0.00  0.00     0.027 C 
BRANCH  22  23
HETATM   23  C           1     -21.851  -8.236  -0.547  0.00  0.00     0.229 C 
BRANCH  23  24
HETATM   24  N           1     -22.967  -9.053   0.032  0.00  0.00    -0.079 N 
HETATM   25  H           1     -23.512  -8.470   0.708  0.00  0.00     0.274 HD
HETATM   26  H           1     -23.597  -9.375  -0.736  0.00  0.00     0.274 HD
HETATM   27  H           1     -22.570  -9.881   0.530  0.00  0.00     0.274 HD
ENDBRANCH  23  24
ENDBRANCH  22  23
ENDBRANCH  21  22
ENDBRANCH  20  21
ENDBRANCH  19  20
BRANCH  19  28
HETATM   28  C           1     -19.957  -8.542  -4.775  0.00  0.00     0.196 C 
HETATM   29  O           1     -20.407  -9.202  -5.737  0.00  0.00    -0.646 OA
HETATM   30  O           1     -18.893  -8.893  -4.219  0.00  0.00    -0.646 OA
ENDBRANCH  19  28
ENDBRANCH   4  19
TORSDOF 12
ENDMDL
MODEL 4
REMARK VINA RESULT:      -7.2     13.263     14.415
REMARK  12 active torsions:
REMARK  status: ('A' for Active; 'I' for Inactive)
REMARK    1  A    between atoms: C_5  and  C_25 
REMARK    2  A    between atoms: C_5  and  C_14 
REMARK    3  A    between atoms: C_11  and  C_13 
REMARK    4  A    between atoms: C_11  and  C_20 
REMARK    5  A    between atoms: N_12  and  C_13 
REMARK    6  A    between atoms: C_13  and  C_18 
REMARK    7  A    between atoms: C_14  and  C_23 
REMARK    8  A    between atoms: C_16  and  O_17 
REMARK       I    between atoms: C_18  and  N_19 
REMARK    9  A    between atoms: N_19  and  C_27 
REMARK   10  A    between atoms: C_23  and  C_27 
REMARK   11  A    between atoms: N_24  and  C_25 
REMARK   12  A    between atoms: C_27  and  C_28 
ROOT
HETATM    1  O           1     -20.275  -4.610  -5.542  0.00  0.00    -0.271 OA
HETATM    2  H           1     -22.277  -6.892  -6.335  0.00  0.00     0.163 HD
HETATM    3  C           1     -21.160  -5.158  -6.155  0.00  0.00     0.249 C 
HETATM    4  N           1     -21.535  -6.433  -5.822  0.00  0.00    -0.345 N 
ENDROOT
BRANCH   3   5
HETATM    5  C           1     -21.854  -4.438  -7.285  0.00  0.00     0.278 C 
BRANCH   5   6
HETATM    6  C           1     -21.326  -4.953  -8.616  0.00  0.00     0.081 C 
BRANCH   6   7
HETATM    7  C           1     -22.021  -4.246  -9.737  0.00  0.00    -0.056 A 
HETATM    8  C           1     -21.274  -3.643 -10.750  0.00  0.00     0.010 A 
HETATM    9  C           1     -21.921  -2.984 -11.795  0.00  0.00     0.037 A 
HETATM   10  C           1     -23.314  -2.926 -11.828  0.00  0.00     0.065 A 
HETATM   11  C           1     -24.060  -3.528 -10.815  0.00  0.00     0.037 A 
HETATM   12  C           1     -23.414  -4.188  -9.770  0.00  0.00     0.010 A 
BRANCH  10  13
HETATM   13  O           1     -23.943  -2.285 -12.842  0.00  0.00    -0.361 OA
HETATM   14  H           1     -23.764  -2.772 -13.663  0.00  0.00     0.217 HD
ENDBRANCH  10  13
ENDBRANCH   6   7
ENDBRANCH   5   6
BRANCH   5  15
HETATM   15  N           1     -21.588  -2.966  -7.177  0.00  0.00    -0.066 N 
HETATM   16  H           1     -21.174  -2.621  -8.073  0.00  0.00     0.275 HD
HETATM   17  H           1     -22.486  -2.462  -6.992  0.00  0.00     0.275 HD
HETATM   18  H           1     -20.922  -2.788  -6.393  0.00  0.00     0.275 HD
ENDBRANCH   5  15
ENDBRANCH   3   5
BRANCH   4  19
HETATM   19  C           1     -20.868  -7.124  -4.736  0.00  0.00     0.185 C 
BRANCH  19  20
HETATM   20  C           1     -21.846  -7.327  -3.586  0.00  0.00     0.036 C 
BRANCH  20  21
HETATM   21  C           1     -21.242  -6.774  -2.302  0.00  0.00     0.004 C 
BRANCH  21  22
HETATM   22  C           1     -22.328  -6.652  -1.241  0.00  0.00     0.027 C 
BRANCH  22  23
HETATM   23  C           1     -22.186  -7.787  -0.235  0.00  0.00     0.229 C 
BRANCH  23  24
HETATM   24  N           1     -23.464  -7.934   0.537  0.00  0.00    -0.079 N 
HETATM   25  H           1     -24.100  -8.595   0.035  0.00  0.00     0.274 HD
HETATM   26  H           1     -23.254  -8.306   1.489  0.00  0.00     0.274 HD
HETATM   27  H           1     -23.929  -7.002   0.620  0.00  0.00     0.274 HD
ENDBRANCH  23  24
ENDBRANCH  22  23
ENDBRANCH  21  22
ENDBRANCH  20  21
ENDBRANCH  19  20
BRANCH  19  28
HETATM   28  C           1     -20.378  -8.466  -5.222  0.00  0.00     0.196 C 
HETATM   29  O           1     -21.151  -9.449  -5.229  0.00  0.00    -0.646 OA
HETATM   30  O           1     -19.199  -8.595  -5.616  0.00  0.00    -0.646 OA
ENDBRANCH  19  28
ENDBRANCH   4  19
TORSDOF 12
ENDMDL
MODEL 5
REMARK VINA RESULT:      -6.9     13.696     15.888
REMARK  12 active torsions:
REMARK  status: ('A' for Active; 'I' for Inactive)
REMARK    1  A    between atoms: C_5  and  C_25 
REMARK    2  A    between atoms: C_5  and  C_14 
REMARK    3  A    between atoms: C_11  and  C_13 
REMARK    4  A    between atoms: C_11  and  C_20 
REMARK    5  A    between atoms: N_12  and  C_13 
REMARK    6  A    between atoms: C_13  and  C_18 
REMARK    7  A    between atoms: C_14  and  C_23 
REMARK    8  A    between atoms: C_16  and  O_17 
REMARK       I    between atoms: C_18  and  N_19 
REMARK    9  A    between atoms: N_19  and  C_27 
REMARK   10  A    between atoms: C_23  and  C_27 
REMARK   11  A    between atoms: N_24  and  C_25 
REMARK   12  A    between atoms: C_27  and  C_28 
ROOT
HETATM    1  O           1     -19.963  -6.516  -7.547  0.00  0.00    -0.271 OA
HETATM    2  H           1     -22.182  -4.418  -6.828  0.00  0.00     0.163 HD
HETATM    3  C           1     -20.669  -5.831  -6.847  0.00  0.00     0.249 C 
HETATM    4  N           1     -21.590  -4.991  -7.415  0.00  0.00    -0.345 N 
ENDROOT
BRANCH   3   5
HETATM    5  C           1     -20.538  -5.902  -5.345  0.00  0.00     0.278 C 
BRANCH   5   6
HETATM    6  C           1     -21.888  -6.250  -4.733  0.00  0.00     0.081 C 
BRANCH   6   7
HETATM    7  C           1     -21.684  -6.821  -3.364  0.00  0.00    -0.056 A 
HETATM    8  C           1     -22.337  -6.254  -2.269  0.00  0.00     0.010 A 
HETATM    9  C           1     -22.147  -6.786  -0.993  0.00  0.00     0.037 A 
HETATM   10  C           1     -21.305  -7.883  -0.812  0.00  0.00     0.065 A 
HETATM   11  C           1     -20.652  -8.448  -1.908  0.00  0.00     0.037 A 
HETATM   12  C           1     -20.841  -7.917  -3.183  0.00  0.00     0.010 A 
BRANCH  10  13
HETATM   13  O           1     -21.120  -8.399   0.426  0.00  0.00    -0.361 OA
HETATM   14  H           1     -20.306  -8.017   0.793  0.00  0.00     0.217 HD
ENDBRANCH  10  13
ENDBRANCH   6   7
ENDBRANCH   5   6
BRANCH   5  15
HETATM   15  N           1     -20.079  -4.573  -4.821  0.00  0.00    -0.066 N 
HETATM   16  H           1     -19.937  -4.638  -3.787  0.00  0.00     0.275 HD
HETATM   17  H           1     -19.178  -4.310  -5.280  0.00  0.00     0.275 HD
HETATM   18  H           1     -20.801  -3.848  -5.029  0.00  0.00     0.275 HD
ENDBRANCH   5  15
ENDBRANCH   3   5
BRANCH   4  19
HETATM   19  C           1     -21.715  -4.924  -8.858  0.00  0.00     0.185 C 
BRANCH  19  20
HETATM   20  C           1     -22.919  -4.065  -9.224  0.00  0.00     0.036 C 
BRANCH  20  21
HETATM   21  C           1     -23.516  -4.558 -10.535  0.00  0.00     0.004 C 
BRANCH  21  22
HETATM   22  C           1     -23.922  -3.365 -11.389  0.00  0.00     0.027 C 
BRANCH  22  23
HETATM   23  C           1     -22.677  -2.705 -11.967  0.00  0.00     0.229 C 
BRANCH  23  24
HETATM   24  N           1     -21.906  -3.709 -12.772  0.00  0.00    -0.079 N 
HETATM   25  H           1     -22.572  -4.328 -13.288  0.00  0.00     0.274 HD
HETATM   26  H           1     -21.293  -3.211 -13.455  0.00  0.00     0.274 HD
HETATM   27  H           1     -21.318  -4.289 -12.133  0.00  0.00     0.274 HD
ENDBRANCH  23  24
ENDBRANCH  22  23
ENDBRANCH  21  22
ENDBRANCH  20  21
ENDBRANCH  19  20
BRANCH  19  28
HETATM   28  C           1     -20.466  -4.312  -9.442  0.00  0.00     0.196 C 
HETATM   29  O           1     -19.850  -3.426  -8.811  0.00  0.00    -0.646 OA
HETATM   30  O           1     -20.048  -4.690 -10.558  0.00  0.00    -0.646 OA
ENDBRANCH  19  28
ENDBRANCH   4  19
TORSDOF 12
ENDMDL
MODEL 6
REMARK VINA RESULT:      -6.5     13.906     15.092
REMARK  12 active torsions:
REMARK  status: ('A' for Active; 'I' for Inactive)
REMARK    1  A    between atoms: C_5  and  C_25 
REMARK    2  A    between atoms: C_5  and  C_14 
REMARK    3  A    between atoms: C_11  and  C_13 
REMARK    4  A    between atoms: C_11  and  C_20 
REMARK    5  A    between atoms: N_12  and  C_13 
REMARK    6  A    between atoms: C_13  and  C_18 
REMARK    7  A    between atoms: C_14  and  C_23 
REMARK    8  A    between atoms: C_16  and  O_17 
REMARK       I    between atoms: C_18  and  N_19 
REMARK    9  A    between atoms: N_19  and  C_27 
REMARK   10  A    between atoms: C_23  and  C_27 
REMARK   11  A    between atoms: N_24  and  C_25 
REMARK   12  A    between atoms: C_27  and  C_28 
ROOT
HETATM    1  O           1     -22.885  -5.775  -5.629  0.00  0.00    -0.271 OA
HETATM    2  H           1     -19.958  -6.554  -4.809  0.00  0.00     0.163 HD
HETATM    3  C           1     -21.677  -5.753  -5.640  0.00  0.00     0.249 C 
HETATM    4  N           1     -20.970  -6.572  -4.800  0.00  0.00    -0.345 N 
ENDROOT
BRANCH   3   5
HETATM    5  C           1     -20.948  -4.825  -6.579  0.00  0.00     0.278 C 
BRANCH   5   6
HETATM    6  C           1     -20.699  -5.534  -7.903  0.00  0.00     0.081 C 
BRANCH   6   7
HETATM    7  C           1     -21.256  -4.712  -9.023  0.00  0.00    -0.056 A 
HETATM    8  C           1     -20.430  -4.320 -10.077  0.00  0.00     0.010 A 
HETATM    9  C           1     -20.948  -3.554 -11.121  0.00  0.00     0.037 A 
HETATM   10  C           1     -22.292  -3.180 -11.112  0.00  0.00     0.065 A 
HETATM   11  C           1     -23.117  -3.572 -10.058  0.00  0.00     0.037 A 
HETATM   12  C           1     -22.599  -4.338  -9.014  0.00  0.00     0.010 A 
BRANCH  10  13
HETATM   13  O           1     -22.795  -2.436 -12.126  0.00  0.00    -0.361 OA
HETATM   14  H           1     -23.123  -3.042 -12.810  0.00  0.00     0.217 HD
ENDBRANCH  10  13
ENDBRANCH   6   7
ENDBRANCH   5   6
BRANCH   5  15
HETATM   15  N           1     -19.636  -4.427  -5.970  0.00  0.00    -0.066 N 
HETATM   16  H           1     -19.073  -3.896  -6.673  0.00  0.00     0.275 HD
HETATM   17  H           1     -19.808  -3.823  -5.134  0.00  0.00     0.275 HD
HETATM   18  H           1     -19.113  -5.283  -5.679  0.00  0.00     0.275 HD
ENDBRANCH   5  15
ENDBRANCH   3   5
BRANCH   4  19
HETATM   19  C           1     -21.671  -7.463  -3.897  0.00  0.00     0.185 C 
BRANCH  19  20
HETATM   20  C           1     -21.006  -8.834  -3.919  0.00  0.00     0.036 C 
BRANCH  20  21
HETATM   21  C           1     -19.779  -8.790  -4.819  0.00  0.00     0.004 C 
BRANCH  21  22
HETATM   22  C           1     -18.578  -9.348  -4.069  0.00  0.00     0.027 C 
BRANCH  22  23
HETATM   23  C           1     -17.923 -10.444  -4.901  0.00  0.00     0.229 C 
BRANCH  23  24
HETATM   24  N           1     -18.202 -10.203  -6.355  0.00  0.00    -0.079 N 
HETATM   25  H           1     -17.358  -9.784  -6.808  0.00  0.00     0.274 HD
HETATM   26  H           1     -18.434 -11.109  -6.819  0.00  0.00     0.274 HD
HETATM   27  H           1     -19.008  -9.545  -6.449  0.00  0.00     0.274 HD
ENDBRANCH  23  24
ENDBRANCH  22  23
ENDBRANCH  21  22
ENDBRANCH  20  21
ENDBRANCH  19  20
BRANCH  19  28
HETATM   28  C           1     -21.621  -6.903  -2.498  0.00  0.00     0.196 C 
HETATM   29  O           1     -20.872  -7.422  -1.642  0.00  0.00    -0.646 OA
HETATM   30  O           1     -22.329  -5.918  -2.193  0.00  0.00    -0.646 OA
ENDBRANCH  19  28
ENDBRANCH   4  19
TORSDOF 12
ENDMDL
MODEL 7
REMARK VINA RESULT:      -6.3      5.102      7.286
REMARK  12 active torsions:
REMARK  status: ('A' for Active; 'I' for Inactive)
REMARK    1  A    between atoms: C_5  and  C_25 
REMARK    2  A    between atoms: C_5  and  C_14 
REMARK    3  A    between atoms: C_11  and  C_13 
REMARK    4  A    between atoms: C_11  and  C_20 
REMARK    5  A    between atoms: N_12  and  C_13 
REMARK    6  A    between atoms: C_13  and  C_18 
REMARK    7  A    between atoms: C_14  and  C_23 
REMARK    8  A    between atoms: C_16  and  O_17 
REMARK       I    between atoms: C_18  and  N_19 
REMARK    9  A    between atoms: N_19  and  C_27 
REMARK   10  A    between atoms: C_23  and  C_27 
REMARK   11  A    between atoms: N_24  and  C_25 
REMARK   12  A    between atoms: C_27  and  C_28 
ROOT
HETATM    1  O           1     -33.735  -1.801 -11.220  0.00  0.00    -0.271 OA
HETATM    2  H           1     -36.223  -2.135 -13.102  0.00  0.00     0.163 HD
HETATM    3  C           1     -34.495  -2.349 -11.983  0.00  0.00     0.249 C 
HETATM    4  N           1     -35.587  -1.676 -12.462  0.00  0.00    -0.345 N 
ENDROOT
BRANCH   3   5
HETATM    5  C           1     -34.239  -3.773 -12.409  0.00  0.00     0.278 C 
BRANCH   5   6
HETATM    6  C           1     -33.070  -4.339 -11.615  0.00  0.00     0.081 C 
BRANCH   6   7
HETATM    7  C           1     -33.473  -5.636 -10.986  0.00  0.00    -0.056 A 
HETATM    8  C           1     -34.721  -5.754 -10.372  0.00  0.00     0.010 A 
HETATM    9  C           1     -35.097  -6.963  -9.785  0.00  0.00     0.037 A 
HETATM   10  C           1     -34.227  -8.053  -9.812  0.00  0.00     0.065 A 
HETATM   11  C           1     -32.980  -7.933 -10.426  0.00  0.00     0.037 A 
HETATM   12  C           1     -32.603  -6.725 -11.012  0.00  0.00     0.010 A 
BRANCH  10  13
HETATM   13  O           1     -34.592  -9.226  -9.242  0.00  0.00    -0.361 OA
HETATM   14  H           1     -34.308  -9.946  -9.828  0.00  0.00     0.217 HD
ENDBRANCH  10  13
ENDBRANCH   6   7
ENDBRANCH   5   6
BRANCH   5  15
HETATM   15  N           1     -33.911  -3.805 -13.873  0.00  0.00    -0.066 N 
HETATM   16  H           1     -32.919  -3.507 -14.014  0.00  0.00     0.275 HD
HETATM   17  H           1     -34.038  -4.777 -14.237  0.00  0.00     0.275 HD
HETATM   18  H           1     -34.547  -3.155 -14.387  0.00  0.00     0.275 HD
ENDBRANCH   5  15
ENDBRANCH   3   5
BRANCH   4  19
HETATM   19  C           1     -35.833  -0.307 -12.052  0.00  0.00     0.185 C 
BRANCH  19  20
HETATM   20  C           1     -36.088   0.554 -13.283  0.00  0.00     0.036 C 
BRANCH  20  21
HETATM   21  C           1     -37.136  -0.114 -14.163  0.00  0.00     0.004 C 
BRANCH  21  22
HETATM   22  C           1     -36.915   0.293 -15.614  0.00  0.00     0.027 C 
BRANCH  22  23
HETATM   23  C           1     -35.786   1.313 -15.690  0.00  0.00     0.229 C 
BRANCH  23  24
HETATM   24  N           1     -36.301   2.585 -16.296  0.00  0.00    -0.079 N 
HETATM   25  H           1     -35.773   2.791 -17.175  0.00  0.00     0.274 HD
HETATM   26  H           1     -37.316   2.478 -16.517  0.00  0.00     0.274 HD
HETATM   27  H           1     -36.170   3.370 -15.620  0.00  0.00     0.274 HD
ENDBRANCH  23  24
ENDBRANCH  22  23
ENDBRANCH  21  22
ENDBRANCH  20  21
ENDBRANCH  19  20
BRANCH  19  28
HETATM   28  C           1     -37.041  -0.263 -11.150  0.00  0.00     0.196 C 
HETATM   29  O           1     -37.749  -1.282 -11.001  0.00  0.00    -0.646 OA
HETATM   30  O           1     -37.335   0.795 -10.551  0.00  0.00    -0.646 OA
ENDBRANCH  19  28
ENDBRANCH   4  19
TORSDOF 12
ENDMDL
MODEL 8
REMARK VINA RESULT:      -6.1      2.978      8.048
REMARK  12 active torsions:
REMARK  status: ('A' for Active; 'I' for Inactive)
REMARK    1  A    between atoms: C_5  and  C_25 
REMARK    2  A    between atoms: C_5  and  C_14 
REMARK    3  A    between atoms: C_11  and  C_13 
REMARK    4  A    between atoms: C_11  and  C_20 
REMARK    5  A    between atoms: N_12  and  C_13 
REMARK    6  A    between atoms: C_13  and  C_18 
REMARK    7  A    between atoms: C_14  and  C_23 
REMARK    8  A    between atoms: C_16  and  O_17 
REMARK       I    between atoms: C_18  and  N_19 
REMARK    9  A    between atoms: N_19  and  C_27 
REMARK   10  A    between atoms: C_23  and  C_27 
REMARK   11  A    between atoms: N_24  and  C_25 
REMARK   12  A    between atoms: C_27  and  C_28 
ROOT
HETATM    1  O           1     -35.189  -5.593 -14.491  0.00  0.00    -0.271 OA
HETATM    2  H           1     -33.351  -3.050 -14.440  0.00  0.00     0.163 HD
HETATM    3  C           1     -34.552  -4.683 -14.017  0.00  0.00     0.249 C 
HETATM    4  N           1     -33.885  -3.813 -14.837  0.00  0.00    -0.345 N 
ENDROOT
BRANCH   3   5
HETATM    5  C           1     -34.493  -4.504 -12.520  0.00  0.00     0.278 C 
BRANCH   5   6
HETATM    6  C           1     -33.797  -3.190 -12.192  0.00  0.00     0.081 C 
BRANCH   6   7
HETATM    7  C           1     -34.813  -2.177 -11.768  0.00  0.00    -0.056 A 
HETATM    8  C           1     -34.849  -0.925 -12.384  0.00  0.00     0.010 A 
HETATM    9  C           1     -35.796   0.019 -11.988  0.00  0.00     0.037 A 
HETATM   10  C           1     -36.707  -0.286 -10.977  0.00  0.00     0.065 A 
HETATM   11  C           1     -36.670  -1.537 -10.361  0.00  0.00     0.037 A 
HETATM   12  C           1     -35.723  -2.482 -10.756  0.00  0.00     0.010 A 
BRANCH  10  13
HETATM   13  O           1     -37.626   0.631 -10.593  0.00  0.00    -0.361 OA
HETATM   14  H           1     -37.250   1.515 -10.741  0.00  0.00     0.217 HD
ENDBRANCH  10  13
ENDBRANCH   6   7
ENDBRANCH   5   6
BRANCH   5  15
HETATM   15  N           1     -33.729  -5.641 -11.910  0.00  0.00    -0.066 N 
HETATM   16  H           1     -32.709  -5.410 -11.903  0.00  0.00     0.275 HD
HETATM   17  H           1     -34.057  -5.795 -10.930  0.00  0.00     0.275 HD
HETATM   18  H           1     -33.887  -6.508 -12.470  0.00  0.00     0.275 HD
ENDBRANCH   5  15
ENDBRANCH   3   5
BRANCH   4  19
HETATM   19  C           1     -33.941  -3.986 -16.276  0.00  0.00     0.185 C 
BRANCH  19  20
HETATM   20  C           1     -34.476  -2.713 -16.920  0.00  0.00     0.036 C 
BRANCH  20  21
HETATM   21  C           1     -35.105  -1.828 -15.852  0.00  0.00     0.004 C 
BRANCH  21  22
HETATM   22  C           1     -36.058  -0.838 -16.508  0.00  0.00     0.027 C 
BRANCH  22  23
HETATM   23  C           1     -36.145   0.424 -15.658  0.00  0.00     0.229 C 
BRANCH  23  24
HETATM   24  N           1     -37.427   1.142 -15.958  0.00  0.00    -0.079 N 
HETATM   25  H           1     -37.556   1.207 -16.994  0.00  0.00     0.274 HD
HETATM   26  H           1     -38.226   0.615 -15.540  0.00  0.00     0.274 HD
HETATM   27  H           1     -37.390   2.104 -15.552  0.00  0.00     0.274 HD
ENDBRANCH  23  24
ENDBRANCH  22  23
ENDBRANCH  21  22
ENDBRANCH  20  21
ENDBRANCH  19  20
BRANCH  19  28
HETATM   28  C           1     -32.557  -4.271 -16.802  0.00  0.00     0.196 C 
HETATM   29  O           1     -31.827  -3.332 -17.185  0.00  0.00    -0.646 OA
HETATM   30  O           1     -32.139  -5.449 -16.856  0.00  0.00    -0.646 OA
ENDBRANCH  19  28
ENDBRANCH   4  19
TORSDOF 12
ENDMDL
MODEL 9
REMARK VINA RESULT:      -6.1     14.086     16.427
REMARK  12 active torsions:
REMARK  status: ('A' for Active; 'I' for Inactive)
REMARK    1  A    between atoms: C_5  and  C_25 
REMARK    2  A    between atoms: C_5  and  C_14 
REMARK    3  A    between atoms: C_11  and  C_13 
REMARK    4  A    between atoms: C_11  and  C_20 
REMARK    5  A    between atoms: N_12  and  C_13 
REMARK    6  A    between atoms: C_13  and  C_18 
REMARK    7  A    between atoms: C_14  and  C_23 
REMARK    8  A    between atoms: C_16  and  O_17 
REMARK       I    between atoms: C_18  and  N_19 
REMARK    9  A    between atoms: N_19  and  C_27 
REMARK   10  A    between atoms: C_23  and  C_27 
REMARK   11  A    between atoms: N_24  and  C_25 
REMARK   12  A    between atoms: C_27  and  C_28 
ROOT
HETATM    1  O           1     -22.698  -6.667  -4.709  0.00  0.00    -0.271 OA
HETATM    2  H           1     -20.107  -4.917  -4.975  0.00  0.00     0.163 HD
HETATM    3  C           1     -21.709  -6.073  -4.353  0.00  0.00     0.249 C 
HETATM    4  N           1     -20.936  -5.416  -5.273  0.00  0.00    -0.345 N 
ENDROOT
BRANCH   3   5
HETATM    5  C           1     -21.325  -6.053  -2.894  0.00  0.00     0.278 C 
BRANCH   5   6
HETATM    6  C           1     -20.546  -7.317  -2.556  0.00  0.00     0.081 C 
BRANCH   6   7
HETATM    7  C           1     -21.444  -8.284  -1.849  0.00  0.00    -0.056 A 
HETATM    8  C           1     -21.882  -9.435  -2.504  0.00  0.00     0.010 A 
HETATM    9  C           1     -22.719 -10.336  -1.846  0.00  0.00     0.037 A 
HETATM   10  C           1     -23.119 -10.086  -0.533  0.00  0.00     0.065 A 
HETATM   11  C           1     -22.682  -8.934   0.121  0.00  0.00     0.037 A 
HETATM   12  C           1     -21.845  -8.033  -0.537  0.00  0.00     0.010 A 
BRANCH  10  13
HETATM   13  O           1     -23.932 -10.961   0.106  0.00  0.00    -0.361 OA
HETATM   14  H           1     -24.022 -10.670   1.028  0.00  0.00     0.217 HD
ENDBRANCH  10  13
ENDBRANCH   6   7
ENDBRANCH   5   6
BRANCH   5  15
HETATM   15  N           1     -22.565  -5.989  -2.052  0.00  0.00    -0.066 N 
HETATM   16  H           1     -22.326  -5.604  -1.110  0.00  0.00     0.275 HD
HETATM   17  H           1     -23.268  -5.368  -2.514  0.00  0.00     0.275 HD
HETATM   18  H           1     -22.964  -6.948  -1.946  0.00  0.00     0.275 HD
ENDBRANCH   5  15
ENDBRANCH   3   5
BRANCH   4  19
HETATM   19  C           1     -21.305  -5.435  -6.675  0.00  0.00     0.185 C 
BRANCH  19  20
HETATM   20  C           1     -21.835  -4.065  -7.080  0.00  0.00     0.036 C 
BRANCH  20  21
HETATM   21  C           1     -23.105  -4.235  -7.903  0.00  0.00     0.004 C 
BRANCH  21  22
HETATM   22  C           1     -22.841  -3.807  -9.340  0.00  0.00     0.027 C 
BRANCH  22  23
HETATM   23  C           1     -24.035  -4.180 -10.210  0.00  0.00     0.229 C 
BRANCH  23  24
HETATM   24  N           1     -25.304  -3.802  -9.505  0.00  0.00    -0.079 N 
HETATM   25  H           1     -25.082  -3.482  -8.535  0.00  0.00     0.274 HD
HETATM   26  H           1     -25.776  -3.031 -10.028  0.00  0.00     0.274 HD
HETATM   27  H           1     -25.937  -4.632  -9.460  0.00  0.00     0.274 HD
ENDBRANCH  23  24
ENDBRANCH  22  23
ENDBRANCH  21  22
ENDBRANCH  20  21
ENDBRANCH  19  20
BRANCH  19  28
HETATM   28  C           1     -20.093  -5.770  -7.509  0.00  0.00     0.196 C 
HETATM   29  O           1     -19.791  -5.056  -8.489  0.00  0.00    -0.646 OA
HETATM   30  O           1     -19.391  -6.764  -7.219  0.00  0.00    -0.646 OA
ENDBRANCH  19  28
ENDBRANCH   4  19
TORSDOF 12
ENDMDL
