MODEL 1
REMARK VINA RESULT:      -8.3      0.000      0.000
REMARK  10 active torsions:
REMARK  status: ('A' for Active; 'I' for Inactive)
REMARK    1  A    between atoms: N_7  and  C_20 
REMARK    2  A    between atoms: O_12  and  P_13 
REMARK    3  A    between atoms: P_13  and  O_14 
REMARK    4  A    between atoms: O_14  and  C_15 
REMARK    5  A    between atoms: C_18  and  C_19 
REMARK    6  A    between atoms: C_19  and  C_20 
REMARK    7  A    between atoms: C_20  and  C_21 
REMARK       I    between atoms: C_21  and  N_22 
REMARK    8  A    between atoms: N_22  and  C_26 
REMARK    9  A    between atoms: C_25  and  C_26 
REMARK   10  A    between atoms: C_26  and  C_28 
ROOT
HETATM    1  C           1     -20.929  -4.869  -6.398  0.00  0.00     0.278 C 
ENDROOT
BRANCH   1   2
HETATM    2  N           1     -19.632  -4.440  -5.779  0.00  0.00    -0.066 N 
HETATM    3  H           1     -19.481  -4.964  -4.888  0.00  0.00     0.275 HD
HETATM    4  H           1     -19.665  -3.414  -5.580  0.00  0.00     0.275 HD
HETATM    5  H           1     -18.847  -4.641  -6.439  0.00  0.00     0.275 HD
ENDBRANCH   1   2
BRANCH   1   6
HETATM    6  C           1     -20.652  -5.560  -7.727  0.00  0.00     0.081 C 
BRANCH   6   7
HETATM    7  C           1     -21.241  -4.752  -8.842  0.00  0.00    -0.056 A 
HETATM    8  C           1     -20.459  -4.413  -9.946  0.00  0.00     0.010 A 
HETATM    9  C           1     -21.009  -3.661 -10.985  0.00  0.00     0.038 A 
HETATM   10  C           1     -22.340  -3.249 -10.919  0.00  0.00     0.081 A 
HETATM   11  C           1     -23.122  -3.588  -9.815  0.00  0.00     0.038 A 
HETATM   12  C           1     -22.572  -4.341  -8.776  0.00  0.00     0.010 A 
BRANCH  10  13
HETATM   13  O           1     -22.873  -2.518 -11.927  0.00  0.00    -0.247 OA
BRANCH  13  14
HETATM   14  P           1     -23.899  -3.253 -12.935  0.00  0.00     0.411 P 
HETATM   15  O           1     -23.629  -2.813 -14.322  0.00  0.00    -0.624 OA
HETATM   16  O           1     -25.289  -2.902 -12.568  0.00  0.00    -0.624 OA
BRANCH  14  17
HETATM   17  O           1     -23.703  -4.853 -12.831  0.00  0.00    -0.300 OA
HETATM   18  H           1     -24.577  -5.202 -12.767  0.00  0.00     0.223 HD
ENDBRANCH  14  17
ENDBRANCH  13  14
ENDBRANCH  10  13
ENDBRANCH   6   7
ENDBRANCH   1   6
BRANCH   1  19
HETATM   19  C           1     -21.635  -5.828  -5.470  0.00  0.00     0.249 C 
HETATM   20  O           1     -22.840  -5.905  -5.486  0.00  0.00    -0.271 OA
HETATM   21  N           1     -20.909  -6.610  -4.613  0.00  0.00    -0.344 N 
HETATM   22  H           1     -19.900  -6.545  -4.601  0.00  0.00     0.163 HD
BRANCH  21  23
HETATM   23  C           1     -21.587  -7.531  -3.721  0.00  0.00     0.189 C 
BRANCH  23  24
HETATM   24  C           1     -21.651  -6.935  -2.337  0.00  0.00     0.197 C 
HETATM   25  O           1     -22.323  -5.900  -2.133  0.00  0.00    -0.646 OA
HETATM   26  O           1     -21.032  -7.474  -1.394  0.00  0.00    -0.646 OA
ENDBRANCH  23  24
BRANCH  23  27
HETATM   27  C           1     -20.821  -8.846  -3.673  0.00  0.00     0.010 C 
HETATM   28  C           1     -21.755  -9.991  -4.040  0.00  0.00     0.012 C 
HETATM   29  C           1     -19.665  -8.799  -4.663  0.00  0.00     0.012 C 
ENDBRANCH  23  27
ENDBRANCH  21  23
ENDBRANCH   1  19
TORSDOF 10
ENDMDL
MODEL 2
REMARK VINA RESULT:      -7.9      1.579      2.094
REMARK  10 active torsions:
REMARK  status: ('A' for Active; 'I' for Inactive)
REMARK    1  A    between atoms: N_7  and  C_20 
REMARK    2  A    between atoms: O_12  and  P_13 
REMARK    3  A    between atoms: P_13  and  O_14 
REMARK    4  A    between atoms: O_14  and  C_15 
REMARK    5  A    between atoms: C_18  and  C_19 
REMARK    6  A    between atoms: C_19  and  C_20 
REMARK    7  A    between atoms: C_20  and  C_21 
REMARK       I    between atoms: C_21  and  N_22 
REMARK    8  A    between atoms: N_22  and  C_26 
REMARK    9  A    between atoms: C_25  and  C_26 
REMARK   10  A    between atoms: C_26  and  C_28 
ROOT
HETATM    1  C           1     -21.015  -5.462  -6.899  0.00  0.00     0.278 C 
ENDROOT
BRANCH   1   2
HETATM    2  N           1     -20.826  -4.152  -6.193  0.00  0.00    -0.066 N 
HETATM    3  H           1     -19.949  -3.697  -6.532  0.00  0.00     0.275 HD
HETATM    4  H           1     -20.758  -4.319  -5.163  0.00  0.00     0.275 HD
HETATM    5  H           1     -21.641  -3.528  -6.391  0.00  0.00     0.275 HD
ENDBRANCH   1   2
BRANCH   1   6
HETATM    6  C           1     -20.204  -5.464  -8.189  0.00  0.00     0.081 C 
BRANCH   6   7
HETATM    7  C           1     -20.928  -4.673  -9.235  0.00  0.00    -0.056 A 
HETATM    8  C           1     -20.262  -4.280 -10.396  0.00  0.00     0.010 A 
HETATM    9  C           1     -20.936  -3.543 -11.370  0.00  0.00     0.038 A 
HETATM   10  C           1     -22.275  -3.202 -11.183  0.00  0.00     0.081 A 
HETATM   11  C           1     -22.941  -3.595 -10.023  0.00  0.00     0.038 A 
HETATM   12  C           1     -22.266  -4.332  -9.048  0.00  0.00     0.010 A 
BRANCH  10  13
HETATM   13  O           1     -22.930  -2.486 -12.130  0.00  0.00    -0.247 OA
BRANCH  13  14
HETATM   14  P           1     -23.970  -3.269 -13.086  0.00  0.00     0.411 P 
HETATM   15  O           1     -23.696  -2.925 -14.499  0.00  0.00    -0.624 OA
HETATM   16  O           1     -25.353  -2.871 -12.741  0.00  0.00    -0.624 OA
BRANCH  14  17
HETATM   17  O           1     -23.801  -4.862 -12.878  0.00  0.00    -0.300 OA
HETATM   18  H           1     -24.098  -5.247 -13.685  0.00  0.00     0.223 HD
ENDBRANCH  14  17
ENDBRANCH  13  14
ENDBRANCH  10  13
ENDBRANCH   6   7
ENDBRANCH   1   6
BRANCH   1  19
HETATM   19  C           1     -20.545  -6.585  -6.007  0.00  0.00     0.249 C 
HETATM   20  O           1     -19.475  -7.108  -6.209  0.00  0.00    -0.271 OA
HETATM   21  N           1     -21.332  -7.011  -4.972  0.00  0.00    -0.344 N 
HETATM   22  H           1     -22.228  -6.573  -4.804  0.00  0.00     0.163 HD
BRANCH  21  23
HETATM   23  C           1     -20.881  -8.091  -4.115  0.00  0.00     0.189 C 
BRANCH  23  24
HETATM   24  C           1     -21.432  -9.400  -4.624  0.00  0.00     0.197 C 
HETATM   25  O           1     -22.266 -10.035  -3.942  0.00  0.00    -0.646 OA
HETATM   26  O           1     -21.053  -9.851  -5.727  0.00  0.00    -0.646 OA
ENDBRANCH  23  24
BRANCH  23  27
HETATM   27  C           1     -21.374  -7.851  -2.694  0.00  0.00     0.010 C 
HETATM   28  C           1     -20.240  -8.111  -1.713  0.00  0.00     0.012 C 
HETATM   29  C           1     -21.843  -6.409  -2.555  0.00  0.00     0.012 C 
ENDBRANCH  23  27
ENDBRANCH  21  23
ENDBRANCH   1  19
TORSDOF 10
ENDMDL
MODEL 3
REMARK VINA RESULT:      -7.5      3.576      9.127
REMARK  10 active torsions:
REMARK  status: ('A' for Active; 'I' for Inactive)
REMARK    1  A    between atoms: N_7  and  C_20 
REMARK    2  A    between atoms: O_12  and  P_13 
REMARK    3  A    between atoms: P_13  and  O_14 
REMARK    4  A    between atoms: O_14  and  C_15 
REMARK    5  A    between atoms: C_18  and  C_19 
REMARK    6  A    between atoms: C_19  and  C_20 
REMARK    7  A    between atoms: C_20  and  C_21 
REMARK       I    between atoms: C_21  and  N_22 
REMARK    8  A    between atoms: N_22  and  C_26 
REMARK    9  A    between atoms: C_25  and  C_26 
REMARK   10  A    between atoms: C_26  and  C_28 
ROOT
HETATM    1  C           1     -21.110  -5.459  -6.516  0.00  0.00     0.278 C 
ENDROOT
BRANCH   1   2
HETATM    2  N           1     -20.035  -4.866  -5.654  0.00  0.00    -0.066 N 
HETATM    3  H           1     -19.457  -4.207  -6.223  0.00  0.00     0.275 HD
HETATM    4  H           1     -19.428  -5.631  -5.282  0.00  0.00     0.275 HD
HETATM    5  H           1     -20.472  -4.349  -4.858  0.00  0.00     0.275 HD
ENDBRANCH   1   2
BRANCH   1   6
HETATM    6  C           1     -22.274  -5.904  -5.639  0.00  0.00     0.081 C 
BRANCH   6   7
HETATM    7  C           1     -21.760  -6.759  -4.523  0.00  0.00    -0.056 A 
HETATM    8  C           1     -21.759  -6.273  -3.215  0.00  0.00     0.010 A 
HETATM    9  C           1     -21.280  -7.071  -2.176  0.00  0.00     0.038 A 
HETATM   10  C           1     -20.803  -8.353  -2.444  0.00  0.00     0.081 A 
HETATM   11  C           1     -20.804  -8.839  -3.751  0.00  0.00     0.038 A 
HETATM   12  C           1     -21.283  -8.042  -4.791  0.00  0.00     0.010 A 
BRANCH  10  13
HETATM   13  O           1     -20.338  -9.127  -1.434  0.00  0.00    -0.247 OA
BRANCH  13  14
HETATM   14  P           1     -21.391  -9.633  -0.319  0.00  0.00     0.411 P 
HETATM   15  O           1     -20.952 -10.940   0.219  0.00  0.00    -0.624 OA
HETATM   16  O           1     -22.729  -9.777  -0.934  0.00  0.00    -0.624 OA
BRANCH  14  17
HETATM   17  O           1     -21.465  -8.555   0.882  0.00  0.00    -0.300 OA
HETATM   18  H           1     -22.368  -8.551   1.151  0.00  0.00     0.223 HD
ENDBRANCH  14  17
ENDBRANCH  13  14
ENDBRANCH  10  13
ENDBRANCH   6   7
ENDBRANCH   1   6
BRANCH   1  19
HETATM   19  C           1     -21.591  -4.423  -7.503  0.00  0.00     0.249 C 
HETATM   20  O           1     -21.524  -3.250  -7.227  0.00  0.00    -0.271 OA
HETATM   21  N           1     -22.103  -4.815  -8.710  0.00  0.00    -0.344 N 
HETATM   22  H           1     -22.160  -5.799  -8.941  0.00  0.00     0.163 HD
BRANCH  21  23
HETATM   23  C           1     -22.566  -3.821  -9.659  0.00  0.00     0.189 C 
BRANCH  23  24
HETATM   24  C           1     -24.072  -3.872  -9.747  0.00  0.00     0.197 C 
HETATM   25  O           1     -24.642  -4.929 -10.091  0.00  0.00    -0.646 OA
HETATM   26  O           1     -24.748  -2.856  -9.476  0.00  0.00    -0.646 OA
ENDBRANCH  23  24
BRANCH  23  27
HETATM   27  C           1     -21.968  -4.110 -11.029  0.00  0.00     0.010 C 
HETATM   28  C           1     -22.315  -2.975 -11.983  0.00  0.00     0.012 C 
HETATM   29  C           1     -20.454  -4.225 -10.909  0.00  0.00     0.012 C 
ENDBRANCH  23  27
ENDBRANCH  21  23
ENDBRANCH   1  19
TORSDOF 10
ENDMDL
MODEL 4
REMARK VINA RESULT:      -7.5      2.209      2.946
REMARK  10 active torsions:
REMARK  status: ('A' for Active; 'I' for Inactive)
REMARK    1  A    between atoms: N_7  and  C_20 
REMARK    2  A    between atoms: O_12  and  P_13 
REMARK    3  A    between atoms: P_13  and  O_14 
REMARK    4  A    between atoms: O_14  and  C_15 
REMARK    5  A    between atoms: C_18  and  C_19 
REMARK    6  A    between atoms: C_19  and  C_20 
REMARK    7  A    between atoms: C_20  and  C_21 
REMARK       I    between atoms: C_21  and  N_22 
REMARK    8  A    between atoms: N_22  and  C_26 
REMARK    9  A    between atoms: C_25  and  C_26 
REMARK   10  A    between atoms: C_26  and  C_28 
ROOT
HETATM    1  C           1     -21.067  -6.087  -5.630  0.00  0.00     0.278 C 
ENDROOT
BRANCH   1   2
HETATM    2  N           1     -21.543  -5.820  -4.233  0.00  0.00    -0.066 N 
HETATM    3  H           1     -22.539  -6.123  -4.141  0.00  0.00     0.275 HD
HETATM    4  H           1     -21.469  -4.797  -4.031  0.00  0.00     0.275 HD
HETATM    5  H           1     -20.953  -6.352  -3.556  0.00  0.00     0.275 HD
ENDBRANCH   1   2
BRANCH   1   6
HETATM    6  C           1     -20.276  -4.886  -6.134  0.00  0.00     0.081 C 
BRANCH   6   7
HETATM    7  C           1     -20.830  -4.440  -7.452  0.00  0.00    -0.056 A 
HETATM    8  C           1     -20.022  -4.454  -8.589  0.00  0.00     0.010 A 
HETATM    9  C           1     -20.539  -4.038  -9.816  0.00  0.00     0.038 A 
HETATM   10  C           1     -21.863  -3.610  -9.906  0.00  0.00     0.081 A 
HETATM   11  C           1     -22.671  -3.595  -8.769  0.00  0.00     0.038 A 
HETATM   12  C           1     -22.154  -4.011  -7.541  0.00  0.00     0.010 A 
BRANCH  10  13
HETATM   13  O           1     -22.365  -3.206 -11.098  0.00  0.00    -0.247 OA
BRANCH  13  14
HETATM   14  P           1     -23.691  -3.942 -11.650  0.00  0.00     0.411 P 
HETATM   15  O           1     -24.891  -3.199 -11.205  0.00  0.00    -0.624 OA
HETATM   16  O           1     -23.743  -5.325 -11.125  0.00  0.00    -0.624 OA
BRANCH  14  17
HETATM   17  O           1     -23.652  -3.983 -13.265  0.00  0.00    -0.300 OA
HETATM   18  H           1     -24.074  -4.793 -13.499  0.00  0.00     0.223 HD
ENDBRANCH  14  17
ENDBRANCH  13  14
ENDBRANCH  10  13
ENDBRANCH   6   7
ENDBRANCH   1   6
BRANCH   1  19
HETATM   19  C           1     -20.182  -7.310  -5.634  0.00  0.00     0.249 C 
HETATM   20  O           1     -19.336  -7.439  -6.486  0.00  0.00    -0.271 OA
HETATM   21  N           1     -20.340  -8.271  -4.672  0.00  0.00    -0.344 N 
HETATM   22  H           1     -21.049  -8.162  -3.960  0.00  0.00     0.163 HD
BRANCH  21  23
HETATM   23  C           1     -19.491  -9.446  -4.675  0.00  0.00     0.189 C 
BRANCH  23  24
HETATM   24  C           1     -20.281 -10.636  -5.161  0.00  0.00     0.197 C 
HETATM   25  O           1     -20.940 -11.321  -4.349  0.00  0.00    -0.646 OA
HETATM   26  O           1     -20.275 -10.938  -6.374  0.00  0.00    -0.646 OA
ENDBRANCH  23  24
BRANCH  23  27
HETATM   27  C           1     -18.988  -9.713  -3.263  0.00  0.00     0.010 C 
HETATM   28  C           1     -17.482  -9.492  -3.211  0.00  0.00     0.012 C 
HETATM   29  C           1     -19.673  -8.762  -2.291  0.00  0.00     0.012 C 
ENDBRANCH  23  27
ENDBRANCH  21  23
ENDBRANCH   1  19
TORSDOF 10
ENDMDL
MODEL 5
REMARK VINA RESULT:      -7.3      1.423      1.664
REMARK  10 active torsions:
REMARK  status: ('A' for Active; 'I' for Inactive)
REMARK    1  A    between atoms: N_7  and  C_20 
REMARK    2  A    between atoms: O_12  and  P_13 
REMARK    3  A    between atoms: P_13  and  O_14 
REMARK    4  A    between atoms: O_14  and  C_15 
REMARK    5  A    between atoms: C_18  and  C_19 
REMARK    6  A    between atoms: C_19  and  C_20 
REMARK    7  A    between atoms: C_20  and  C_21 
REMARK       I    between atoms: C_21  and  N_22 
REMARK    8  A    between atoms: N_22  and  C_26 
REMARK    9  A    between atoms: C_25  and  C_26 
REMARK   10  A    between atoms: C_26  and  C_28 
ROOT
HETATM    1  C           1     -20.960  -5.932  -6.048  0.00  0.00     0.278 C 
ENDROOT
BRANCH   1   2
HETATM    2  N           1     -20.484  -4.977  -4.994  0.00  0.00    -0.066 N 
HETATM    3  H           1     -20.685  -5.375  -4.048  0.00  0.00     0.275 HD
HETATM    4  H           1     -20.981  -4.064  -5.102  0.00  0.00     0.275 HD
HETATM    5  H           1     -19.455  -4.828  -5.097  0.00  0.00     0.275 HD
ENDBRANCH   1   2
BRANCH   1   6
HETATM    6  C           1     -20.055  -5.831  -7.269  0.00  0.00     0.081 C 
BRANCH   6   7
HETATM    7  C           1     -20.733  -5.019  -8.329  0.00  0.00    -0.056 A 
HETATM    8  C           1     -20.073  -4.745  -9.527  0.00  0.00     0.010 A 
HETATM    9  C           1     -20.706  -3.988 -10.514  0.00  0.00     0.038 A 
HETATM   10  C           1     -21.997  -3.507 -10.302  0.00  0.00     0.081 A 
HETATM   11  C           1     -22.658  -3.781  -9.104  0.00  0.00     0.038 A 
HETATM   12  C           1     -22.025  -4.538  -8.118  0.00  0.00     0.010 A 
BRANCH  10  13
HETATM   13  O           1     -22.612  -2.772 -11.261  0.00  0.00    -0.247 OA
BRANCH  13  14
HETATM   14  P           1     -23.875  -3.427 -12.024  0.00  0.00     0.411 P 
HETATM   15  O           1     -24.051  -2.773 -13.340  0.00  0.00    -0.624 OA
HETATM   16  O           1     -25.097  -3.236 -11.211  0.00  0.00    -0.624 OA
BRANCH  14  17
HETATM   17  O           1     -23.615  -5.007 -12.240  0.00  0.00    -0.300 OA
HETATM   18  H           1     -23.865  -5.176 -13.133  0.00  0.00     0.223 HD
ENDBRANCH  14  17
ENDBRANCH  13  14
ENDBRANCH  10  13
ENDBRANCH   6   7
ENDBRANCH   1   6
BRANCH   1  19
HETATM   19  C           1     -20.920  -7.340  -5.507  0.00  0.00     0.249 C 
HETATM   20  O           1     -21.228  -8.268  -6.215  0.00  0.00    -0.271 OA
HETATM   21  N           1     -20.533  -7.564  -4.213  0.00  0.00    -0.344 N 
HETATM   22  H           1     -20.275  -6.787  -3.620  0.00  0.00     0.163 HD
BRANCH  21  23
HETATM   23  C           1     -20.493  -8.917  -3.692  0.00  0.00     0.189 C 
BRANCH  23  24
HETATM   24  C           1     -21.474  -9.045  -2.552  0.00  0.00     0.197 C 
HETATM   25  O           1     -22.254 -10.022  -2.506  0.00  0.00    -0.646 OA
HETATM   26  O           1     -21.508  -8.175  -1.656  0.00  0.00    -0.646 OA
ENDBRANCH  23  24
BRANCH  23  27
HETATM   27  C           1     -19.090  -9.228  -3.191  0.00  0.00     0.010 C 
HETATM   28  C           1     -19.114 -10.517  -2.382  0.00  0.00     0.012 C 
HETATM   29  C           1     -18.151  -9.393  -4.379  0.00  0.00     0.012 C 
ENDBRANCH  23  27
ENDBRANCH  21  23
ENDBRANCH   1  19
TORSDOF 10
ENDMDL
MODEL 6
REMARK VINA RESULT:      -7.2      1.426      2.026
REMARK  10 active torsions:
REMARK  status: ('A' for Active; 'I' for Inactive)
REMARK    1  A    between atoms: N_7  and  C_20 
REMARK    2  A    between atoms: O_12  and  P_13 
REMARK    3  A    between atoms: P_13  and  O_14 
REMARK    4  A    between atoms: O_14  and  C_15 
REMARK    5  A    between atoms: C_18  and  C_19 
REMARK    6  A    between atoms: C_19  and  C_20 
REMARK    7  A    between atoms: C_20  and  C_21 
REMARK       I    between atoms: C_21  and  N_22 
REMARK    8  A    between atoms: N_22  and  C_26 
REMARK    9  A    between atoms: C_25  and  C_26 
REMARK   10  A    between atoms: C_26  and  C_28 
ROOT
HETATM    1  C           1     -20.162  -6.054  -5.783  0.00  0.00     0.278 C 
ENDROOT
BRANCH   1   2
HETATM    2  N           1     -20.270  -6.686  -7.139  0.00  0.00    -0.066 N 
HETATM    3  H           1     -21.248  -6.587  -7.493  0.00  0.00     0.275 HD
HETATM    4  H           1     -20.023  -7.699  -7.070  0.00  0.00     0.275 HD
HETATM    5  H           1     -19.612  -6.211  -7.798  0.00  0.00     0.275 HD
ENDBRANCH   1   2
BRANCH   1   6
HETATM    6  C           1     -20.356  -4.548  -5.909  0.00  0.00     0.081 C 
BRANCH   6   7
HETATM    7  C           1     -20.876  -4.224  -7.275  0.00  0.00    -0.056 A 
HETATM    8  C           1     -22.234  -3.965  -7.460  0.00  0.00     0.010 A 
HETATM    9  C           1     -22.718  -3.663  -8.733  0.00  0.00     0.038 A 
HETATM   10  C           1     -21.845  -3.619  -9.819  0.00  0.00     0.081 A 
HETATM   11  C           1     -20.487  -3.878  -9.634  0.00  0.00     0.038 A 
HETATM   12  C           1     -20.003  -4.180  -8.361  0.00  0.00     0.010 A 
BRANCH  10  13
HETATM   13  O           1     -22.316  -3.326 -11.056  0.00  0.00    -0.247 OA
BRANCH  13  14
HETATM   14  P           1     -23.691  -4.028 -11.530  0.00  0.00     0.411 P 
HETATM   15  O           1     -24.839  -3.184 -11.132  0.00  0.00    -0.624 OA
HETATM   16  O           1     -23.811  -5.358 -10.892  0.00  0.00    -0.624 OA
BRANCH  14  17
HETATM   17  O           1     -23.682  -4.201 -13.136  0.00  0.00    -0.300 OA
HETATM   18  H           1     -22.934  -3.709 -13.430  0.00  0.00     0.223 HD
ENDBRANCH  14  17
ENDBRANCH  13  14
ENDBRANCH  10  13
ENDBRANCH   6   7
ENDBRANCH   1   6
BRANCH   1  19
HETATM   19  C           1     -21.228  -6.624  -4.878  0.00  0.00     0.249 C 
HETATM   20  O           1     -22.363  -6.731  -5.275  0.00  0.00    -0.271 OA
HETATM   21  N           1     -20.906  -7.019  -3.607  0.00  0.00    -0.344 N 
HETATM   22  H           1     -19.955  -6.928  -3.275  0.00  0.00     0.163 HD
BRANCH  21  23
HETATM   23  C           1     -21.929  -7.566  -2.737  0.00  0.00     0.189 C 
BRANCH  23  24
HETATM   24  C           1     -22.241  -6.574  -1.643  0.00  0.00     0.197 C 
HETATM   25  O           1     -21.994  -5.360  -1.811  0.00  0.00    -0.646 OA
HETATM   26  O           1     -22.745  -6.967  -0.568  0.00  0.00    -0.646 OA
ENDBRANCH  23  24
BRANCH  23  27
HETATM   27  C           1     -21.427  -8.864  -2.118  0.00  0.00     0.010 C 
HETATM   28  C           1     -21.797 -10.032  -3.022  0.00  0.00     0.012 C 
HETATM   29  C           1     -19.914  -8.802  -1.964  0.00  0.00     0.012 C 
ENDBRANCH  23  27
ENDBRANCH  21  23
ENDBRANCH   1  19
TORSDOF 10
ENDMDL
MODEL 7
REMARK VINA RESULT:      -7.0      1.759      2.251
REMARK  10 active torsions:
REMARK  status: ('A' for Active; 'I' for Inactive)
REMARK    1  A    between atoms: N_7  and  C_20 
REMARK    2  A    between atoms: O_12  and  P_13 
REMARK    3  A    between atoms: P_13  and  O_14 
REMARK    4  A    between atoms: O_14  and  C_15 
REMARK    5  A    between atoms: C_18  and  C_19 
REMARK    6  A    between atoms: C_19  and  C_20 
REMARK    7  A    between atoms: C_20  and  C_21 
REMARK       I    between atoms: C_21  and  N_22 
REMARK    8  A    between atoms: N_22  and  C_26 
REMARK    9  A    between atoms: C_25  and  C_26 
REMARK   10  A    between atoms: C_26  and  C_28 
ROOT
HETATM    1  C           1     -21.033  -4.962  -6.885  0.00  0.00     0.278 C 
ENDROOT
BRANCH   1   2
HETATM    2  N           1     -19.820  -4.087  -7.001  0.00  0.00    -0.066 N 
HETATM    3  H           1     -18.967  -4.640  -6.761  0.00  0.00     0.275 HD
HETATM    4  H           1     -19.910  -3.280  -6.342  0.00  0.00     0.275 HD
HETATM    5  H           1     -19.740  -3.729  -7.979  0.00  0.00     0.275 HD
ENDBRANCH   1   2
BRANCH   1   6
HETATM    6  C           1     -21.236  -5.722  -8.189  0.00  0.00     0.081 C 
BRANCH   6   7
HETATM    7  C           1     -21.685  -4.772  -9.256  0.00  0.00    -0.056 A 
HETATM    8  C           1     -20.805  -4.397 -10.271  0.00  0.00     0.010 A 
HETATM    9  C           1     -21.225  -3.512 -11.265  0.00  0.00     0.038 A 
HETATM   10  C           1     -22.523  -3.003 -11.243  0.00  0.00     0.081 A 
HETATM   11  C           1     -23.403  -3.378 -10.228  0.00  0.00     0.038 A 
HETATM   12  C           1     -22.983  -4.263  -9.235  0.00  0.00     0.010 A 
BRANCH  10  13
HETATM   13  O           1     -22.930  -2.144 -12.209  0.00  0.00    -0.247 OA
BRANCH  13  14
HETATM   14  P           1     -23.486  -2.765 -13.592  0.00  0.00     0.411 P 
HETATM   15  O           1     -24.333  -1.764 -14.278  0.00  0.00    -0.624 OA
HETATM   16  O           1     -24.288  -3.975 -13.302  0.00  0.00    -0.624 OA
BRANCH  14  17
HETATM   17  O           1     -22.243  -3.161 -14.544  0.00  0.00    -0.300 OA
HETATM   18  H           1     -21.665  -3.663 -13.994  0.00  0.00     0.223 HD
ENDBRANCH  14  17
ENDBRANCH  13  14
ENDBRANCH  10  13
ENDBRANCH   6   7
ENDBRANCH   1   6
BRANCH   1  19
HETATM   19  C           1     -20.838  -5.944  -5.755  0.00  0.00     0.249 C 
HETATM   20  O           1     -21.180  -5.651  -4.635  0.00  0.00    -0.271 OA
HETATM   21  N           1     -20.274  -7.166  -6.002  0.00  0.00    -0.344 N 
HETATM   22  H           1     -19.987  -7.411  -6.941  0.00  0.00     0.163 HD
BRANCH  21  23
HETATM   23  C           1     -20.085  -8.110  -4.917  0.00  0.00     0.189 C 
BRANCH  23  24
HETATM   24  C           1     -18.883  -8.975  -5.206  0.00  0.00     0.197 C 
HETATM   25  O           1     -18.456  -9.080  -6.377  0.00  0.00    -0.646 OA
HETATM   26  O           1     -18.315  -9.587  -4.276  0.00  0.00    -0.646 OA
ENDBRANCH  23  24
BRANCH  23  27
HETATM   27  C           1     -21.323  -8.988  -4.788  0.00  0.00     0.010 C 
HETATM   28  C           1     -21.104 -10.288  -5.551  0.00  0.00     0.012 C 
HETATM   29  C           1     -21.574  -9.300  -3.319  0.00  0.00     0.012 C 
ENDBRANCH  23  27
ENDBRANCH  21  23
ENDBRANCH   1  19
TORSDOF 10
ENDMDL
MODEL 8
REMARK VINA RESULT:      -6.8      2.603      3.806
REMARK  10 active torsions:
REMARK  status: ('A' for Active; 'I' for Inactive)
REMARK    1  A    between atoms: N_7  and  C_20 
REMARK    2  A    between atoms: O_12  and  P_13 
REMARK    3  A    between atoms: P_13  and  O_14 
REMARK    4  A    between atoms: O_14  and  C_15 
REMARK    5  A    between atoms: C_18  and  C_19 
REMARK    6  A    between atoms: C_19  and  C_20 
REMARK    7  A    between atoms: C_20  and  C_21 
REMARK       I    between atoms: C_21  and  N_22 
REMARK    8  A    between atoms: N_22  and  C_26 
REMARK    9  A    between atoms: C_25  and  C_26 
REMARK   10  A    between atoms: C_26  and  C_28 
ROOT
HETATM    1  C           1     -20.441  -7.502  -4.835  0.00  0.00     0.278 C 
ENDROOT
BRANCH   1   2
HETATM    2  N           1     -21.183  -8.278  -5.884  0.00  0.00    -0.066 N 
HETATM    3  H           1     -20.743  -8.109  -6.817  0.00  0.00     0.275 HD
HETATM    4  H           1     -22.180  -7.966  -5.906  0.00  0.00     0.275 HD
HETATM    5  H           1     -21.141  -9.297  -5.658  0.00  0.00     0.275 HD
ENDBRANCH   1   2
BRANCH   1   6
HETATM    6  C           1     -21.181  -6.201  -4.549  0.00  0.00     0.081 C 
BRANCH   6   7
HETATM    7  C           1     -21.280  -5.396  -5.808  0.00  0.00    -0.056 A 
HETATM    8  C           1     -22.523  -5.192  -6.409  0.00  0.00     0.010 A 
HETATM    9  C           1     -22.615  -4.442  -7.582  0.00  0.00     0.038 A 
HETATM   10  C           1     -21.465  -3.896  -8.152  0.00  0.00     0.081 A 
HETATM   11  C           1     -20.223  -4.100  -7.552  0.00  0.00     0.038 A 
HETATM   12  C           1     -20.131  -4.851  -6.379  0.00  0.00     0.010 A 
BRANCH  10  13
HETATM   13  O           1     -21.555  -3.168  -9.291  0.00  0.00    -0.247 OA
BRANCH  13  14
HETATM   14  P           1     -21.463  -3.950 -10.701  0.00  0.00     0.411 P 
HETATM   15  O           1     -21.460  -2.971 -11.810  0.00  0.00    -0.624 OA
HETATM   16  O           1     -22.627  -4.853 -10.841  0.00  0.00    -0.624 OA
BRANCH  14  17
HETATM   17  O           1     -20.102  -4.819 -10.747  0.00  0.00    -0.300 OA
HETATM   18  H           1     -19.625  -4.567  -9.974  0.00  0.00     0.223 HD
ENDBRANCH  14  17
ENDBRANCH  13  14
ENDBRANCH  10  13
ENDBRANCH   6   7
ENDBRANCH   1   6
BRANCH   1  19
HETATM   19  C           1     -20.357  -8.321  -3.570  0.00  0.00     0.249 C 
HETATM   20  O           1     -19.340  -8.915  -3.303  0.00  0.00    -0.271 OA
HETATM   21  N           1     -21.433  -8.391  -2.728  0.00  0.00    -0.344 N 
HETATM   22  H           1     -22.285  -7.894  -2.953  0.00  0.00     0.163 HD
BRANCH  21  23
HETATM   23  C           1     -21.353  -9.178  -1.512  0.00  0.00     0.189 C 
BRANCH  23  24
HETATM   24  C           1     -21.947 -10.543  -1.758  0.00  0.00     0.197 C 
HETATM   25  O           1     -23.183 -10.712  -1.668  0.00  0.00    -0.646 OA
HETATM   26  O           1     -21.204 -11.505  -2.050  0.00  0.00    -0.646 OA
ENDBRANCH  23  24
BRANCH  23  27
HETATM   27  C           1     -22.128  -8.479  -0.403  0.00  0.00     0.010 C 
HETATM   28  C           1     -21.327  -8.541   0.890  0.00  0.00     0.012 C 
HETATM   29  C           1     -22.361  -7.024  -0.785  0.00  0.00     0.012 C 
ENDBRANCH  23  27
ENDBRANCH  21  23
ENDBRANCH   1  19
TORSDOF 10
ENDMDL
MODEL 9
REMARK VINA RESULT:      -6.8      1.706      2.381
REMARK  10 active torsions:
REMARK  status: ('A' for Active; 'I' for Inactive)
REMARK    1  A    between atoms: N_7  and  C_20 
REMARK    2  A    between atoms: O_12  and  P_13 
REMARK    3  A    between atoms: P_13  and  O_14 
REMARK    4  A    between atoms: O_14  and  C_15 
REMARK    5  A    between atoms: C_18  and  C_19 
REMARK    6  A    between atoms: C_19  and  C_20 
REMARK    7  A    between atoms: C_20  and  C_21 
REMARK       I    between atoms: C_21  and  N_22 
REMARK    8  A    between atoms: N_22  and  C_26 
REMARK    9  A    between atoms: C_25  and  C_26 
REMARK   10  A    between atoms: C_26  and  C_28 
ROOT
HETATM    1  C           1     -20.978  -5.677  -5.486  0.00  0.00     0.278 C 
ENDROOT
BRANCH   1   2
HETATM    2  N           1     -20.084  -4.511  -5.182  0.00  0.00    -0.066 N 
HETATM    3  H           1     -20.036  -4.370  -4.148  0.00  0.00     0.275 HD
HETATM    4  H           1     -20.469  -3.651  -5.634  0.00  0.00     0.275 HD
HETATM    5  H           1     -19.126  -4.701  -5.553  0.00  0.00     0.275 HD
ENDBRANCH   1   2
BRANCH   1   6
HETATM    6  C           1     -20.621  -6.245  -6.854  0.00  0.00     0.081 C 
BRANCH   6   7
HETATM    7  C           1     -21.137  -5.333  -7.924  0.00  0.00    -0.056 A 
HETATM    8  C           1     -20.351  -5.057  -9.043  0.00  0.00     0.010 A 
HETATM    9  C           1     -20.832  -4.207 -10.039  0.00  0.00     0.038 A 
HETATM   10  C           1     -22.098  -3.636  -9.917  0.00  0.00     0.081 A 
HETATM   11  C           1     -22.884  -3.912  -8.798  0.00  0.00     0.038 A 
HETATM   12  C           1     -22.403  -4.762  -7.802  0.00  0.00     0.010 A 
BRANCH  10  13
HETATM   13  O           1     -22.565  -2.810 -10.885  0.00  0.00    -0.247 OA
BRANCH  13  14
HETATM   14  P           1     -23.859  -3.285 -11.726  0.00  0.00     0.411 P 
HETATM   15  O           1     -25.068  -3.170 -10.880  0.00  0.00    -0.624 OA
HETATM   16  O           1     -23.684  -4.692 -12.149  0.00  0.00    -0.624 OA
BRANCH  14  17
HETATM   17  O           1     -24.027  -2.349 -13.032  0.00  0.00    -0.300 OA
HETATM   18  H           1     -23.932  -2.933 -13.765  0.00  0.00     0.223 HD
ENDBRANCH  14  17
ENDBRANCH  13  14
ENDBRANCH  10  13
ENDBRANCH   6   7
ENDBRANCH   1   6
BRANCH   1  19
HETATM   19  C           1     -20.790  -6.742  -4.434  0.00  0.00     0.249 C 
HETATM   20  O           1     -21.239  -6.581  -3.325  0.00  0.00    -0.271 OA
HETATM   21  N           1     -20.111  -7.891  -4.738  0.00  0.00    -0.344 N 
HETATM   22  H           1     -19.735  -8.026  -5.667  0.00  0.00     0.163 HD
BRANCH  21  23
HETATM   23  C           1     -19.930  -8.916  -3.727  0.00  0.00     0.189 C 
BRANCH  23  24
HETATM   24  C           1     -18.474  -9.308  -3.664  0.00  0.00     0.197 C 
HETATM   25  O           1     -17.800  -9.377  -4.715  0.00  0.00    -0.646 OA
HETATM   26  O           1     -17.943  -9.565  -2.562  0.00  0.00    -0.646 OA
ENDBRANCH  23  24
BRANCH  23  27
HETATM   27  C           1     -20.769 -10.135  -4.083  0.00  0.00     0.010 C 
HETATM   28  C           1     -22.043 -10.135  -3.249  0.00  0.00     0.012 C 
HETATM   29  C           1     -21.132 -10.088  -5.562  0.00  0.00     0.012 C 
ENDBRANCH  23  27
ENDBRANCH  21  23
ENDBRANCH   1  19
TORSDOF 10
ENDMDL
