MODEL 1
REMARK VINA RESULT:      -6.0      0.000      0.000
REMARK  8 active torsions:
REMARK  status: ('A' for Active; 'I' for Inactive)
REMARK    1  A    between atoms: C_2  and  C_17 
REMARK    2  A    between atoms: C_2  and  C_10 
REMARK       I    between atoms: C_9  and  N_13 
REMARK    3  A    between atoms: C_9  and  C_16 
REMARK    4  A    between atoms: C_10  and  N_11 
REMARK    5  A    between atoms: C_12  and  C_18 
REMARK    6  A    between atoms: C_12  and  N_13 
REMARK    7  A    between atoms: N_14  and  C_16 
REMARK    8  A    between atoms: C_16  and  C_17 
ROOT
HETATM    1  C           1     -23.241  -3.648  -9.125  0.00  0.00     0.274 C 
ENDROOT
BRANCH   1   2
HETATM    2  C           1     -24.154  -3.359 -10.292  0.00  0.00     0.248 C 
HETATM    3  O           1     -25.345  -3.261 -10.117  0.00  0.00    -0.271 OA
HETATM    4  N           1     -23.632  -3.207 -11.548  0.00  0.00    -0.349 N 
HETATM    5  H           1     -22.634  -3.288 -11.694  0.00  0.00     0.163 HD
BRANCH   4   6
HETATM    6  C           1     -24.509  -2.929 -12.670  0.00  0.00     0.235 C 
BRANCH   6   7
HETATM    7  C           1     -23.690  -2.449 -13.842  0.00  0.00     0.191 C 
HETATM    8  O           1     -22.539  -2.900 -14.026  0.00  0.00    -0.647 OA
HETATM    9  O           1     -24.162  -1.600 -14.629  0.00  0.00    -0.647 OA
ENDBRANCH   6   7
ENDBRANCH   4   6
ENDBRANCH   1   2
BRANCH   1  10
HETATM   10  N           1     -24.062  -4.073  -7.944  0.00  0.00    -0.067 N 
HETATM   11  H           1     -24.966  -3.549  -7.943  0.00  0.00     0.275 HD
HETATM   12  H           1     -24.252  -5.098  -8.002  0.00  0.00     0.275 HD
HETATM   13  H           1     -23.539  -3.866  -7.063  0.00  0.00     0.275 HD
ENDBRANCH   1  10
BRANCH   1  14
HETATM   14  C           1     -22.275  -4.764  -9.500  0.00  0.00     0.044 C 
BRANCH  14  15
HETATM   15  C           1     -20.849  -4.231  -9.479  0.00  0.00     0.030 C 
BRANCH  15  16
HETATM   16  C           1     -20.233  -4.370 -10.865  0.00  0.00     0.230 C 
BRANCH  16  17
HETATM   17  N           1     -20.406  -3.086 -11.621  0.00  0.00    -0.079 N 
HETATM   18  H           1     -21.374  -2.722 -11.471  0.00  0.00     0.274 HD
HETATM   19  H           1     -19.712  -2.384 -11.277  0.00  0.00     0.274 HD
HETATM   20  H           1     -20.252  -3.259 -12.640  0.00  0.00     0.274 HD
ENDBRANCH  16  17
ENDBRANCH  15  16
ENDBRANCH  14  15
ENDBRANCH   1  14
TORSDOF 8
ENDMDL
MODEL 2
REMARK VINA RESULT:      -5.9      1.325      2.752
REMARK  8 active torsions:
REMARK  status: ('A' for Active; 'I' for Inactive)
REMARK    1  A    between atoms: C_2  and  C_17 
REMARK    2  A    between atoms: C_2  and  C_10 
REMARK       I    between atoms: C_9  and  N_13 
REMARK    3  A    between atoms: C_9  and  C_16 
REMARK    4  A    between atoms: C_10  and  N_11 
REMARK    5  A    between atoms: C_12  and  C_18 
REMARK    6  A    between atoms: C_12  and  N_13 
REMARK    7  A    between atoms: N_14  and  C_16 
REMARK    8  A    between atoms: C_16  and  C_17 
ROOT
HETATM    1  C           1     -21.320  -4.348 -10.792  0.00  0.00     0.274 C 
ENDROOT
BRANCH   1   2
HETATM    2  C           1     -22.604  -4.014 -11.512  0.00  0.00     0.248 C 
HETATM    3  O           1     -23.615  -4.624 -11.255  0.00  0.00    -0.271 OA
HETATM    4  N           1     -22.622  -3.022 -12.454  0.00  0.00    -0.349 N 
HETATM    5  H           1     -21.775  -2.512 -12.668  0.00  0.00     0.163 HD
BRANCH   4   6
HETATM    6  C           1     -23.856  -2.701 -13.145  0.00  0.00     0.235 C 
BRANCH   6   7
HETATM    7  C           1     -23.538  -2.149 -14.513  0.00  0.00     0.191 C 
HETATM    8  O           1     -22.662  -2.695 -15.218  0.00  0.00    -0.647 OA
HETATM    9  O           1     -24.149  -1.146 -14.941  0.00  0.00    -0.647 OA
ENDBRANCH   6   7
ENDBRANCH   4   6
ENDBRANCH   1   2
BRANCH   1  10
HETATM   10  N           1     -20.163  -3.736 -11.526  0.00  0.00    -0.067 N 
HETATM   11  H           1     -19.274  -4.185 -11.208  0.00  0.00     0.275 HD
HETATM   12  H           1     -20.283  -3.886 -12.552  0.00  0.00     0.275 HD
HETATM   13  H           1     -20.126  -2.712 -11.325  0.00  0.00     0.275 HD
ENDBRANCH   1  10
BRANCH   1  14
HETATM   14  C           1     -21.372  -3.793  -9.375  0.00  0.00     0.044 C 
BRANCH  14  15
HETATM   15  C           1     -21.697  -4.917  -8.401  0.00  0.00     0.030 C 
BRANCH  15  16
HETATM   16  C           1     -22.764  -4.449  -7.420  0.00  0.00     0.230 C 
BRANCH  16  17
HETATM   17  N           1     -23.987  -4.022  -8.177  0.00  0.00    -0.079 N 
HETATM   18  H           1     -24.832  -4.154  -7.577  0.00  0.00     0.274 HD
HETATM   19  H           1     -23.900  -3.014  -8.439  0.00  0.00     0.274 HD
HETATM   20  H           1     -24.079  -4.600  -9.042  0.00  0.00     0.274 HD
ENDBRANCH  16  17
ENDBRANCH  15  16
ENDBRANCH  14  15
ENDBRANCH   1  14
TORSDOF 8
ENDMDL
MODEL 3
REMARK VINA RESULT:      -5.5      3.298      5.408
REMARK  8 active torsions:
REMARK  status: ('A' for Active; 'I' for Inactive)
REMARK    1  A    between atoms: C_2  and  C_17 
REMARK    2  A    between atoms: C_2  and  C_10 
REMARK       I    between atoms: C_9  and  N_13 
REMARK    3  A    between atoms: C_9  and  C_16 
REMARK    4  A    between atoms: C_10  and  N_11 
REMARK    5  A    between atoms: C_12  and  C_18 
REMARK    6  A    between atoms: C_12  and  N_13 
REMARK    7  A    between atoms: N_14  and  C_16 
REMARK    8  A    between atoms: C_16  and  C_17 
ROOT
HETATM    1  C           1     -23.939  -4.383  -9.598  0.00  0.00     0.274 C 
ENDROOT
BRANCH   1   2
HETATM    2  C           1     -22.573  -4.289  -8.962  0.00  0.00     0.248 C 
HETATM    3  O           1     -21.582  -4.417  -9.641  0.00  0.00    -0.271 OA
HETATM    4  N           1     -22.458  -4.060  -7.618  0.00  0.00    -0.349 N 
HETATM    5  H           1     -23.289  -3.953  -7.050  0.00  0.00     0.163 HD
BRANCH   4   6
HETATM    6  C           1     -21.145  -3.970  -7.007  0.00  0.00     0.235 C 
BRANCH   6   7
HETATM    7  C           1     -20.807  -5.283  -6.347  0.00  0.00     0.191 C 
HETATM    8  O           1     -20.887  -5.396  -5.104  0.00  0.00    -0.647 OA
HETATM    9  O           1     -20.446  -6.258  -7.040  0.00  0.00    -0.647 OA
ENDBRANCH   6   7
ENDBRANCH   4   6
ENDBRANCH   1   2
BRANCH   1  10
HETATM   10  N           1     -24.735  -3.159  -9.254  0.00  0.00    -0.067 N 
HETATM   11  H           1     -25.098  -3.244  -8.277  0.00  0.00     0.275 HD
HETATM   12  H           1     -24.124  -2.315  -9.326  0.00  0.00     0.275 HD
HETATM   13  H           1     -25.537  -3.067  -9.916  0.00  0.00     0.275 HD
ENDBRANCH   1  10
BRANCH   1  14
HETATM   14  C           1     -23.790  -4.482 -11.111  0.00  0.00     0.044 C 
BRANCH  14  15
HETATM   15  C           1     -24.124  -3.138 -11.743  0.00  0.00     0.030 C 
BRANCH  15  16
HETATM   16  C           1     -22.946  -2.664 -12.585  0.00  0.00     0.230 C 
BRANCH  16  17
HETATM   17  N           1     -21.895  -3.734 -12.621  0.00  0.00    -0.079 N 
HETATM   18  H           1     -22.297  -4.629 -12.260  0.00  0.00     0.274 HD
HETATM   19  H           1     -21.570  -3.870 -13.605  0.00  0.00     0.274 HD
HETATM   20  H           1     -21.087  -3.448 -12.024  0.00  0.00     0.274 HD
ENDBRANCH  16  17
ENDBRANCH  15  16
ENDBRANCH  14  15
ENDBRANCH   1  14
TORSDOF 8
ENDMDL
MODEL 4
REMARK VINA RESULT:      -5.5      2.282      2.614
REMARK  8 active torsions:
REMARK  status: ('A' for Active; 'I' for Inactive)
REMARK    1  A    between atoms: C_2  and  C_17 
REMARK    2  A    between atoms: C_2  and  C_10 
REMARK       I    between atoms: C_9  and  N_13 
REMARK    3  A    between atoms: C_9  and  C_16 
REMARK    4  A    between atoms: C_10  and  N_11 
REMARK    5  A    between atoms: C_12  and  C_18 
REMARK    6  A    between atoms: C_12  and  N_13 
REMARK    7  A    between atoms: N_14  and  C_16 
REMARK    8  A    between atoms: C_16  and  C_17 
ROOT
HETATM    1  C           1     -22.684  -3.596  -8.825  0.00  0.00     0.274 C 
ENDROOT
BRANCH   1   2
HETATM    2  C           1     -22.256  -3.764 -10.263  0.00  0.00     0.248 C 
HETATM    3  O           1     -21.384  -4.551 -10.545  0.00  0.00    -0.271 OA
HETATM    4  N           1     -22.856  -3.025 -11.246  0.00  0.00    -0.349 N 
HETATM    5  H           1     -23.587  -2.366 -11.009  0.00  0.00     0.163 HD
BRANCH   4   6
HETATM    6  C           1     -22.445  -3.186 -12.628  0.00  0.00     0.235 C 
BRANCH   6   7
HETATM    7  C           1     -23.641  -3.018 -13.531  0.00  0.00     0.191 C 
HETATM    8  O           1     -24.780  -2.862 -13.038  0.00  0.00    -0.647 OA
HETATM    9  O           1     -23.495  -3.033 -14.773  0.00  0.00    -0.647 OA
ENDBRANCH   6   7
ENDBRANCH   4   6
ENDBRANCH   1   2
BRANCH   1  10
HETATM   10  N           1     -24.166  -3.801  -8.718  0.00  0.00    -0.067 N 
HETATM   11  H           1     -24.389  -4.809  -8.881  0.00  0.00     0.275 HD
HETATM   12  H           1     -24.489  -3.521  -7.765  0.00  0.00     0.275 HD
HETATM   13  H           1     -24.652  -3.217  -9.436  0.00  0.00     0.275 HD
ENDBRANCH   1  10
BRANCH   1  14
HETATM   14  C           1     -21.966  -4.622  -7.958  0.00  0.00     0.044 C 
BRANCH  14  15
HETATM   15  C           1     -20.981  -3.912  -7.040  0.00  0.00     0.030 C 
BRANCH  15  16
HETATM   16  C           1     -19.761  -4.797  -6.820  0.00  0.00     0.230 C 
BRANCH  16  17
HETATM   17  N           1     -20.006  -6.146  -7.427  0.00  0.00    -0.079 N 
HETATM   18  H           1     -20.978  -6.457  -7.204  0.00  0.00     0.274 HD
HETATM   19  H           1     -19.888  -6.088  -8.464  0.00  0.00     0.274 HD
HETATM   20  H           1     -19.322  -6.833  -7.036  0.00  0.00     0.274 HD
ENDBRANCH  16  17
ENDBRANCH  15  16
ENDBRANCH  14  15
ENDBRANCH   1  14
TORSDOF 8
ENDMDL
MODEL 5
REMARK VINA RESULT:      -5.2      2.493      3.378
REMARK  8 active torsions:
REMARK  status: ('A' for Active; 'I' for Inactive)
REMARK    1  A    between atoms: C_2  and  C_17 
REMARK    2  A    between atoms: C_2  and  C_10 
REMARK       I    between atoms: C_9  and  N_13 
REMARK    3  A    between atoms: C_9  and  C_16 
REMARK    4  A    between atoms: C_10  and  N_11 
REMARK    5  A    between atoms: C_12  and  C_18 
REMARK    6  A    between atoms: C_12  and  N_13 
REMARK    7  A    between atoms: N_14  and  C_16 
REMARK    8  A    between atoms: C_16  and  C_17 
ROOT
HETATM    1  C           1     -22.192  -3.891  -8.192  0.00  0.00     0.274 C 
ENDROOT
BRANCH   1   2
HETATM    2  C           1     -22.065  -3.890  -9.696  0.00  0.00     0.248 C 
HETATM    3  O           1     -20.978  -3.769 -10.209  0.00  0.00    -0.271 OA
HETATM    4  N           1     -23.181  -4.026 -10.477  0.00  0.00    -0.349 N 
HETATM    5  H           1     -24.091  -4.127 -10.046  0.00  0.00     0.163 HD
BRANCH   4   6
HETATM    6  C           1     -23.059  -4.024 -11.922  0.00  0.00     0.235 C 
BRANCH   6   7
HETATM    7  C           1     -24.164  -3.189 -12.519  0.00  0.00     0.191 C 
HETATM    8  O           1     -24.033  -2.707 -13.665  0.00  0.00    -0.647 OA
HETATM    9  O           1     -25.210  -2.979 -11.869  0.00  0.00    -0.647 OA
ENDBRANCH   6   7
ENDBRANCH   4   6
ENDBRANCH   1   2
BRANCH   1  10
HETATM   10  N           1     -23.626  -4.117  -7.812  0.00  0.00    -0.067 N 
HETATM   11  H           1     -23.732  -4.009  -6.778  0.00  0.00     0.275 HD
HETATM   12  H           1     -24.229  -3.418  -8.299  0.00  0.00     0.275 HD
HETATM   13  H           1     -23.914  -5.081  -8.093  0.00  0.00     0.275 HD
ENDBRANCH   1  10
BRANCH   1  14
HETATM   14  C           1     -21.333  -5.006  -7.610  0.00  0.00     0.044 C 
BRANCH  14  15
HETATM   15  C           1     -20.585  -4.487  -6.390  0.00  0.00     0.030 C 
BRANCH  15  16
HETATM   16  C           1     -20.719  -5.487  -5.247  0.00  0.00     0.230 C 
BRANCH  16  17
HETATM   17  N           1     -22.142  -5.950  -5.152  0.00  0.00    -0.079 N 
HETATM   18  H           1     -22.741  -5.167  -4.806  0.00  0.00     0.274 HD
HETATM   19  H           1     -22.474  -6.250  -6.096  0.00  0.00     0.274 HD
HETATM   20  H           1     -22.203  -6.755  -4.489  0.00  0.00     0.274 HD
ENDBRANCH  16  17
ENDBRANCH  15  16
ENDBRANCH  14  15
ENDBRANCH   1  14
TORSDOF 8
ENDMDL
MODEL 6
REMARK VINA RESULT:      -5.0      6.577      9.047
REMARK  8 active torsions:
REMARK  status: ('A' for Active; 'I' for Inactive)
REMARK    1  A    between atoms: C_2  and  C_17 
REMARK    2  A    between atoms: C_2  and  C_10 
REMARK       I    between atoms: C_9  and  N_13 
REMARK    3  A    between atoms: C_9  and  C_16 
REMARK    4  A    between atoms: C_10  and  N_11 
REMARK    5  A    between atoms: C_12  and  C_18 
REMARK    6  A    between atoms: C_12  and  N_13 
REMARK    7  A    between atoms: N_14  and  C_16 
REMARK    8  A    between atoms: C_16  and  C_17 
ROOT
HETATM    1  C           1     -20.550  -6.276  -5.401  0.00  0.00     0.274 C 
ENDROOT
BRANCH   1   2
HETATM    2  C           1     -21.611  -6.224  -4.329  0.00  0.00     0.248 C 
HETATM    3  O           1     -22.778  -6.175  -4.637  0.00  0.00    -0.271 OA
HETATM    4  N           1     -21.250  -6.232  -3.009  0.00  0.00    -0.349 N 
HETATM    5  H           1     -20.272  -6.273  -2.752  0.00  0.00     0.163 HD
BRANCH   4   6
HETATM    6  C           1     -22.270  -6.182  -1.978  0.00  0.00     0.235 C 
BRANCH   6   7
HETATM    7  C           1     -22.028  -7.285  -0.978  0.00  0.00     0.191 C 
HETATM    8  O           1     -20.967  -7.945  -1.020  0.00  0.00    -0.647 OA
HETATM    9  O           1     -22.888  -7.539  -0.107  0.00  0.00    -0.647 OA
ENDBRANCH   6   7
ENDBRANCH   4   6
ENDBRANCH   1   2
BRANCH   1  10
HETATM   10  N           1     -20.952  -7.268  -6.452  0.00  0.00    -0.067 N 
HETATM   11  H           1     -21.975  -7.467  -6.369  0.00  0.00     0.275 HD
HETATM   12  H           1     -20.749  -6.875  -7.398  0.00  0.00     0.275 HD
HETATM   13  H           1     -20.413  -8.153  -6.320  0.00  0.00     0.275 HD
ENDBRANCH   1  10
BRANCH   1  14
HETATM   14  C           1     -20.400  -4.899  -6.035  0.00  0.00     0.044 C 
BRANCH  14  15
HETATM   15  C           1     -20.967  -4.925  -7.448  0.00  0.00     0.030 C 
BRANCH  15  16
HETATM   16  C           1     -22.035  -3.847  -7.589  0.00  0.00     0.230 C 
BRANCH  16  17
HETATM   17  N           1     -23.369  -4.411  -7.199  0.00  0.00    -0.079 N 
HETATM   18  H           1     -23.616  -4.089  -6.236  0.00  0.00     0.274 HD
HETATM   19  H           1     -24.096  -4.082  -7.874  0.00  0.00     0.274 HD
HETATM   20  H           1     -23.324  -5.455  -7.217  0.00  0.00     0.274 HD
ENDBRANCH  16  17
ENDBRANCH  15  16
ENDBRANCH  14  15
ENDBRANCH   1  14
TORSDOF 8
ENDMDL
MODEL 7
REMARK VINA RESULT:      -4.9      4.071      6.425
REMARK  8 active torsions:
REMARK  status: ('A' for Active; 'I' for Inactive)
REMARK    1  A    between atoms: C_2  and  C_17 
REMARK    2  A    between atoms: C_2  and  C_10 
REMARK       I    between atoms: C_9  and  N_13 
REMARK    3  A    between atoms: C_9  and  C_16 
REMARK    4  A    between atoms: C_10  and  N_11 
REMARK    5  A    between atoms: C_12  and  C_18 
REMARK    6  A    between atoms: C_12  and  N_13 
REMARK    7  A    between atoms: N_14  and  C_16 
REMARK    8  A    between atoms: C_16  and  C_17 
ROOT
HETATM    1  C           1     -22.724  -4.430  -8.801  0.00  0.00     0.274 C 
ENDROOT
BRANCH   1   2
HETATM    2  C           1     -21.921  -4.387  -7.524  0.00  0.00     0.248 C 
HETATM    3  O           1     -21.461  -3.339  -7.135  0.00  0.00    -0.271 OA
HETATM    4  N           1     -21.713  -5.533  -6.806  0.00  0.00    -0.349 N 
HETATM    5  H           1     -22.099  -6.410  -7.132  0.00  0.00     0.163 HD
BRANCH   4   6
HETATM    6  C           1     -20.942  -5.491  -5.578  0.00  0.00     0.235 C 
BRANCH   6   7
HETATM    7  C           1     -21.626  -6.327  -4.525  0.00  0.00     0.191 C 
HETATM    8  O           1     -21.709  -5.907  -3.351  0.00  0.00    -0.647 OA
HETATM    9  O           1     -22.110  -7.440  -4.827  0.00  0.00    -0.647 OA
ENDBRANCH   6   7
ENDBRANCH   4   6
ENDBRANCH   1   2
BRANCH   1  10
HETATM   10  N           1     -23.983  -3.634  -8.626  0.00  0.00    -0.067 N 
HETATM   11  H           1     -23.838  -2.914  -7.882  0.00  0.00     0.275 HD
HETATM   12  H           1     -24.224  -3.162  -9.526  0.00  0.00     0.275 HD
HETATM   13  H           1     -24.762  -4.271  -8.347  0.00  0.00     0.275 HD
ENDBRANCH   1  10
BRANCH   1  14
HETATM   14  C           1     -21.902  -3.837  -9.938  0.00  0.00     0.044 C 
BRANCH  14  15
HETATM   15  C           1     -22.645  -4.025 -11.253  0.00  0.00     0.030 C 
BRANCH  15  16
HETATM   16  C           1     -22.668  -2.707 -12.019  0.00  0.00     0.230 C 
BRANCH  16  17
HETATM   17  N           1     -24.005  -2.534 -12.676  0.00  0.00    -0.079 N 
HETATM   18  H           1     -24.352  -3.461 -13.010  0.00  0.00     0.274 HD
HETATM   19  H           1     -24.683  -2.137 -11.987  0.00  0.00     0.274 HD
HETATM   20  H           1     -23.912  -1.883 -13.488  0.00  0.00     0.274 HD
ENDBRANCH  16  17
ENDBRANCH  15  16
ENDBRANCH  14  15
ENDBRANCH   1  14
TORSDOF 8
ENDMDL
MODEL 8
REMARK VINA RESULT:      -4.6      4.859      7.143
REMARK  8 active torsions:
REMARK  status: ('A' for Active; 'I' for Inactive)
REMARK    1  A    between atoms: C_2  and  C_17 
REMARK    2  A    between atoms: C_2  and  C_10 
REMARK       I    between atoms: C_9  and  N_13 
REMARK    3  A    between atoms: C_9  and  C_16 
REMARK    4  A    between atoms: C_10  and  N_11 
REMARK    5  A    between atoms: C_12  and  C_18 
REMARK    6  A    between atoms: C_12  and  N_13 
REMARK    7  A    between atoms: N_14  and  C_16 
REMARK    8  A    between atoms: C_16  and  C_17 
ROOT
HETATM    1  C           1     -21.571  -4.992  -8.082  0.00  0.00     0.274 C 
ENDROOT
BRANCH   1   2
HETATM    2  C           1     -20.900  -5.893  -7.074  0.00  0.00     0.248 C 
HETATM    3  O           1     -19.834  -6.399  -7.332  0.00  0.00    -0.271 OA
HETATM    4  N           1     -21.500  -6.137  -5.868  0.00  0.00    -0.349 N 
HETATM    5  H           1     -22.393  -5.712  -5.653  0.00  0.00     0.163 HD
BRANCH   4   6
HETATM    6  C           1     -20.855  -7.002  -4.899  0.00  0.00     0.235 C 
BRANCH   6   7
HETATM    7  C           1     -21.440  -6.750  -3.532  0.00  0.00     0.191 C 
HETATM    8  O           1     -20.913  -7.265  -2.522  0.00  0.00    -0.647 OA
HETATM    9  O           1     -22.452  -6.026  -3.408  0.00  0.00    -0.647 OA
ENDBRANCH   6   7
ENDBRANCH   4   6
ENDBRANCH   1   2
BRANCH   1  10
HETATM   10  N           1     -22.588  -4.136  -7.387  0.00  0.00    -0.067 N 
HETATM   11  H           1     -22.646  -4.413  -6.381  0.00  0.00     0.275 HD
HETATM   12  H           1     -22.305  -3.133  -7.457  0.00  0.00     0.275 HD
HETATM   13  H           1     -23.521  -4.267  -7.839  0.00  0.00     0.275 HD
ENDBRANCH   1  10
BRANCH   1  14
HETATM   14  C           1     -20.526  -4.102  -8.743  0.00  0.00     0.044 C 
BRANCH  14  15
HETATM   15  C           1     -20.458  -4.419 -10.231  0.00  0.00     0.030 C 
BRANCH  15  16
HETATM   16  C           1     -21.477  -3.569 -10.980  0.00  0.00     0.230 C 
BRANCH  16  17
HETATM   17  N           1     -22.063  -4.367 -12.106  0.00  0.00    -0.079 N 
HETATM   18  H           1     -21.310  -4.610 -12.789  0.00  0.00     0.274 HD
HETATM   19  H           1     -22.486  -5.245 -11.728  0.00  0.00     0.274 HD
HETATM   20  H           1     -22.800  -3.804 -12.586  0.00  0.00     0.274 HD
ENDBRANCH  16  17
ENDBRANCH  15  16
ENDBRANCH  14  15
ENDBRANCH   1  14
TORSDOF 8
ENDMDL
MODEL 9
REMARK VINA RESULT:      -4.4      4.644      6.241
REMARK  8 active torsions:
REMARK  status: ('A' for Active; 'I' for Inactive)
REMARK    1  A    between atoms: C_2  and  C_17 
REMARK    2  A    between atoms: C_2  and  C_10 
REMARK       I    between atoms: C_9  and  N_13 
REMARK    3  A    between atoms: C_9  and  C_16 
REMARK    4  A    between atoms: C_10  and  N_11 
REMARK    5  A    between atoms: C_12  and  C_18 
REMARK    6  A    between atoms: C_12  and  N_13 
REMARK    7  A    between atoms: N_14  and  C_16 
REMARK    8  A    between atoms: C_16  and  C_17 
ROOT
HETATM    1  C           1     -21.299  -7.058  -6.150  0.00  0.00     0.274 C 
ENDROOT
BRANCH   1   2
HETATM    2  C           1     -21.087  -5.831  -7.002  0.00  0.00     0.248 C 
HETATM    3  O           1     -20.049  -5.686  -7.605  0.00  0.00    -0.271 OA
HETATM    4  N           1     -22.069  -4.882  -7.093  0.00  0.00    -0.349 N 
HETATM    5  H           1     -22.937  -5.004  -6.588  0.00  0.00     0.163 HD
BRANCH   4   6
HETATM    6  C           1     -21.865  -3.702  -7.912  0.00  0.00     0.235 C 
BRANCH   6   7
HETATM    7  C           1     -22.740  -3.784  -9.137  0.00  0.00     0.191 C 
HETATM    8  O           1     -23.984  -3.716  -9.023  0.00  0.00    -0.647 OA
HETATM    9  O           1     -22.223  -3.920 -10.267  0.00  0.00    -0.647 OA
ENDBRANCH   6   7
ENDBRANCH   4   6
ENDBRANCH   1   2
BRANCH   1  10
HETATM   10  N           1     -19.968  -7.630  -5.759  0.00  0.00    -0.067 N 
HETATM   11  H           1     -19.208  -6.978  -6.059  0.00  0.00     0.275 HD
HETATM   12  H           1     -19.933  -7.753  -4.723  0.00  0.00     0.275 HD
HETATM   13  H           1     -19.835  -8.556  -6.225  0.00  0.00     0.275 HD
ENDBRANCH   1  10
BRANCH   1  14
HETATM   14  C           1     -22.076  -6.679  -4.896  0.00  0.00     0.044 C 
BRANCH  14  15
HETATM   15  C           1     -21.125  -6.072  -3.874  0.00  0.00     0.030 C 
BRANCH  15  16
HETATM   16  C           1     -21.385  -6.692  -2.506  0.00  0.00     0.230 C 
BRANCH  16  17
HETATM   17  N           1     -22.371  -5.848  -1.755  0.00  0.00    -0.079 N 
HETATM   18  H           1     -23.116  -6.460  -1.350  0.00  0.00     0.274 HD
HETATM   19  H           1     -21.881  -5.342  -0.984  0.00  0.00     0.274 HD
HETATM   20  H           1     -22.804  -5.156  -2.406  0.00  0.00     0.274 HD
ENDBRANCH  16  17
ENDBRANCH  15  16
ENDBRANCH  14  15
ENDBRANCH   1  14
TORSDOF 8
ENDMDL
