MODEL 1
REMARK VINA RESULT:      -6.4      0.000      0.000
REMARK  9 active torsions:
REMARK  status: ('A' for Active; 'I' for Inactive)
REMARK    1  A    between atoms: C_2  and  C_4 
REMARK    2  A    between atoms: C_4  and  C_5 
REMARK    3  A    between atoms: C_4  and  N_8 
REMARK       I    between atoms: N_8  and  C_9 
REMARK    4  A    between atoms: C_9  and  C_10 
REMARK    5  A    between atoms: C_10  and  C_11 
REMARK    6  A    between atoms: C_10  and  N_17 
REMARK    7  A    between atoms: C_11  and  O_12 
REMARK    8  A    between atoms: O_12  and  P_13 
REMARK    9  A    between atoms: P_13  and  O_14 
ROOT
HETATM    1  C           1     -20.980  -5.580  -7.001  0.00  0.00     0.298 C 
ENDROOT
BRANCH   1   2
HETATM    2  C           1     -21.599  -4.480  -7.827  0.00  0.00     0.251 C 
HETATM    3  N           1     -22.145  -4.766  -9.049  0.00  0.00    -0.344 N 
HETATM    4  H           1     -22.135  -5.716  -9.398  0.00  0.00     0.163 HD
HETATM    5  O           1     -21.611  -3.346  -7.411  0.00  0.00    -0.271 OA
BRANCH   3   6
HETATM    6  C           1     -22.739  -3.709  -9.844  0.00  0.00     0.189 C 
BRANCH   6   7
HETATM    7  C           1     -22.281  -3.843 -11.291  0.00  0.00     0.010 C 
HETATM    8  C           1     -22.700  -2.604 -12.072  0.00  0.00     0.012 C 
HETATM    9  C           1     -20.764  -3.981 -11.331  0.00  0.00     0.012 C 
ENDBRANCH   6   7
BRANCH   6  10
HETATM   10  C           1     -24.244  -3.817  -9.780  0.00  0.00     0.197 C 
HETATM   11  O           1     -24.931  -2.809  -9.511  0.00  0.00    -0.646 OA
HETATM   12  O           1     -24.800  -4.915  -9.996  0.00  0.00    -0.646 OA
ENDBRANCH   6  10
ENDBRANCH   3   6
ENDBRANCH   1   2
BRANCH   1  13
HETATM   13  C           1     -20.644  -5.048  -5.615  0.00  0.00     0.224 C 
BRANCH  13  14
HETATM   14  O           1     -20.471  -6.122  -4.730  0.00  0.00    -0.287 OA
BRANCH  14  15
HETATM   15  P           1     -21.795  -6.615  -3.948  0.00  0.00     0.406 P 
HETATM   16  O           1     -21.894  -5.905  -2.652  0.00  0.00    -0.624 OA
HETATM   17  O           1     -21.710  -8.073  -3.707  0.00  0.00    -0.624 OA
BRANCH  15  18
HETATM   18  O           1     -23.101  -6.290  -4.840  0.00  0.00    -0.300 OA
HETATM   19  H           1     -23.118  -6.960  -5.501  0.00  0.00     0.223 HD
ENDBRANCH  15  18
ENDBRANCH  14  15
ENDBRANCH  13  14
ENDBRANCH   1  13
BRANCH   1  20
HETATM   20  N           1     -19.726  -6.062  -7.668  0.00  0.00    -0.064 N 
HETATM   21  H           1     -19.049  -5.271  -7.752  0.00  0.00     0.275 HD
HETATM   22  H           1     -19.300  -6.826  -7.097  0.00  0.00     0.275 HD
HETATM   23  H           1     -19.957  -6.426  -8.621  0.00  0.00     0.275 HD
ENDBRANCH   1  20
TORSDOF 9
ENDMDL
MODEL 2
REMARK VINA RESULT:      -6.1      1.614      2.247
REMARK  9 active torsions:
REMARK  status: ('A' for Active; 'I' for Inactive)
REMARK    1  A    between atoms: C_2  and  C_4 
REMARK    2  A    between atoms: C_4  and  C_5 
REMARK    3  A    between atoms: C_4  and  N_8 
REMARK       I    between atoms: N_8  and  C_9 
REMARK    4  A    between atoms: C_9  and  C_10 
REMARK    5  A    between atoms: C_10  and  C_11 
REMARK    6  A    between atoms: C_10  and  N_17 
REMARK    7  A    between atoms: C_11  and  O_12 
REMARK    8  A    between atoms: O_12  and  P_13 
REMARK    9  A    between atoms: P_13  and  O_14 
ROOT
HETATM    1  C           1     -21.436  -5.376  -6.140  0.00  0.00     0.298 C 
ENDROOT
BRANCH   1   2
HETATM    2  C           1     -21.753  -4.371  -7.221  0.00  0.00     0.251 C 
HETATM    3  N           1     -22.332  -4.783  -8.390  0.00  0.00    -0.344 N 
HETATM    4  H           1     -22.549  -5.761  -8.530  0.00  0.00     0.163 HD
HETATM    5  O           1     -21.493  -3.203  -7.053  0.00  0.00    -0.271 OA
BRANCH   3   6
HETATM    6  C           1     -22.634  -3.817  -9.429  0.00  0.00     0.189 C 
BRANCH   6   7
HETATM    7  C           1     -21.874  -4.182 -10.698  0.00  0.00     0.010 C 
HETATM    8  C           1     -21.999  -3.048 -11.707  0.00  0.00     0.012 C 
HETATM    9  C           1     -20.405  -4.405 -10.362  0.00  0.00     0.012 C 
ENDBRANCH   6   7
BRANCH   6  10
HETATM   10  C           1     -24.118  -3.830  -9.709  0.00  0.00     0.197 C 
HETATM   11  O           1     -24.669  -4.876 -10.111  0.00  0.00    -0.646 OA
HETATM   12  O           1     -24.794  -2.792  -9.538  0.00  0.00    -0.646 OA
ENDBRANCH   6  10
ENDBRANCH   3   6
ENDBRANCH   1   2
BRANCH   1  13
HETATM   13  C           1     -20.831  -6.624  -6.767  0.00  0.00     0.224 C 
BRANCH  13  14
HETATM   14  O           1     -19.781  -7.089  -5.963  0.00  0.00    -0.287 OA
BRANCH  14  15
HETATM   15  P           1     -20.134  -8.322  -4.981  0.00  0.00     0.406 P 
HETATM   16  O           1     -20.954  -9.313  -5.712  0.00  0.00    -0.624 OA
HETATM   17  O           1     -20.891  -7.819  -3.813  0.00  0.00    -0.624 OA
BRANCH  15  18
HETATM   18  O           1     -18.768  -9.020  -4.478  0.00  0.00    -0.300 OA
HETATM   19  H           1     -18.909  -9.204  -3.566  0.00  0.00     0.223 HD
ENDBRANCH  15  18
ENDBRANCH  14  15
ENDBRANCH  13  14
ENDBRANCH   1  13
BRANCH   1  20
HETATM   20  N           1     -22.696  -5.742  -5.414  0.00  0.00    -0.064 N 
HETATM   21  H           1     -23.505  -5.704  -6.075  0.00  0.00     0.275 HD
HETATM   22  H           1     -22.607  -6.710  -5.030  0.00  0.00     0.275 HD
HETATM   23  H           1     -22.854  -5.069  -4.630  0.00  0.00     0.275 HD
ENDBRANCH   1  20
TORSDOF 9
ENDMDL
MODEL 3
REMARK VINA RESULT:      -6.0      3.762      7.038
REMARK  9 active torsions:
REMARK  status: ('A' for Active; 'I' for Inactive)
REMARK    1  A    between atoms: C_2  and  C_4 
REMARK    2  A    between atoms: C_4  and  C_5 
REMARK    3  A    between atoms: C_4  and  N_8 
REMARK       I    between atoms: N_8  and  C_9 
REMARK    4  A    between atoms: C_9  and  C_10 
REMARK    5  A    between atoms: C_10  and  C_11 
REMARK    6  A    between atoms: C_10  and  N_17 
REMARK    7  A    between atoms: C_11  and  O_12 
REMARK    8  A    between atoms: O_12  and  P_13 
REMARK    9  A    between atoms: P_13  and  O_14 
ROOT
HETATM    1  C           1     -21.881  -3.206 -10.815  0.00  0.00     0.298 C 
ENDROOT
BRANCH   1   2
HETATM    2  C           1     -21.955  -4.301  -9.779  0.00  0.00     0.251 C 
HETATM    3  N           1     -21.244  -4.193  -8.615  0.00  0.00    -0.344 N 
HETATM    4  H           1     -20.669  -3.377  -8.448  0.00  0.00     0.163 HD
HETATM    5  O           1     -22.642  -5.276  -9.979  0.00  0.00    -0.271 OA
BRANCH   3   6
HETATM    6  C           1     -21.315  -5.246  -7.621  0.00  0.00     0.189 C 
BRANCH   6   7
HETATM    7  C           1     -20.054  -5.221  -6.765  0.00  0.00     0.010 C 
HETATM    8  C           1     -19.596  -6.649  -6.498  0.00  0.00     0.012 C 
HETATM    9  C           1     -18.957  -4.464  -7.501  0.00  0.00     0.012 C 
ENDBRANCH   6   7
BRANCH   6  10
HETATM   10  C           1     -22.524  -5.027  -6.743  0.00  0.00     0.197 C 
HETATM   11  O           1     -22.596  -5.588  -5.629  0.00  0.00    -0.646 OA
HETATM   12  O           1     -23.451  -4.285  -7.132  0.00  0.00    -0.646 OA
ENDBRANCH   6  10
ENDBRANCH   3   6
ENDBRANCH   1   2
BRANCH   1  13
HETATM   13  C           1     -23.201  -3.129 -11.569  0.00  0.00     0.224 C 
BRANCH  13  14
HETATM   14  O           1     -23.111  -2.151 -12.570  0.00  0.00    -0.287 OA
BRANCH  14  15
HETATM   15  P           1     -23.421  -2.648 -14.075  0.00  0.00     0.406 P 
HETATM   16  O           1     -24.085  -1.558 -14.826  0.00  0.00    -0.624 OA
HETATM   17  O           1     -24.309  -3.830 -14.031  0.00  0.00    -0.624 OA
BRANCH  15  18
HETATM   18  O           1     -22.037  -3.040 -14.809  0.00  0.00    -0.300 OA
HETATM   19  H           1     -21.398  -2.444 -14.460  0.00  0.00     0.223 HD
ENDBRANCH  15  18
ENDBRANCH  14  15
ENDBRANCH  13  14
ENDBRANCH   1  13
BRANCH   1  20
HETATM   20  N           1     -20.771  -3.504 -11.778  0.00  0.00    -0.064 N 
HETATM   21  H           1     -19.995  -3.994 -11.278  0.00  0.00     0.275 HD
HETATM   22  H           1     -21.131  -4.115 -12.545  0.00  0.00     0.275 HD
HETATM   23  H           1     -20.414  -2.609 -12.184  0.00  0.00     0.275 HD
ENDBRANCH   1  20
TORSDOF 9
ENDMDL
MODEL 4
REMARK VINA RESULT:      -5.9      3.012      6.844
REMARK  9 active torsions:
REMARK  status: ('A' for Active; 'I' for Inactive)
REMARK    1  A    between atoms: C_2  and  C_4 
REMARK    2  A    between atoms: C_4  and  C_5 
REMARK    3  A    between atoms: C_4  and  N_8 
REMARK       I    between atoms: N_8  and  C_9 
REMARK    4  A    between atoms: C_9  and  C_10 
REMARK    5  A    between atoms: C_10  and  C_11 
REMARK    6  A    between atoms: C_10  and  N_17 
REMARK    7  A    between atoms: C_11  and  O_12 
REMARK    8  A    between atoms: O_12  and  P_13 
REMARK    9  A    between atoms: P_13  and  O_14 
ROOT
HETATM    1  C           1     -20.963  -5.072  -6.560  0.00  0.00     0.298 C 
ENDROOT
BRANCH   1   2
HETATM    2  C           1     -21.663  -5.939  -5.543  0.00  0.00     0.251 C 
HETATM    3  N           1     -20.932  -6.732  -4.700  0.00  0.00    -0.344 N 
HETATM    4  H           1     -19.922  -6.735  -4.757  0.00  0.00     0.163 HD
HETATM    5  O           1     -22.869  -5.935  -5.475  0.00  0.00    -0.271 OA
BRANCH   3   6
HETATM    6  C           1     -21.605  -7.565  -3.723  0.00  0.00     0.189 C 
BRANCH   6   7
HETATM    7  C           1     -20.906  -8.916  -3.641  0.00  0.00     0.010 C 
HETATM    8  C           1     -21.900 -10.023  -3.969  0.00  0.00     0.012 C 
HETATM    9  C           1     -19.757  -8.953  -4.640  0.00  0.00     0.012 C 
ENDBRANCH   6   7
BRANCH   6  10
HETATM   10  C           1     -21.562  -6.893  -2.372  0.00  0.00     0.197 C 
HETATM   11  O           1     -20.841  -7.359  -1.465  0.00  0.00    -0.646 OA
HETATM   12  O           1     -22.247  -5.868  -2.163  0.00  0.00    -0.646 OA
ENDBRANCH   6  10
ENDBRANCH   3   6
ENDBRANCH   1   2
BRANCH   1  13
HETATM   13  C           1     -21.996  -4.301  -7.369  0.00  0.00     0.224 C 
BRANCH  13  14
HETATM   14  O           1     -22.172  -4.920  -8.615  0.00  0.00    -0.287 OA
BRANCH  14  15
HETATM   15  P           1     -23.230  -4.217  -9.612  0.00  0.00     0.406 P 
HETATM   16  O           1     -23.876  -5.251 -10.452  0.00  0.00    -0.624 OA
HETATM   17  O           1     -22.523  -3.248 -10.477  0.00  0.00    -0.624 OA
BRANCH  15  18
HETATM   18  O           1     -24.356  -3.447  -8.748  0.00  0.00    -0.300 OA
HETATM   19  H           1     -24.459  -2.611  -9.170  0.00  0.00     0.223 HD
ENDBRANCH  15  18
ENDBRANCH  14  15
ENDBRANCH  13  14
ENDBRANCH   1  13
BRANCH   1  20
HETATM   20  N           1     -20.151  -5.935  -7.479  0.00  0.00    -0.064 N 
HETATM   21  H           1     -19.585  -5.331  -8.117  0.00  0.00     0.275 HD
HETATM   22  H           1     -19.512  -6.539  -6.915  0.00  0.00     0.275 HD
HETATM   23  H           1     -20.790  -6.538  -8.045  0.00  0.00     0.275 HD
ENDBRANCH   1  20
TORSDOF 9
ENDMDL
MODEL 5
REMARK VINA RESULT:      -5.5      5.718      8.531
REMARK  9 active torsions:
REMARK  status: ('A' for Active; 'I' for Inactive)
REMARK    1  A    between atoms: C_2  and  C_4 
REMARK    2  A    between atoms: C_4  and  C_5 
REMARK    3  A    between atoms: C_4  and  N_8 
REMARK       I    between atoms: N_8  and  C_9 
REMARK    4  A    between atoms: C_9  and  C_10 
REMARK    5  A    between atoms: C_10  and  C_11 
REMARK    6  A    between atoms: C_10  and  N_17 
REMARK    7  A    between atoms: C_11  and  O_12 
REMARK    8  A    between atoms: O_12  and  P_13 
REMARK    9  A    between atoms: P_13  and  O_14 
ROOT
HETATM    1  C           1     -19.671  -9.252  -3.645  0.00  0.00     0.298 C 
ENDROOT
BRANCH   1   2
HETATM    2  C           1     -20.250  -9.657  -2.312  0.00  0.00     0.251 C 
HETATM    3  N           1     -21.502  -9.238  -1.953  0.00  0.00    -0.344 N 
HETATM    4  H           1     -22.041  -8.658  -2.582  0.00  0.00     0.163 HD
HETATM    5  O           1     -19.606 -10.351  -1.560  0.00  0.00    -0.271 OA
BRANCH   3   6
HETATM    6  C           1     -22.057  -9.627  -0.671  0.00  0.00     0.189 C 
BRANCH   6   7
HETATM    7  C           1     -22.456  -8.381   0.108  0.00  0.00     0.010 C 
HETATM    8  C           1     -21.514  -8.199   1.291  0.00  0.00     0.012 C 
HETATM    9  C           1     -22.369  -7.163  -0.803  0.00  0.00     0.012 C 
ENDBRANCH   6   7
BRANCH   6  10
HETATM   10  C           1     -23.274 -10.493  -0.893  0.00  0.00     0.197 C 
HETATM   11  O           1     -23.408 -11.120  -1.965  0.00  0.00    -0.646 OA
HETATM   12  O           1     -24.147 -10.583  -0.002  0.00  0.00    -0.646 OA
ENDBRANCH   6  10
ENDBRANCH   3   6
ENDBRANCH   1   2
BRANCH   1  13
HETATM   13  C           1     -20.755  -8.598  -4.492  0.00  0.00     0.224 C 
BRANCH  13  14
HETATM   14  O           1     -20.862  -7.243  -4.150  0.00  0.00    -0.287 OA
BRANCH  14  15
HETATM   15  P           1     -21.270  -6.240  -5.349  0.00  0.00     0.406 P 
HETATM   16  O           1     -22.718  -5.940  -5.268  0.00  0.00    -0.624 OA
HETATM   17  O           1     -20.970  -6.879  -6.649  0.00  0.00    -0.624 OA
BRANCH  15  18
HETATM   18  O           1     -20.429  -4.868  -5.215  0.00  0.00    -0.300 OA
HETATM   19  H           1     -21.003  -4.197  -5.541  0.00  0.00     0.223 HD
ENDBRANCH  15  18
ENDBRANCH  14  15
ENDBRANCH  13  14
ENDBRANCH   1  13
BRANCH   1  20
HETATM   20  N           1     -19.148 -10.466  -4.353  0.00  0.00    -0.064 N 
HETATM   21  H           1     -19.948 -11.039  -4.703  0.00  0.00     0.275 HD
HETATM   22  H           1     -18.554 -10.168  -5.160  0.00  0.00     0.275 HD
HETATM   23  H           1     -18.575 -11.035  -3.690  0.00  0.00     0.275 HD
ENDBRANCH   1  20
TORSDOF 9
ENDMDL
MODEL 6
REMARK VINA RESULT:      -5.4      5.666      8.511
REMARK  9 active torsions:
REMARK  status: ('A' for Active; 'I' for Inactive)
REMARK    1  A    between atoms: C_2  and  C_4 
REMARK    2  A    between atoms: C_4  and  C_5 
REMARK    3  A    between atoms: C_4  and  N_8 
REMARK       I    between atoms: N_8  and  C_9 
REMARK    4  A    between atoms: C_9  and  C_10 
REMARK    5  A    between atoms: C_10  and  C_11 
REMARK    6  A    between atoms: C_10  and  N_17 
REMARK    7  A    between atoms: C_11  and  O_12 
REMARK    8  A    between atoms: O_12  and  P_13 
REMARK    9  A    between atoms: P_13  and  O_14 
ROOT
HETATM    1  C           1     -20.408  -9.722  -4.248  0.00  0.00     0.298 C 
ENDROOT
BRANCH   1   2
HETATM    2  C           1     -21.496  -9.836  -3.209  0.00  0.00     0.251 C 
HETATM    3  N           1     -21.292  -9.344  -1.948  0.00  0.00    -0.344 N 
HETATM    4  H           1     -20.413  -8.904  -1.713  0.00  0.00     0.163 HD
HETATM    5  O           1     -22.547 -10.362  -3.490  0.00  0.00    -0.271 OA
BRANCH   3   6
HETATM    6  C           1     -22.338  -9.455  -0.949  0.00  0.00     0.189 C 
BRANCH   6   7
HETATM    7  C           1     -21.891 -10.410   0.150  0.00  0.00     0.010 C 
HETATM    8  C           1     -22.719 -11.687   0.079  0.00  0.00     0.012 C 
HETATM    9  C           1     -20.418 -10.747  -0.040  0.00  0.00     0.012 C 
ENDBRANCH   6   7
BRANCH   6  10
HETATM   10  C           1     -22.609  -8.094  -0.354  0.00  0.00     0.197 C 
HETATM   11  O           1     -23.292  -7.993   0.687  0.00  0.00    -0.646 OA
HETATM   12  O           1     -22.150  -7.069  -0.904  0.00  0.00    -0.646 OA
ENDBRANCH   6  10
ENDBRANCH   3   6
ENDBRANCH   1   2
BRANCH   1  13
HETATM   13  C           1     -19.893  -8.290  -4.292  0.00  0.00     0.224 C 
BRANCH  13  14
HETATM   14  O           1     -20.946  -7.406  -4.012  0.00  0.00    -0.287 OA
BRANCH  14  15
HETATM   15  P           1     -21.374  -6.414  -5.212  0.00  0.00     0.406 P 
HETATM   16  O           1     -22.817  -6.103  -5.102  0.00  0.00    -0.624 OA
HETATM   17  O           1     -21.107  -7.068  -6.512  0.00  0.00    -0.624 OA
BRANCH  15  18
HETATM   18  O           1     -20.521  -5.046  -5.112  0.00  0.00    -0.300 OA
HETATM   19  H           1     -21.083  -4.381  -5.469  0.00  0.00     0.223 HD
ENDBRANCH  15  18
ENDBRANCH  14  15
ENDBRANCH  13  14
ENDBRANCH   1  13
BRANCH   1  20
HETATM   20  N           1     -20.958 -10.097  -5.592  0.00  0.00    -0.064 N 
HETATM   21  H           1     -21.937 -10.448  -5.483  0.00  0.00     0.275 HD
HETATM   22  H           1     -20.957  -9.258  -6.214  0.00  0.00     0.275 HD
HETATM   23  H           1     -20.364 -10.845  -6.015  0.00  0.00     0.275 HD
ENDBRANCH   1  20
TORSDOF 9
ENDMDL
MODEL 7
REMARK VINA RESULT:      -5.3      4.243      8.004
REMARK  9 active torsions:
REMARK  status: ('A' for Active; 'I' for Inactive)
REMARK    1  A    between atoms: C_2  and  C_4 
REMARK    2  A    between atoms: C_4  and  C_5 
REMARK    3  A    between atoms: C_4  and  N_8 
REMARK       I    between atoms: N_8  and  C_9 
REMARK    4  A    between atoms: C_9  and  C_10 
REMARK    5  A    between atoms: C_10  and  C_11 
REMARK    6  A    between atoms: C_10  and  N_17 
REMARK    7  A    between atoms: C_11  and  O_12 
REMARK    8  A    between atoms: O_12  and  P_13 
REMARK    9  A    between atoms: P_13  and  O_14 
ROOT
HETATM    1  C           1     -21.489  -7.237  -5.299  0.00  0.00     0.298 C 
ENDROOT
BRANCH   1   2
HETATM    2  C           1     -20.991  -7.963  -4.073  0.00  0.00     0.251 C 
HETATM    3  N           1     -21.852  -8.246  -3.048  0.00  0.00    -0.344 N 
HETATM    4  H           1     -22.823  -7.970  -3.111  0.00  0.00     0.163 HD
HETATM    5  O           1     -19.831  -8.292  -3.997  0.00  0.00    -0.271 OA
BRANCH   3   6
HETATM    6  C           1     -21.372  -8.942  -1.870  0.00  0.00     0.189 C 
BRANCH   6   7
HETATM    7  C           1     -22.092  -8.410  -0.637  0.00  0.00     0.010 C 
HETATM    8  C           1     -21.208  -8.603   0.588  0.00  0.00     0.012 C 
HETATM    9  C           1     -22.386  -6.927  -0.823  0.00  0.00     0.012 C 
ENDBRANCH   6   7
BRANCH   6  10
HETATM   10  C           1     -21.645 -10.420  -2.014  0.00  0.00     0.197 C 
HETATM   11  O           1     -22.757 -10.812  -2.427  0.00  0.00    -0.646 OA
HETATM   12  O           1     -20.758 -11.250  -1.719  0.00  0.00    -0.646 OA
ENDBRANCH   6  10
ENDBRANCH   3   6
ENDBRANCH   1   2
BRANCH   1  13
HETATM   13  C           1     -20.335  -6.489  -5.952  0.00  0.00     0.224 C 
BRANCH  13  14
HETATM   14  O           1     -20.568  -6.381  -7.330  0.00  0.00    -0.287 OA
BRANCH  14  15
HETATM   15  P           1     -20.902  -4.899  -7.878  0.00  0.00     0.406 P 
HETATM   16  O           1     -21.226  -4.014  -6.736  0.00  0.00    -0.624 OA
HETATM   17  O           1     -22.060  -4.963  -8.797  0.00  0.00    -0.624 OA
BRANCH  15  18
HETATM   18  O           1     -19.620  -4.312  -8.666  0.00  0.00    -0.300 OA
HETATM   19  H           1     -18.874  -4.632  -8.189  0.00  0.00     0.223 HD
ENDBRANCH  15  18
ENDBRANCH  14  15
ENDBRANCH  13  14
ENDBRANCH   1  13
BRANCH   1  20
HETATM   20  N           1     -22.557  -6.261  -4.902  0.00  0.00    -0.064 N 
HETATM   21  H           1     -22.181  -5.288  -4.964  0.00  0.00     0.275 HD
HETATM   22  H           1     -23.374  -6.360  -5.546  0.00  0.00     0.275 HD
HETATM   23  H           1     -22.860  -6.457  -3.921  0.00  0.00     0.275 HD
ENDBRANCH   1  20
TORSDOF 9
ENDMDL
MODEL 8
REMARK VINA RESULT:      -5.2      4.881      8.601
REMARK  9 active torsions:
REMARK  status: ('A' for Active; 'I' for Inactive)
REMARK    1  A    between atoms: C_2  and  C_4 
REMARK    2  A    between atoms: C_4  and  C_5 
REMARK    3  A    between atoms: C_4  and  N_8 
REMARK       I    between atoms: N_8  and  C_9 
REMARK    4  A    between atoms: C_9  and  C_10 
REMARK    5  A    between atoms: C_10  and  C_11 
REMARK    6  A    between atoms: C_10  and  N_17 
REMARK    7  A    between atoms: C_11  and  O_12 
REMARK    8  A    between atoms: O_12  and  P_13 
REMARK    9  A    between atoms: P_13  and  O_14 
ROOT
HETATM    1  C           1     -21.805  -7.601  -4.243  0.00  0.00     0.298 C 
ENDROOT
BRANCH   1   2
HETATM    2  C           1     -21.356  -7.854  -2.825  0.00  0.00     0.251 C 
HETATM    3  N           1     -21.638  -9.050  -2.221  0.00  0.00    -0.344 N 
HETATM    4  H           1     -22.146  -9.764  -2.726  0.00  0.00     0.163 HD
HETATM    5  O           1     -20.750  -7.001  -2.222  0.00  0.00    -0.271 OA
BRANCH   3   6
HETATM    6  C           1     -21.208  -9.293  -0.858  0.00  0.00     0.189 C 
BRANCH   6   7
HETATM    7  C           1     -22.426  -9.554   0.020  0.00  0.00     0.010 C 
HETATM    8  C           1     -23.086  -8.229   0.377  0.00  0.00     0.012 C 
HETATM    9  C           1     -23.417 -10.429  -0.737  0.00  0.00     0.012 C 
ENDBRANCH   6   7
BRANCH   6  10
HETATM   10  C           1     -20.297 -10.496  -0.826  0.00  0.00     0.197 C 
HETATM   11  O           1     -20.094 -11.098   0.250  0.00  0.00    -0.646 OA
HETATM   12  O           1     -19.745 -10.890  -1.876  0.00  0.00    -0.646 OA
ENDBRANCH   6  10
ENDBRANCH   3   6
ENDBRANCH   1   2
BRANCH   1  13
HETATM   13  C           1     -20.587  -7.506  -5.152  0.00  0.00     0.224 C 
BRANCH  13  14
HETATM   14  O           1     -20.995  -7.139  -6.443  0.00  0.00    -0.287 OA
BRANCH  14  15
HETATM   15  P           1     -20.754  -5.594  -6.849  0.00  0.00     0.406 P 
HETATM   16  O           1     -19.984  -5.532  -8.112  0.00  0.00    -0.624 OA
HETATM   17  O           1     -19.997  -4.915  -5.775  0.00  0.00    -0.624 OA
BRANCH  15  18
HETATM   18  O           1     -22.179  -4.861  -7.051  0.00  0.00    -0.300 OA
HETATM   19  H           1     -22.582  -5.307  -7.776  0.00  0.00     0.223 HD
ENDBRANCH  15  18
ENDBRANCH  14  15
ENDBRANCH  13  14
ENDBRANCH   1  13
BRANCH   1  20
HETATM   20  N           1     -22.574  -6.315  -4.302  0.00  0.00    -0.064 N 
HETATM   21  H           1     -22.812  -6.005  -3.333  0.00  0.00     0.275 HD
HETATM   22  H           1     -21.992  -5.583  -4.768  0.00  0.00     0.275 HD
HETATM   23  H           1     -23.454  -6.461  -4.848  0.00  0.00     0.275 HD
ENDBRANCH   1  20
TORSDOF 9
ENDMDL
MODEL 9
REMARK VINA RESULT:      -5.2      1.989      2.648
REMARK  9 active torsions:
REMARK  status: ('A' for Active; 'I' for Inactive)
REMARK    1  A    between atoms: C_2  and  C_4 
REMARK    2  A    between atoms: C_4  and  C_5 
REMARK    3  A    between atoms: C_4  and  N_8 
REMARK       I    between atoms: N_8  and  C_9 
REMARK    4  A    between atoms: C_9  and  C_10 
REMARK    5  A    between atoms: C_10  and  C_11 
REMARK    6  A    between atoms: C_10  and  N_17 
REMARK    7  A    between atoms: C_11  and  O_12 
REMARK    8  A    between atoms: O_12  and  P_13 
REMARK    9  A    between atoms: P_13  and  O_14 
ROOT
HETATM    1  C           1     -20.394  -4.174  -7.229  0.00  0.00     0.298 C 
ENDROOT
BRANCH   1   2
HETATM    2  C           1     -20.664  -4.402  -8.696  0.00  0.00     0.251 C 
HETATM    3  N           1     -21.761  -3.835  -9.286  0.00  0.00    -0.344 N 
HETATM    4  H           1     -22.390  -3.261  -8.739  0.00  0.00     0.163 HD
HETATM    5  O           1     -19.913  -5.087  -9.349  0.00  0.00    -0.271 OA
BRANCH   3   6
HETATM    6  C           1     -22.021  -4.055 -10.695  0.00  0.00     0.189 C 
BRANCH   6   7
HETATM    7  C           1     -23.522  -4.199 -10.918  0.00  0.00     0.010 C 
HETATM    8  C           1     -23.784  -5.360 -11.869  0.00  0.00     0.012 C 
HETATM    9  C           1     -24.208  -4.468  -9.585  0.00  0.00     0.012 C 
ENDBRANCH   6   7
BRANCH   6  10
HETATM   10  C           1     -21.504  -2.881 -11.491  0.00  0.00     0.197 C 
HETATM   11  O           1     -20.294  -2.576 -11.440  0.00  0.00    -0.646 OA
HETATM   12  O           1     -22.288  -2.215 -12.202  0.00  0.00    -0.646 OA
ENDBRANCH   6  10
ENDBRANCH   3   6
ENDBRANCH   1   2
BRANCH   1  13
HETATM   13  C           1     -20.278  -5.515  -6.519  0.00  0.00     0.224 C 
BRANCH  13  14
HETATM   14  O           1     -20.753  -5.392  -5.205  0.00  0.00    -0.287 OA
BRANCH  14  15
HETATM   15  P           1     -21.773  -6.543  -4.711  0.00  0.00     0.406 P 
HETATM   16  O           1     -23.160  -6.144  -5.038  0.00  0.00    -0.624 OA
HETATM   17  O           1     -21.642  -6.722  -3.248  0.00  0.00    -0.624 OA
BRANCH  15  18
HETATM   18  O           1     -21.423  -7.932  -5.458  0.00  0.00    -0.300 OA
HETATM   19  H           1     -21.496  -7.740  -6.377  0.00  0.00     0.223 HD
ENDBRANCH  15  18
ENDBRANCH  14  15
ENDBRANCH  13  14
ENDBRANCH   1  13
BRANCH   1  20
HETATM   20  N           1     -21.521  -3.387  -6.629  0.00  0.00    -0.064 N 
HETATM   21  H           1     -21.979  -2.811  -7.371  0.00  0.00     0.275 HD
HETATM   22  H           1     -22.221  -4.042  -6.215  0.00  0.00     0.275 HD
HETATM   23  H           1     -21.146  -2.759  -5.882  0.00  0.00     0.275 HD
ENDBRANCH   1  20
TORSDOF 9
ENDMDL
