MODEL 1
REMARK VINA RESULT:      -6.6      0.000      0.000
REMARK  7 active torsions:
REMARK  status: ('A' for Active; 'I' for Inactive)
REMARK       I    between atoms: C_1  and  N_9 
REMARK    1  A    between atoms: C_1  and  C_11 
REMARK    2  A    between atoms: N_4  and  C_20 
REMARK       I    between atoms: N_4  and  C_5 
REMARK    3  A    between atoms: C_5  and  C_6 
REMARK    4  A    between atoms: C_6  and  N_15 
REMARK    5  A    between atoms: C_11  and  C_19 
REMARK    6  A    between atoms: C_19  and  C_20 
REMARK    7  A    between atoms: C_20  and  C_21 
ROOT
HETATM    1  C           1     -22.770  -3.705  -9.696  0.00  0.00     0.186 C 
ENDROOT
BRANCH   1   2
HETATM    2  N           1     -22.207  -4.723  -8.829  0.00  0.00    -0.345 N 
HETATM    3  C           1     -21.608  -4.365  -7.652  0.00  0.00     0.248 C 
HETATM    4  O           1     -21.546  -3.201  -7.335  0.00  0.00    -0.271 OA
HETATM    5  H           1     -22.259  -5.698  -9.095  0.00  0.00     0.163 HD
BRANCH   3   6
HETATM    6  C           1     -21.023  -5.424  -6.751  0.00  0.00     0.270 C 
HETATM    7  C           1     -20.342  -4.761  -5.561  0.00  0.00     0.050 C 
BRANCH   6   8
HETATM    8  N           1     -20.017  -6.232  -7.516  0.00  0.00    -0.067 N 
HETATM    9  H           1     -19.323  -5.590  -7.963  0.00  0.00     0.275 HD
HETATM   10  H           1     -19.521  -6.880  -6.863  0.00  0.00     0.275 HD
HETATM   11  H           1     -20.505  -6.787  -8.254  0.00  0.00     0.275 HD
ENDBRANCH   6   8
ENDBRANCH   3   6
ENDBRANCH   1   2
BRANCH   1  12
HETATM   12  C           1     -22.236  -3.891 -11.110  0.00  0.00     0.045 C 
BRANCH  12  13
HETATM   13  C           1     -22.414  -2.598 -11.895  0.00  0.00     0.105 C 
BRANCH  13  14
HETATM   14  C           1     -23.194  -2.878 -13.156  0.00  0.00     0.215 C 
HETATM   15  O           1     -24.401  -2.912 -13.125  0.00  0.00    -0.274 OA
HETATM   16  N           1     -22.534  -3.093 -14.335  0.00  0.00    -0.370 N 
HETATM   17  H           1     -21.523  -3.064 -14.361  0.00  0.00     0.159 HD
HETATM   18  H           1     -23.057  -3.280 -15.182  0.00  0.00     0.159 HD
ENDBRANCH  13  14
ENDBRANCH  12  13
ENDBRANCH   1  12
BRANCH   1  19
HETATM   19  C           1     -24.274  -3.827  -9.705  0.00  0.00     0.196 C 
HETATM   20  O           1     -24.984  -2.817  -9.506  0.00  0.00    -0.646 OA
HETATM   21  O           1     -24.810  -4.937  -9.910  0.00  0.00    -0.646 OA
ENDBRANCH   1  19
TORSDOF 7
ENDMDL
MODEL 2
REMARK VINA RESULT:      -5.4      2.233      3.043
REMARK  7 active torsions:
REMARK  status: ('A' for Active; 'I' for Inactive)
REMARK       I    between atoms: C_1  and  N_9 
REMARK    1  A    between atoms: C_1  and  C_11 
REMARK    2  A    between atoms: N_4  and  C_20 
REMARK       I    between atoms: N_4  and  C_5 
REMARK    3  A    between atoms: C_5  and  C_6 
REMARK    4  A    between atoms: C_6  and  N_15 
REMARK    5  A    between atoms: C_11  and  C_19 
REMARK    6  A    between atoms: C_19  and  C_20 
REMARK    7  A    between atoms: C_20  and  C_21 
ROOT
HETATM    1  C           1     -21.691  -4.804  -8.750  0.00  0.00     0.186 C 
ENDROOT
BRANCH   1   2
HETATM    2  N           1     -21.831  -4.827  -7.307  0.00  0.00    -0.345 N 
HETATM    3  C           1     -21.371  -5.899  -6.592  0.00  0.00     0.248 C 
HETATM    4  O           1     -20.849  -6.828  -7.162  0.00  0.00    -0.271 OA
HETATM    5  H           1     -22.268  -4.049  -6.829  0.00  0.00     0.163 HD
BRANCH   3   6
HETATM    6  C           1     -21.517  -5.922  -5.090  0.00  0.00     0.270 C 
HETATM    7  C           1     -20.659  -7.041  -4.513  0.00  0.00     0.050 C 
BRANCH   6   8
HETATM    8  N           1     -22.954  -6.159  -4.731  0.00  0.00    -0.067 N 
HETATM    9  H           1     -23.042  -6.254  -3.693  0.00  0.00     0.275 HD
HETATM   10  H           1     -23.532  -5.352  -5.056  0.00  0.00     0.275 HD
HETATM   11  H           1     -23.288  -7.035  -5.191  0.00  0.00     0.275 HD
ENDBRANCH   6   8
ENDBRANCH   3   6
ENDBRANCH   1   2
BRANCH   1  12
HETATM   12  C           1     -22.705  -3.835  -9.343  0.00  0.00     0.045 C 
BRANCH  12  13
HETATM   13  C           1     -23.285  -4.425 -10.621  0.00  0.00     0.105 C 
BRANCH  13  14
HETATM   14  C           1     -22.926  -3.543 -11.792  0.00  0.00     0.215 C 
HETATM   15  O           1     -23.668  -2.650 -12.126  0.00  0.00    -0.274 OA
HETATM   16  N           1     -21.760  -3.755 -12.475  0.00  0.00    -0.370 N 
HETATM   17  H           1     -21.138  -4.503 -12.196  0.00  0.00     0.159 HD
HETATM   18  H           1     -21.519  -3.163 -13.261  0.00  0.00     0.159 HD
ENDBRANCH  13  14
ENDBRANCH  12  13
ENDBRANCH   1  12
BRANCH   1  19
HETATM   19  C           1     -20.296  -4.358  -9.113  0.00  0.00     0.196 C 
HETATM   20  O           1     -19.641  -3.647  -8.321  0.00  0.00    -0.646 OA
HETATM   21  O           1     -19.796  -4.699 -10.206  0.00  0.00    -0.646 OA
ENDBRANCH   1  19
TORSDOF 7
ENDMDL
MODEL 3
REMARK VINA RESULT:      -5.2      4.053      7.906
REMARK  7 active torsions:
REMARK  status: ('A' for Active; 'I' for Inactive)
REMARK       I    between atoms: C_1  and  N_9 
REMARK    1  A    between atoms: C_1  and  C_11 
REMARK    2  A    between atoms: N_4  and  C_20 
REMARK       I    between atoms: N_4  and  C_5 
REMARK    3  A    between atoms: C_5  and  C_6 
REMARK    4  A    between atoms: C_6  and  N_15 
REMARK    5  A    between atoms: C_11  and  C_19 
REMARK    6  A    between atoms: C_19  and  C_20 
REMARK    7  A    between atoms: C_20  and  C_21 
ROOT
HETATM    1  C           1     -20.707  -6.894  -5.150  0.00  0.00     0.186 C 
ENDROOT
BRANCH   1   2
HETATM    2  N           1     -21.121  -6.521  -6.488  0.00  0.00    -0.345 N 
HETATM    3  C           1     -21.032  -5.217  -6.894  0.00  0.00     0.248 C 
HETATM    4  O           1     -20.610  -4.375  -6.135  0.00  0.00    -0.271 OA
HETATM    5  H           1     -21.474  -7.225  -7.123  0.00  0.00     0.163 HD
BRANCH   3   6
HETATM    6  C           1     -21.463  -4.829  -8.287  0.00  0.00     0.270 C 
HETATM    7  C           1     -20.249  -4.368  -9.084  0.00  0.00     0.050 C 
BRANCH   6   8
HETATM    8  N           1     -22.462  -3.713  -8.209  0.00  0.00    -0.067 N 
HETATM    9  H           1     -23.289  -3.944  -8.806  0.00  0.00     0.275 HD
HETATM   10  H           1     -22.771  -3.590  -7.219  0.00  0.00     0.275 HD
HETATM   11  H           1     -22.023  -2.829  -8.548  0.00  0.00     0.275 HD
ENDBRANCH   6   8
ENDBRANCH   3   6
ENDBRANCH   1   2
BRANCH   1  12
HETATM   12  C           1     -21.904  -6.825  -4.211  0.00  0.00     0.045 C 
BRANCH  12  13
HETATM   13  C           1     -21.494  -6.146  -2.911  0.00  0.00     0.105 C 
BRANCH  13  14
HETATM   14  C           1     -21.856  -7.030  -1.744  0.00  0.00     0.215 C 
HETATM   15  O           1     -22.686  -6.666  -0.945  0.00  0.00    -0.274 OA
HETATM   16  N           1     -21.245  -8.245  -1.589  0.00  0.00    -0.370 N 
HETATM   17  H           1     -20.550  -8.550  -2.258  0.00  0.00     0.159 HD
HETATM   18  H           1     -21.489  -8.838  -0.806  0.00  0.00     0.159 HD
ENDBRANCH  13  14
ENDBRANCH  12  13
ENDBRANCH   1  12
BRANCH   1  19
HETATM   19  C           1     -20.159  -8.300  -5.165  0.00  0.00     0.196 C 
HETATM   20  O           1     -20.712  -9.194  -4.488  0.00  0.00    -0.646 OA
HETATM   21  O           1     -19.153  -8.570  -5.854  0.00  0.00    -0.646 OA
ENDBRANCH   1  19
TORSDOF 7
ENDMDL
MODEL 4
REMARK VINA RESULT:      -5.1      6.859      9.416
REMARK  7 active torsions:
REMARK  status: ('A' for Active; 'I' for Inactive)
REMARK       I    between atoms: C_1  and  N_9 
REMARK    1  A    between atoms: C_1  and  C_11 
REMARK    2  A    between atoms: N_4  and  C_20 
REMARK       I    between atoms: N_4  and  C_5 
REMARK    3  A    between atoms: C_5  and  C_6 
REMARK    4  A    between atoms: C_6  and  N_15 
REMARK    5  A    between atoms: C_11  and  C_19 
REMARK    6  A    between atoms: C_19  and  C_20 
REMARK    7  A    between atoms: C_20  and  C_21 
ROOT
HETATM    1  C           1     -21.233  -7.969  -1.546  0.00  0.00     0.186 C 
ENDROOT
BRANCH   1   2
HETATM    2  N           1     -21.918  -9.245  -1.494  0.00  0.00    -0.345 N 
HETATM    3  C           1     -21.718 -10.087  -0.434  0.00  0.00     0.248 C 
HETATM    4  O           1     -20.969  -9.767   0.459  0.00  0.00    -0.271 OA
HETATM    5  H           1     -22.546  -9.513  -2.241  0.00  0.00     0.163 HD
BRANCH   3   6
HETATM    6  C           1     -22.431 -11.415  -0.380  0.00  0.00     0.270 C 
HETATM    7  C           1     -23.927 -11.183  -0.212  0.00  0.00     0.050 C 
BRANCH   6   8
HETATM    8  N           1     -21.916 -12.213   0.781  0.00  0.00    -0.067 N 
HETATM    9  H           1     -22.076 -11.681   1.667  0.00  0.00     0.275 HD
HETATM   10  H           1     -22.421 -13.126   0.828  0.00  0.00     0.275 HD
HETATM   11  H           1     -20.894 -12.386   0.658  0.00  0.00     0.275 HD
ENDBRANCH   6   8
ENDBRANCH   3   6
ENDBRANCH   1   2
BRANCH   1  12
HETATM   12  C           1     -20.616  -7.779  -2.925  0.00  0.00     0.045 C 
BRANCH  12  13
HETATM   13  C           1     -21.505  -8.433  -3.974  0.00  0.00     0.105 C 
BRANCH  13  14
HETATM   14  C           1     -21.744  -7.465  -5.107  0.00  0.00     0.215 C 
HETATM   15  O           1     -21.243  -7.666  -6.188  0.00  0.00    -0.274 OA
HETATM   16  N           1     -22.527  -6.361  -4.910  0.00  0.00    -0.370 N 
HETATM   17  H           1     -22.946  -6.192  -4.005  0.00  0.00     0.159 HD
HETATM   18  H           1     -22.687  -5.711  -5.671  0.00  0.00     0.159 HD
ENDBRANCH  13  14
ENDBRANCH  12  13
ENDBRANCH   1  12
BRANCH   1  19
HETATM   19  C           1     -22.218  -6.857  -1.278  0.00  0.00     0.196 C 
HETATM   20  O           1     -23.062  -6.977  -0.363  0.00  0.00    -0.646 OA
HETATM   21  O           1     -22.190  -5.817  -1.970  0.00  0.00    -0.646 OA
ENDBRANCH   1  19
TORSDOF 7
ENDMDL
MODEL 5
REMARK VINA RESULT:      -4.8      6.297      8.568
REMARK  7 active torsions:
REMARK  status: ('A' for Active; 'I' for Inactive)
REMARK       I    between atoms: C_1  and  N_9 
REMARK    1  A    between atoms: C_1  and  C_11 
REMARK    2  A    between atoms: N_4  and  C_20 
REMARK       I    between atoms: N_4  and  C_5 
REMARK    3  A    between atoms: C_5  and  C_6 
REMARK    4  A    between atoms: C_6  and  N_15 
REMARK    5  A    between atoms: C_11  and  C_19 
REMARK    6  A    between atoms: C_19  and  C_20 
REMARK    7  A    between atoms: C_20  and  C_21 
ROOT
HETATM    1  C           1     -21.171  -8.141  -4.519  0.00  0.00     0.186 C 
ENDROOT
BRANCH   1   2
HETATM    2  N           1     -20.106  -8.886  -5.163  0.00  0.00    -0.345 N 
HETATM    3  C           1     -20.099 -10.253  -5.111  0.00  0.00     0.248 C 
HETATM    4  O           1     -20.980 -10.841  -4.528  0.00  0.00    -0.271 OA
HETATM    5  H           1     -19.369  -8.394  -5.651  0.00  0.00     0.163 HD
BRANCH   3   6
HETATM    6  C           1     -18.991 -11.027  -5.782  0.00  0.00     0.270 C 
HETATM    7  C           1     -17.811 -10.101  -6.047  0.00  0.00     0.050 C 
BRANCH   6   8
HETATM    8  N           1     -19.488 -11.588  -7.081  0.00  0.00    -0.067 N 
HETATM    9  H           1     -20.418 -12.043  -6.930  0.00  0.00     0.275 HD
HETATM   10  H           1     -19.587 -10.817  -7.779  0.00  0.00     0.275 HD
HETATM   11  H           1     -18.808 -12.295  -7.437  0.00  0.00     0.275 HD
ENDBRANCH   6   8
ENDBRANCH   3   6
ENDBRANCH   1   2
BRANCH   1  12
HETATM   12  C           1     -20.648  -7.519  -3.231  0.00  0.00     0.045 C 
BRANCH  12  13
HETATM   13  C           1     -21.437  -8.063  -2.047  0.00  0.00     0.105 C 
BRANCH  13  14
HETATM   14  C           1     -22.258  -6.954  -1.436  0.00  0.00     0.215 C 
HETATM   15  O           1     -22.891  -7.156  -0.428  0.00  0.00    -0.274 OA
HETATM   16  N           1     -22.286  -5.719  -2.025  0.00  0.00    -0.370 N 
HETATM   17  H           1     -21.756  -5.549  -2.870  0.00  0.00     0.159 HD
HETATM   18  H           1     -22.837  -4.975  -1.616  0.00  0.00     0.159 HD
ENDBRANCH  13  14
ENDBRANCH  12  13
ENDBRANCH   1  12
BRANCH   1  19
HETATM   19  C           1     -21.654  -7.052  -5.445  0.00  0.00     0.196 C 
HETATM   20  O           1     -21.156  -6.934  -6.585  0.00  0.00    -0.646 OA
HETATM   21  O           1     -22.552  -6.268  -5.071  0.00  0.00    -0.646 OA
ENDBRANCH   1  19
TORSDOF 7
ENDMDL
MODEL 6
REMARK VINA RESULT:      -4.6      7.671     10.391
REMARK  7 active torsions:
REMARK  status: ('A' for Active; 'I' for Inactive)
REMARK       I    between atoms: C_1  and  N_9 
REMARK    1  A    between atoms: C_1  and  C_11 
REMARK    2  A    between atoms: N_4  and  C_20 
REMARK       I    between atoms: N_4  and  C_5 
REMARK    3  A    between atoms: C_5  and  C_6 
REMARK    4  A    between atoms: C_6  and  N_15 
REMARK    5  A    between atoms: C_11  and  C_19 
REMARK    6  A    between atoms: C_19  and  C_20 
REMARK    7  A    between atoms: C_20  and  C_21 
ROOT
HETATM    1  C           1     -20.852  -8.952  -0.729  0.00  0.00     0.186 C 
ENDROOT
BRANCH   1   2
HETATM    2  N           1     -21.719  -9.845  -1.472  0.00  0.00    -0.345 N 
HETATM    3  C           1     -21.645 -11.196  -1.271  0.00  0.00     0.248 C 
HETATM    4  O           1     -20.854 -11.646  -0.474  0.00  0.00    -0.271 OA
HETATM    5  H           1     -22.381  -9.468  -2.138  0.00  0.00     0.163 HD
BRANCH   3   6
HETATM    6  C           1     -22.548 -12.125  -2.043  0.00  0.00     0.270 C 
HETATM    7  C           1     -22.909 -11.489  -3.379  0.00  0.00     0.050 C 
BRANCH   6   8
HETATM    8  N           1     -23.799 -12.376  -1.255  0.00  0.00    -0.067 N 
HETATM    9  H           1     -23.567 -12.933  -0.401  0.00  0.00     0.275 HD
HETATM   10  H           1     -24.221 -11.463  -0.971  0.00  0.00     0.275 HD
HETATM   11  H           1     -24.480 -12.906  -1.843  0.00  0.00     0.275 HD
ENDBRANCH   6   8
ENDBRANCH   3   6
ENDBRANCH   1   2
BRANCH   1  12
HETATM   12  C           1     -20.384  -7.824  -1.640  0.00  0.00     0.045 C 
BRANCH  12  13
HETATM   13  C           1     -21.197  -7.840  -2.928  0.00  0.00     0.105 C 
BRANCH  13  14
HETATM   14  C           1     -21.874  -6.504  -3.113  0.00  0.00     0.215 C 
HETATM   15  O           1     -22.030  -6.056  -4.224  0.00  0.00    -0.274 OA
HETATM   16  N           1     -22.309  -5.800  -2.024  0.00  0.00    -0.370 N 
HETATM   17  H           1     -22.178  -6.175  -1.093  0.00  0.00     0.159 HD
HETATM   18  H           1     -22.763  -4.903  -2.148  0.00  0.00     0.159 HD
ENDBRANCH  13  14
ENDBRANCH  12  13
ENDBRANCH   1  12
BRANCH   1  19
HETATM   19  C           1     -21.608  -8.372   0.441  0.00  0.00     0.196 C 
HETATM   20  O           1     -21.138  -8.464   1.596  0.00  0.00    -0.646 OA
HETATM   21  O           1     -22.704  -7.802   0.256  0.00  0.00    -0.646 OA
ENDBRANCH   1  19
TORSDOF 7
ENDMDL
MODEL 7
REMARK VINA RESULT:      -4.6      7.298      9.244
REMARK  7 active torsions:
REMARK  status: ('A' for Active; 'I' for Inactive)
REMARK       I    between atoms: C_1  and  N_9 
REMARK    1  A    between atoms: C_1  and  C_11 
REMARK    2  A    between atoms: N_4  and  C_20 
REMARK       I    between atoms: N_4  and  C_5 
REMARK    3  A    between atoms: C_5  and  C_6 
REMARK    4  A    between atoms: C_6  and  N_15 
REMARK    5  A    between atoms: C_11  and  C_19 
REMARK    6  A    between atoms: C_19  and  C_20 
REMARK    7  A    between atoms: C_20  and  C_21 
ROOT
HETATM    1  C           1     -20.254  -8.612  -3.700  0.00  0.00     0.186 C 
ENDROOT
BRANCH   1   2
HETATM    2  N           1     -18.862  -8.895  -3.992  0.00  0.00    -0.345 N 
HETATM    3  C           1     -18.305 -10.078  -3.589  0.00  0.00     0.248 C 
HETATM    4  O           1     -18.973 -10.887  -2.988  0.00  0.00    -0.271 OA
HETATM    5  H           1     -18.303  -8.218  -4.495  0.00  0.00     0.163 HD
BRANCH   3   6
HETATM    6  C           1     -16.857 -10.373  -3.893  0.00  0.00     0.270 C 
HETATM    7  C           1     -15.967  -9.600  -2.928  0.00  0.00     0.050 C 
BRANCH   6   8
HETATM    8  N           1     -16.547  -9.956  -5.300  0.00  0.00    -0.067 N 
HETATM    9  H           1     -16.011 -10.716  -5.778  0.00  0.00     0.275 HD
HETATM   10  H           1     -17.439  -9.782  -5.817  0.00  0.00     0.275 HD
HETATM   11  H           1     -15.976  -9.082  -5.286  0.00  0.00     0.275 HD
ENDBRANCH   6   8
ENDBRANCH   3   6
ENDBRANCH   1   2
BRANCH   1  12
HETATM   12  C           1     -20.352  -7.860  -2.379  0.00  0.00     0.045 C 
BRANCH  12  13
HETATM   13  C           1     -21.622  -8.278  -1.649  0.00  0.00     0.105 C 
BRANCH  13  14
HETATM   14  C           1     -22.372  -7.049  -1.198  0.00  0.00     0.215 C 
HETATM   15  O           1     -23.034  -7.082  -0.188  0.00  0.00    -0.274 OA
HETATM   16  N           1     -22.303  -5.896  -1.932  0.00  0.00    -0.370 N 
HETATM   17  H           1     -21.749  -5.868  -2.779  0.00  0.00     0.159 HD
HETATM   18  H           1     -22.806  -5.072  -1.630  0.00  0.00     0.159 HD
ENDBRANCH  13  14
ENDBRANCH  12  13
ENDBRANCH   1  12
BRANCH   1  19
HETATM   19  C           1     -20.839  -7.767  -4.805  0.00  0.00     0.196 C 
HETATM   20  O           1     -20.999  -6.539  -4.636  0.00  0.00    -0.646 OA
HETATM   21  O           1     -21.163  -8.296  -5.890  0.00  0.00    -0.646 OA
ENDBRANCH   1  19
TORSDOF 7
ENDMDL
MODEL 8
REMARK VINA RESULT:      -4.6      5.821      9.336
REMARK  7 active torsions:
REMARK  status: ('A' for Active; 'I' for Inactive)
REMARK       I    between atoms: C_1  and  N_9 
REMARK    1  A    between atoms: C_1  and  C_11 
REMARK    2  A    between atoms: N_4  and  C_20 
REMARK       I    between atoms: N_4  and  C_5 
REMARK    3  A    between atoms: C_5  and  C_6 
REMARK    4  A    between atoms: C_6  and  N_15 
REMARK    5  A    between atoms: C_11  and  C_19 
REMARK    6  A    between atoms: C_19  and  C_20 
REMARK    7  A    between atoms: C_20  and  C_21 
ROOT
HETATM    1  C           1     -21.227  -7.710  -2.900  0.00  0.00     0.186 C 
ENDROOT
BRANCH   1   2
HETATM    2  N           1     -20.701  -6.781  -3.882  0.00  0.00    -0.345 N 
HETATM    3  C           1     -20.697  -7.117  -5.208  0.00  0.00     0.248 C 
HETATM    4  O           1     -21.130  -8.188  -5.562  0.00  0.00    -0.271 OA
HETATM    5  H           1     -20.339  -5.884  -3.585  0.00  0.00     0.163 HD
BRANCH   3   6
HETATM    6  C           1     -20.150  -6.150  -6.229  0.00  0.00     0.270 C 
HETATM    7  C           1     -20.152  -4.742  -5.648  0.00  0.00     0.050 C 
BRANCH   6   8
HETATM    8  N           1     -21.007  -6.184  -7.459  0.00  0.00    -0.067 N 
HETATM    9  H           1     -21.897  -5.665  -7.278  0.00  0.00     0.275 HD
HETATM   10  H           1     -20.498  -5.733  -8.252  0.00  0.00     0.275 HD
HETATM   11  H           1     -21.225  -7.175  -7.704  0.00  0.00     0.275 HD
ENDBRANCH   6   8
ENDBRANCH   3   6
ENDBRANCH   1   2
BRANCH   1  12
HETATM   12  C           1     -20.073  -8.413  -2.198  0.00  0.00     0.045 C 
BRANCH  12  13
HETATM   13  C           1     -20.131  -9.906  -2.493  0.00  0.00     0.105 C 
BRANCH  13  14
HETATM   14  C           1     -20.953 -10.598  -1.434  0.00  0.00     0.215 C 
HETATM   15  O           1     -21.672 -11.521  -1.736  0.00  0.00    -0.274 OA
HETATM   16  N           1     -20.886 -10.181  -0.133  0.00  0.00    -0.370 N 
HETATM   17  H           1     -20.284  -9.407   0.119  0.00  0.00     0.159 HD
HETATM   18  H           1     -21.438 -10.645   0.577  0.00  0.00     0.159 HD
ENDBRANCH  13  14
ENDBRANCH  12  13
ENDBRANCH   1  12
BRANCH   1  19
HETATM   19  C           1     -22.051  -6.957  -1.885  0.00  0.00     0.196 C 
HETATM   20  O           1     -22.223  -7.434  -0.742  0.00  0.00    -0.646 OA
HETATM   21  O           1     -22.563  -5.858  -2.187  0.00  0.00    -0.646 OA
ENDBRANCH   1  19
TORSDOF 7
ENDMDL
MODEL 9
REMARK VINA RESULT:      -4.5      8.312     10.317
REMARK  7 active torsions:
REMARK  status: ('A' for Active; 'I' for Inactive)
REMARK       I    between atoms: C_1  and  N_9 
REMARK    1  A    between atoms: C_1  and  C_11 
REMARK    2  A    between atoms: N_4  and  C_20 
REMARK       I    between atoms: N_4  and  C_5 
REMARK    3  A    between atoms: C_5  and  C_6 
REMARK    4  A    between atoms: C_6  and  N_15 
REMARK    5  A    between atoms: C_11  and  C_19 
REMARK    6  A    between atoms: C_19  and  C_20 
REMARK    7  A    between atoms: C_20  and  C_21 
ROOT
HETATM    1  C           1     -21.675  -7.771  -1.712  0.00  0.00     0.186 C 
ENDROOT
BRANCH   1   2
HETATM    2  N           1     -20.273  -8.025  -1.980  0.00  0.00    -0.345 N 
HETATM    3  C           1     -19.887  -9.212  -2.541  0.00  0.00     0.248 C 
HETATM    4  O           1     -20.715 -10.049  -2.813  0.00  0.00    -0.271 OA
HETATM    5  H           1     -19.580  -7.323  -1.753  0.00  0.00     0.163 HD
BRANCH   3   6
HETATM    6  C           1     -18.428  -9.476  -2.820  0.00  0.00     0.270 C 
HETATM    7  C           1     -18.185  -9.454  -4.323  0.00  0.00     0.050 C 
BRANCH   6   8
HETATM    8  N           1     -18.050 -10.819  -2.272  0.00  0.00    -0.067 N 
HETATM    9  H           1     -18.916 -11.373  -2.078  0.00  0.00     0.275 HD
HETATM   10  H           1     -17.461 -11.327  -2.969  0.00  0.00     0.275 HD
HETATM   11  H           1     -17.511 -10.695  -1.386  0.00  0.00     0.275 HD
ENDBRANCH   6   8
ENDBRANCH   3   6
ENDBRANCH   1   2
BRANCH   1  12
HETATM   12  C           1     -21.905  -7.724  -0.208  0.00  0.00     0.045 C 
BRANCH  12  13
HETATM   13  C           1     -23.066  -8.638   0.159  0.00  0.00     0.105 C 
BRANCH  13  14
HETATM   14  C           1     -22.697 -10.069  -0.149  0.00  0.00     0.215 C 
HETATM   15  O           1     -21.814 -10.611   0.470  0.00  0.00    -0.274 OA
HETATM   16  N           1     -23.364 -10.751  -1.130  0.00  0.00    -0.370 N 
HETATM   17  H           1     -24.104 -10.297  -1.649  0.00  0.00     0.159 HD
HETATM   18  H           1     -23.117 -11.711  -1.337  0.00  0.00     0.159 HD
ENDBRANCH  13  14
ENDBRANCH  12  13
ENDBRANCH   1  12
BRANCH   1  19
HETATM   19  C           1     -22.073  -6.449  -2.324  0.00  0.00     0.196 C 
HETATM   20  O           1     -22.334  -5.473  -1.588  0.00  0.00    -0.646 OA
HETATM   21  O           1     -22.143  -6.332  -3.566  0.00  0.00    -0.646 OA
ENDBRANCH   1  19
TORSDOF 7
ENDMDL
