MODEL 1
REMARK VINA RESULT:      -5.6      0.000      0.000
REMARK  7 active torsions:
REMARK  status: ('A' for Active; 'I' for Inactive)
REMARK    1  A    between atoms: N_1  and  C_6 
REMARK    2  A    between atoms: C_3  and  C_16 
REMARK    3  A    between atoms: C_3  and  N_4 
REMARK       I    between atoms: N_4  and  C_5 
REMARK    4  A    between atoms: C_5  and  C_6 
REMARK    5  A    between atoms: C_6  and  C_7 
REMARK    6  A    between atoms: C_7  and  C_8 
REMARK    7  A    between atoms: C_8  and  Se_9 
ROOT
HETATM    1  C           1     -24.248  -3.343  -9.669  0.00  0.00     0.274 C 
ENDROOT
BRANCH   1   2
HETATM    2  N           1     -25.724  -3.608  -9.706  0.00  0.00    -0.067 N 
HETATM    3  H           1     -26.219  -2.908  -9.107  0.00  0.00     0.275 HD
HETATM    4  H           1     -26.068  -3.529 -10.689  0.00  0.00     0.275 HD
HETATM    5  H           1     -25.914  -4.571  -9.345  0.00  0.00     0.275 HD
ENDBRANCH   1   2
BRANCH   1   6
HETATM    6  C           1     -23.631  -3.756 -10.983  0.00  0.00     0.248 C 
HETATM    7  O           1     -23.614  -4.921 -11.303  0.00  0.00    -0.271 OA
HETATM    8  N           1     -23.091  -2.811 -11.812  0.00  0.00    -0.349 N 
HETATM    9  H           1     -23.105  -1.835 -11.545  0.00  0.00     0.163 HD
BRANCH   8  10
HETATM   10  C           1     -22.498  -3.207 -13.075  0.00  0.00     0.235 C 
BRANCH  10  11
HETATM   11  C           1     -23.234  -2.539 -14.210  0.00  0.00     0.191 C 
HETATM   12  O           1     -22.738  -2.530 -15.357  0.00  0.00    -0.647 OA
HETATM   13  O           1     -24.341  -1.995 -14.003  0.00  0.00    -0.647 OA
ENDBRANCH  10  11
ENDBRANCH   8  10
ENDBRANCH   1   6
BRANCH   1  14
HETATM   14  C           1     -23.617  -4.142  -8.538  0.00  0.00     0.042 C 
BRANCH  14  15
HETATM   15  C           1     -22.226  -3.598  -8.245  0.00  0.00     0.003 C 
BRANCH  15  16
HETATM   16 Se           1     -20.934  -5.057  -8.289  0.00  0.00     0.000 Se
HETATM   17  C           1     -20.202  -4.573 -10.030  0.00  0.00     0.000 C 
ENDBRANCH  15  16
ENDBRANCH  14  15
ENDBRANCH   1  14
TORSDOF 7
ENDMDL
MODEL 2
REMARK VINA RESULT:      -5.6      1.614      1.768
REMARK  7 active torsions:
REMARK  status: ('A' for Active; 'I' for Inactive)
REMARK    1  A    between atoms: N_1  and  C_6 
REMARK    2  A    between atoms: C_3  and  C_16 
REMARK    3  A    between atoms: C_3  and  N_4 
REMARK       I    between atoms: N_4  and  C_5 
REMARK    4  A    between atoms: C_5  and  C_6 
REMARK    5  A    between atoms: C_6  and  C_7 
REMARK    6  A    between atoms: C_7  and  C_8 
REMARK    7  A    between atoms: C_8  and  Se_9 
ROOT
HETATM    1  C           1     -23.188  -3.602  -9.295  0.00  0.00     0.274 C 
ENDROOT
BRANCH   1   2
HETATM    2  N           1     -23.996  -4.013  -8.099  0.00  0.00    -0.067 N 
HETATM    3  H           1     -23.478  -3.764  -7.226  0.00  0.00     0.275 HD
HETATM    4  H           1     -24.915  -3.518  -8.113  0.00  0.00     0.275 HD
HETATM    5  H           1     -24.155  -5.046  -8.126  0.00  0.00     0.275 HD
ENDBRANCH   1   2
BRANCH   1   6
HETATM    6  C           1     -24.113  -3.315 -10.452  0.00  0.00     0.248 C 
HETATM    7  O           1     -25.304  -3.234 -10.267  0.00  0.00    -0.271 OA
HETATM    8  N           1     -23.603  -3.146 -11.710  0.00  0.00    -0.349 N 
HETATM    9  H           1     -22.606  -3.214 -11.866  0.00  0.00     0.163 HD
BRANCH   8  10
HETATM   10  C           1     -24.492  -2.870 -12.822  0.00  0.00     0.235 C 
BRANCH  10  11
HETATM   11  C           1     -23.691  -2.358 -13.994  0.00  0.00     0.191 C 
HETATM   12  O           1     -22.606  -2.900 -14.294  0.00  0.00    -0.647 OA
HETATM   13  O           1     -24.113  -1.391 -14.664  0.00  0.00    -0.647 OA
ENDBRANCH  10  11
ENDBRANCH   8  10
ENDBRANCH   1   6
BRANCH   1  14
HETATM   14  C           1     -22.234  -4.726  -9.673  0.00  0.00     0.042 C 
BRANCH  14  15
HETATM   15  C           1     -20.806  -4.198  -9.690  0.00  0.00     0.003 C 
BRANCH  15  16
HETATM   16 Se           1     -20.126  -4.102  -7.867  0.00  0.00     0.000 Se
HETATM   17  C           1     -20.883  -5.813  -7.320  0.00  0.00     0.000 C 
ENDBRANCH  15  16
ENDBRANCH  14  15
ENDBRANCH   1  14
TORSDOF 7
ENDMDL
MODEL 3
REMARK VINA RESULT:      -5.2      9.186     10.699
REMARK  7 active torsions:
REMARK  status: ('A' for Active; 'I' for Inactive)
REMARK    1  A    between atoms: N_1  and  C_6 
REMARK    2  A    between atoms: C_3  and  C_16 
REMARK    3  A    between atoms: C_3  and  N_4 
REMARK       I    between atoms: N_4  and  C_5 
REMARK    4  A    between atoms: C_5  and  C_6 
REMARK    5  A    between atoms: C_6  and  C_7 
REMARK    6  A    between atoms: C_7  and  C_8 
REMARK    7  A    between atoms: C_8  and  Se_9 
ROOT
HETATM    1  C           1     -25.094  -6.659 -19.106  0.00  0.00     0.274 C 
ENDROOT
BRANCH   1   2
HETATM    2  N           1     -24.266  -7.475 -18.158  0.00  0.00    -0.067 N 
HETATM    3  H           1     -24.561  -8.477 -18.210  0.00  0.00     0.275 HD
HETATM    4  H           1     -23.258  -7.396 -18.418  0.00  0.00     0.275 HD
HETATM    5  H           1     -24.405  -7.123 -17.183  0.00  0.00     0.275 HD
ENDBRANCH   1   2
BRANCH   1   6
HETATM    6  C           1     -26.439  -6.377 -18.483  0.00  0.00     0.248 C 
HETATM    7  O           1     -26.503  -5.828 -17.408  0.00  0.00    -0.271 OA
HETATM    8  N           1     -27.586  -6.742 -19.134  0.00  0.00    -0.349 N 
HETATM    9  H           1     -27.532  -7.202 -20.034  0.00  0.00     0.163 HD
BRANCH   8  10
HETATM   10  C           1     -28.878  -6.471 -18.536  0.00  0.00     0.235 C 
BRANCH  10  11
HETATM   11  C           1     -29.589  -7.773 -18.258  0.00  0.00     0.191 C 
HETATM   12  O           1     -29.967  -8.493 -19.206  0.00  0.00    -0.647 OA
HETATM   13  O           1     -29.799  -8.130 -17.078  0.00  0.00    -0.647 OA
ENDBRANCH  10  11
ENDBRANCH   8  10
ENDBRANCH   1   6
BRANCH   1  14
HETATM   14  C           1     -25.287  -7.431 -20.404  0.00  0.00     0.042 C 
BRANCH  14  15
HETATM   15  C           1     -23.968  -8.071 -20.817  0.00  0.00     0.003 C 
BRANCH  15  16
HETATM   16 Se           1     -23.728  -7.884 -22.742  0.00  0.00     0.000 Se
HETATM   17  C           1     -22.144  -9.017 -22.819  0.00  0.00     0.000 C 
ENDBRANCH  15  16
ENDBRANCH  14  15
ENDBRANCH   1  14
TORSDOF 7
ENDMDL
MODEL 4
REMARK VINA RESULT:      -5.2      1.771      2.466
REMARK  7 active torsions:
REMARK  status: ('A' for Active; 'I' for Inactive)
REMARK    1  A    between atoms: N_1  and  C_6 
REMARK    2  A    between atoms: C_3  and  C_16 
REMARK    3  A    between atoms: C_3  and  N_4 
REMARK       I    between atoms: N_4  and  C_5 
REMARK    4  A    between atoms: C_5  and  C_6 
REMARK    5  A    between atoms: C_6  and  C_7 
REMARK    6  A    between atoms: C_7  and  C_8 
REMARK    7  A    between atoms: C_8  and  Se_9 
ROOT
HETATM    1  C           1     -21.361  -4.324 -10.867  0.00  0.00     0.274 C 
ENDROOT
BRANCH   1   2
HETATM    2  N           1     -20.196  -3.645 -11.524  0.00  0.00    -0.067 N 
HETATM    3  H           1     -20.465  -2.671 -11.790  0.00  0.00     0.275 HD
HETATM    4  H           1     -19.390  -3.615 -10.860  0.00  0.00     0.275 HD
HETATM    5  H           1     -19.923  -4.177 -12.382  0.00  0.00     0.275 HD
ENDBRANCH   1   2
BRANCH   1   6
HETATM    6  C           1     -22.609  -4.079 -11.681  0.00  0.00     0.248 C 
HETATM    7  O           1     -23.471  -4.924 -11.734  0.00  0.00    -0.271 OA
HETATM    8  N           1     -22.764  -2.900 -12.358  0.00  0.00    -0.349 N 
HETATM    9  H           1     -22.042  -2.192 -12.314  0.00  0.00     0.163 HD
BRANCH   8  10
HETATM   10  C           1     -23.962  -2.665 -13.140  0.00  0.00     0.235 C 
BRANCH  10  11
HETATM   11  C           1     -23.581  -2.128 -14.498  0.00  0.00     0.191 C 
HETATM   12  O           1     -22.687  -2.692 -15.165  0.00  0.00    -0.647 OA
HETATM   13  O           1     -24.161  -1.120 -14.956  0.00  0.00    -0.647 OA
ENDBRANCH  10  11
ENDBRANCH   8  10
ENDBRANCH   1   6
BRANCH   1  14
HETATM   14  C           1     -21.551  -3.763  -9.465  0.00  0.00     0.042 C 
BRANCH  14  15
HETATM   15  C           1     -21.856  -4.900  -8.499  0.00  0.00     0.003 C 
BRANCH  15  16
HETATM   16 Se           1     -21.066  -4.507  -6.761  0.00  0.00     0.000 Se
HETATM   17  C           1     -20.813  -6.376  -6.271  0.00  0.00     0.000 C 
ENDBRANCH  15  16
ENDBRANCH  14  15
ENDBRANCH   1  14
TORSDOF 7
ENDMDL
MODEL 5
REMARK VINA RESULT:      -5.0      3.367      5.798
REMARK  7 active torsions:
REMARK  status: ('A' for Active; 'I' for Inactive)
REMARK    1  A    between atoms: N_1  and  C_6 
REMARK    2  A    between atoms: C_3  and  C_16 
REMARK    3  A    between atoms: C_3  and  N_4 
REMARK       I    between atoms: N_4  and  C_5 
REMARK    4  A    between atoms: C_5  and  C_6 
REMARK    5  A    between atoms: C_6  and  C_7 
REMARK    6  A    between atoms: C_7  and  C_8 
REMARK    7  A    between atoms: C_8  and  Se_9 
ROOT
HETATM    1  C           1     -24.017  -4.403  -9.447  0.00  0.00     0.274 C 
ENDROOT
BRANCH   1   2
HETATM    2  N           1     -24.720  -3.101  -9.201  0.00  0.00    -0.067 N 
HETATM    3  H           1     -24.835  -2.591 -10.106  0.00  0.00     0.275 HD
HETATM    4  H           1     -25.659  -3.285  -8.783  0.00  0.00     0.275 HD
HETATM    5  H           1     -24.152  -2.519  -8.543  0.00  0.00     0.275 HD
ENDBRANCH   1   2
BRANCH   1   6
HETATM    6  C           1     -22.652  -4.367  -8.803  0.00  0.00     0.248 C 
HETATM    7  O           1     -21.660  -4.486  -9.482  0.00  0.00    -0.271 OA
HETATM    8  N           1     -22.538  -4.198  -7.450  0.00  0.00    -0.349 N 
HETATM    9  H           1     -23.369  -4.098  -6.880  0.00  0.00     0.163 HD
BRANCH   8  10
HETATM   10  C           1     -21.227  -4.163  -6.831  0.00  0.00     0.235 C 
BRANCH  10  11
HETATM   11  C           1     -20.973  -5.465  -6.113  0.00  0.00     0.191 C 
HETATM   12  O           1     -20.829  -6.521  -6.765  0.00  0.00    -0.647 OA
HETATM   13  O           1     -20.906  -5.487  -4.865  0.00  0.00    -0.647 OA
ENDBRANCH  10  11
ENDBRANCH   8  10
ENDBRANCH   1   6
BRANCH   1  14
HETATM   14  C           1     -23.866  -4.624 -10.945  0.00  0.00     0.042 C 
BRANCH  14  15
HETATM   15  C           1     -24.215  -3.340 -11.686  0.00  0.00     0.003 C 
BRANCH  15  16
HETATM   16 Se           1     -22.591  -2.546 -12.413  0.00  0.00     0.000 Se
HETATM   17  C           1     -23.135  -2.739 -14.275  0.00  0.00     0.000 C 
ENDBRANCH  15  16
ENDBRANCH  14  15
ENDBRANCH   1  14
TORSDOF 7
ENDMDL
MODEL 6
REMARK VINA RESULT:      -4.9      2.686      3.425
REMARK  7 active torsions:
REMARK  status: ('A' for Active; 'I' for Inactive)
REMARK    1  A    between atoms: N_1  and  C_6 
REMARK    2  A    between atoms: C_3  and  C_16 
REMARK    3  A    between atoms: C_3  and  N_4 
REMARK       I    between atoms: N_4  and  C_5 
REMARK    4  A    between atoms: C_5  and  C_6 
REMARK    5  A    between atoms: C_6  and  C_7 
REMARK    6  A    between atoms: C_7  and  C_8 
REMARK    7  A    between atoms: C_8  and  Se_9 
ROOT
HETATM    1  C           1     -21.089  -3.976  -8.284  0.00  0.00     0.274 C 
ENDROOT
BRANCH   1   2
HETATM    2  N           1     -22.364  -3.892  -7.498  0.00  0.00    -0.067 N 
HETATM    3  H           1     -22.763  -2.930  -7.583  0.00  0.00     0.275 HD
HETATM    4  H           1     -23.049  -4.587  -7.871  0.00  0.00     0.275 HD
HETATM    5  H           1     -22.167  -4.100  -6.493  0.00  0.00     0.275 HD
ENDBRANCH   1   2
BRANCH   1   6
HETATM    6  C           1     -21.409  -4.017  -9.758  0.00  0.00     0.248 C 
HETATM    7  O           1     -20.655  -4.567 -10.525  0.00  0.00    -0.271 OA
HETATM    8  N           1     -22.554  -3.430 -10.227  0.00  0.00    -0.349 N 
HETATM    9  H           1     -23.186  -2.969  -9.585  0.00  0.00     0.163 HD
BRANCH   8  10
HETATM   10  C           1     -22.862  -3.470 -11.643  0.00  0.00     0.235 C 
BRANCH  10  11
HETATM   11  C           1     -24.328  -3.178 -11.849  0.00  0.00     0.191 C 
HETATM   12  O           1     -24.758  -2.911 -12.991  0.00  0.00    -0.647 OA
HETATM   13  O           1     -25.113  -3.203 -10.876  0.00  0.00    -0.647 OA
ENDBRANCH  10  11
ENDBRANCH   8  10
ENDBRANCH   1   6
BRANCH   1  14
HETATM   14  C           1     -20.333  -5.238  -7.893  0.00  0.00     0.042 C 
BRANCH  14  15
HETATM   15  C           1     -20.020  -5.202  -6.403  0.00  0.00     0.003 C 
BRANCH  15  16
HETATM   16 Se           1     -20.504  -6.908  -5.595  0.00  0.00     0.000 Se
HETATM   17  C           1     -21.367  -6.113  -4.039  0.00  0.00     0.000 C 
ENDBRANCH  15  16
ENDBRANCH  14  15
ENDBRANCH   1  14
TORSDOF 7
ENDMDL
MODEL 7
REMARK VINA RESULT:      -4.9      7.971      9.436
REMARK  7 active torsions:
REMARK  status: ('A' for Active; 'I' for Inactive)
REMARK    1  A    between atoms: N_1  and  C_6 
REMARK    2  A    between atoms: C_3  and  C_16 
REMARK    3  A    between atoms: C_3  and  N_4 
REMARK       I    between atoms: N_4  and  C_5 
REMARK    4  A    between atoms: C_5  and  C_6 
REMARK    5  A    between atoms: C_6  and  C_7 
REMARK    6  A    between atoms: C_7  and  C_8 
REMARK    7  A    between atoms: C_8  and  Se_9 
ROOT
HETATM    1  C           1     -24.910  -6.821 -17.091  0.00  0.00     0.274 C 
ENDROOT
BRANCH   1   2
HETATM    2  N           1     -24.023  -7.981 -16.749  0.00  0.00    -0.067 N 
HETATM    3  H           1     -23.063  -7.632 -16.528  0.00  0.00     0.275 HD
HETATM    4  H           1     -24.410  -8.483 -15.919  0.00  0.00     0.275 HD
HETATM    5  H           1     -23.977  -8.635 -17.564  0.00  0.00     0.275 HD
ENDBRANCH   1   2
BRANCH   1   6
HETATM    6  C           1     -26.225  -6.962 -16.363  0.00  0.00     0.248 C 
HETATM    7  O           1     -26.246  -7.385 -15.231  0.00  0.00    -0.271 OA
HETATM    8  N           1     -27.393  -6.612 -16.985  0.00  0.00    -0.349 N 
HETATM    9  H           1     -27.376  -6.258 -17.933  0.00  0.00     0.163 HD
BRANCH   8  10
HETATM   10  C           1     -28.656  -6.748 -16.286  0.00  0.00     0.235 C 
BRANCH  10  11
HETATM   11  C           1     -29.789  -6.726 -17.282  0.00  0.00     0.191 C 
HETATM   12  O           1     -30.378  -7.786 -17.581  0.00  0.00    -0.647 OA
HETATM   13  O           1     -30.138  -5.647 -17.807  0.00  0.00    -0.647 OA
ENDBRANCH  10  11
ENDBRANCH   8  10
ENDBRANCH   1   6
BRANCH   1  14
HETATM   14  C           1     -25.161  -6.798 -18.592  0.00  0.00     0.042 C 
BRANCH  14  15
HETATM   15  C           1     -23.970  -7.413 -19.316  0.00  0.00     0.003 C 
BRANCH  15  16
HETATM   16 Se           1     -24.480  -7.862 -21.142  0.00  0.00     0.000 Se
HETATM   17  C           1     -26.397  -7.749 -20.809  0.00  0.00     0.000 C 
ENDBRANCH  15  16
ENDBRANCH  14  15
ENDBRANCH   1  14
TORSDOF 7
ENDMDL
MODEL 8
REMARK VINA RESULT:      -4.8      8.516     10.377
REMARK  7 active torsions:
REMARK  status: ('A' for Active; 'I' for Inactive)
REMARK    1  A    between atoms: N_1  and  C_6 
REMARK    2  A    between atoms: C_3  and  C_16 
REMARK    3  A    between atoms: C_3  and  N_4 
REMARK       I    between atoms: N_4  and  C_5 
REMARK    4  A    between atoms: C_5  and  C_6 
REMARK    5  A    between atoms: C_6  and  C_7 
REMARK    6  A    between atoms: C_7  and  C_8 
REMARK    7  A    between atoms: C_8  and  Se_9 
ROOT
HETATM    1  C           1     -25.539  -6.955 -20.541  0.00  0.00     0.274 C 
ENDROOT
BRANCH   1   2
HETATM    2  N           1     -25.192  -5.671 -21.233  0.00  0.00    -0.067 N 
HETATM    3  H           1     -25.854  -4.921 -20.929  0.00  0.00     0.275 HD
HETATM    4  H           1     -24.216  -5.395 -20.987  0.00  0.00     0.275 HD
HETATM    5  H           1     -25.268  -5.802 -22.268  0.00  0.00     0.275 HD
ENDBRANCH   1   2
BRANCH   1   6
HETATM    6  C           1     -25.260  -6.821 -19.064  0.00  0.00     0.248 C 
HETATM    7  O           1     -24.127  -6.899 -18.653  0.00  0.00    -0.271 OA
HETATM    8  N           1     -26.292  -6.610 -18.189  0.00  0.00    -0.349 N 
HETATM    9  H           1     -27.241  -6.544 -18.532  0.00  0.00     0.163 HD
BRANCH   8  10
HETATM   10  C           1     -26.024  -6.480 -16.770  0.00  0.00     0.235 C 
BRANCH  10  11
HETATM   11  C           1     -27.284  -6.765 -15.990  0.00  0.00     0.191 C 
HETATM   12  O           1     -27.257  -7.562 -15.028  0.00  0.00    -0.647 OA
HETATM   13  O           1     -28.355  -6.204 -16.307  0.00  0.00    -0.647 OA
ENDBRANCH  10  11
ENDBRANCH   8  10
ENDBRANCH   1   6
BRANCH   1  14
HETATM   14  C           1     -24.698  -8.086 -21.116  0.00  0.00     0.042 C 
BRANCH  14  15
HETATM   15  C           1     -24.157  -7.675 -22.479  0.00  0.00     0.003 C 
BRANCH  15  16
HETATM   16 Se           1     -22.576  -8.735 -22.898  0.00  0.00     0.000 Se
HETATM   17  C           1     -21.859  -8.682 -21.087  0.00  0.00     0.000 C 
ENDBRANCH  15  16
ENDBRANCH  14  15
ENDBRANCH   1  14
TORSDOF 7
ENDMDL
MODEL 9
REMARK VINA RESULT:      -4.6      3.432      4.239
REMARK  7 active torsions:
REMARK  status: ('A' for Active; 'I' for Inactive)
REMARK    1  A    between atoms: N_1  and  C_6 
REMARK    2  A    between atoms: C_3  and  C_16 
REMARK    3  A    between atoms: C_3  and  N_4 
REMARK       I    between atoms: N_4  and  C_5 
REMARK    4  A    between atoms: C_5  and  C_6 
REMARK    5  A    between atoms: C_6  and  C_7 
REMARK    6  A    between atoms: C_7  and  C_8 
REMARK    7  A    between atoms: C_8  and  Se_9 
ROOT
HETATM    1  C           1     -22.147  -4.725  -6.823  0.00  0.00     0.274 C 
ENDROOT
BRANCH   1   2
HETATM    2  N           1     -23.581  -4.939  -6.440  0.00  0.00    -0.067 N 
HETATM    3  H           1     -24.152  -4.123  -6.758  0.00  0.00     0.275 HD
HETATM    4  H           1     -23.937  -5.810  -6.893  0.00  0.00     0.275 HD
HETATM    5  H           1     -23.653  -5.030  -5.401  0.00  0.00     0.275 HD
ENDBRANCH   1   2
BRANCH   1   6
HETATM    6  C           1     -22.063  -4.413  -8.298  0.00  0.00     0.248 C 
HETATM    7  O           1     -21.034  -4.611  -8.899  0.00  0.00    -0.271 OA
HETATM    8  N           1     -23.151  -3.905  -8.953  0.00  0.00    -0.349 N 
HETATM    9  H           1     -24.013  -3.738  -8.450  0.00  0.00     0.163 HD
BRANCH   8  10
HETATM   10  C           1     -23.071  -3.605 -10.369  0.00  0.00     0.235 C 
BRANCH  10  11
HETATM   11  C           1     -24.439  -3.235 -10.886  0.00  0.00     0.191 C 
HETATM   12  O           1     -24.589  -2.909 -12.083  0.00  0.00    -0.647 OA
HETATM   13  O           1     -25.424  -3.256 -10.116  0.00  0.00    -0.647 OA
ENDBRANCH  10  11
ENDBRANCH   8  10
ENDBRANCH   1   6
BRANCH   1  14
HETATM   14  C           1     -21.348  -5.985  -6.524  0.00  0.00     0.042 C 
BRANCH  14  15
HETATM   15  C           1     -22.020  -6.758  -5.397  0.00  0.00     0.003 C 
BRANCH  15  16
HETATM   16 Se           1     -21.306  -6.162  -3.684  0.00  0.00     0.000 Se
HETATM   17  C           1     -21.344  -7.932  -2.867  0.00  0.00     0.000 C 
ENDBRANCH  15  16
ENDBRANCH  14  15
ENDBRANCH   1  14
TORSDOF 7
ENDMDL
