MODEL 1
REMARK VINA RESULT:      -6.2      0.000      0.000
REMARK  3 active torsions:
REMARK  status: ('A' for Active; 'I' for Inactive)
REMARK    1  A    between atoms: C_2  and  C_12 
REMARK    2  A    between atoms: N_6  and  C_12 
REMARK       I    between atoms: N_6  and  C_7 
REMARK    3  A    between atoms: C_7  and  C_10 
ROOT
HETATM    1  H           1     -33.722  -1.211 -12.870  0.00  0.00     0.163 HD
HETATM    2  N           1     -34.721  -1.076 -12.795  0.00  0.00    -0.345 N 
HETATM    3  C           1     -35.433  -1.743 -11.834  0.00  0.00     0.251 C 
HETATM    4  O           1     -36.626  -1.582 -11.744  0.00  0.00    -0.271 OA
ENDROOT
BRANCH   3   5
HETATM    5  C           1     -34.725  -2.681 -10.887  0.00  0.00     0.311 C 
HETATM    6  N           1     -35.252  -4.037 -11.009  0.00  0.00     0.097 N 
HETATM    7  H           1     -34.983  -4.603 -10.204  0.00  0.00     0.317 HD
HETATM    8  C           1     -34.629  -4.578 -12.214  0.00  0.00     0.271 C 
HETATM    9  C           1     -33.198  -4.072 -12.141  0.00  0.00     0.033 C 
HETATM   10  C           1     -33.260  -2.827 -11.263  0.00  0.00     0.047 C 
ENDBRANCH   3   5
BRANCH   2  11
HETATM   11  C           1     -35.402  -0.175 -13.704  0.00  0.00     0.181 C 
HETATM   12  C           1     -34.638   1.140 -13.785  0.00  0.00     0.043 C 
BRANCH  11  13
HETATM   13  C           1     -35.468  -0.802 -15.076  0.00  0.00     0.196 C 
HETATM   14  O           1     -35.898  -0.139 -16.046  0.00  0.00    -0.646 OA
HETATM   15  O           1     -35.093  -1.983 -15.243  0.00  0.00    -0.646 OA
ENDBRANCH  11  13
ENDBRANCH   2  11
TORSDOF 3
ENDMDL
MODEL 2
REMARK VINA RESULT:      -6.1      1.581      2.043
REMARK  3 active torsions:
REMARK  status: ('A' for Active; 'I' for Inactive)
REMARK    1  A    between atoms: C_2  and  C_12 
REMARK    2  A    between atoms: N_6  and  C_12 
REMARK       I    between atoms: N_6  and  C_7 
REMARK    3  A    between atoms: C_7  and  C_10 
ROOT
HETATM    1  H           1     -34.776  -0.927 -11.316  0.00  0.00     0.163 HD
HETATM    2  N           1     -34.921  -1.407 -12.194  0.00  0.00    -0.345 N 
HETATM    3  C           1     -34.232  -2.558 -12.468  0.00  0.00     0.251 C 
HETATM    4  O           1     -34.407  -3.132 -13.517  0.00  0.00    -0.271 OA
ENDROOT
BRANCH   3   5
HETATM    5  C           1     -33.254  -3.109 -11.460  0.00  0.00     0.311 C 
HETATM    6  N           1     -33.941  -3.509 -10.235  0.00  0.00     0.097 N 
HETATM    7  H           1     -33.277  -3.620  -9.469  0.00  0.00     0.317 HD
HETATM    8  C           1     -34.545  -4.802 -10.546  0.00  0.00     0.271 C 
HETATM    9  C           1     -33.481  -5.512 -11.366  0.00  0.00     0.033 C 
HETATM   10  C           1     -32.628  -4.399 -11.962  0.00  0.00     0.047 C 
ENDBRANCH   3   5
BRANCH   2  11
HETATM   11  C           1     -35.861  -0.877 -13.163  0.00  0.00     0.181 C 
HETATM   12  C           1     -36.999  -0.172 -12.436  0.00  0.00     0.043 C 
BRANCH  11  13
HETATM   13  C           1     -35.154   0.106 -14.063  0.00  0.00     0.196 C 
HETATM   14  O           1     -34.950  -0.179 -15.263  0.00  0.00    -0.646 OA
HETATM   15  O           1     -34.772   1.207 -13.609  0.00  0.00    -0.646 OA
ENDBRANCH  11  13
ENDBRANCH   2  11
TORSDOF 3
ENDMDL
MODEL 3
REMARK VINA RESULT:      -5.9      1.877      4.763
REMARK  3 active torsions:
REMARK  status: ('A' for Active; 'I' for Inactive)
REMARK    1  A    between atoms: C_2  and  C_12 
REMARK    2  A    between atoms: N_6  and  C_12 
REMARK       I    between atoms: N_6  and  C_7 
REMARK    3  A    between atoms: C_7  and  C_10 
ROOT
HETATM    1  H           1     -35.000  -1.891 -11.394  0.00  0.00     0.163 HD
HETATM    2  N           1     -34.789  -2.289 -12.299  0.00  0.00    -0.345 N 
HETATM    3  C           1     -35.271  -1.698 -13.436  0.00  0.00     0.251 C 
HETATM    4  O           1     -35.018  -2.172 -14.518  0.00  0.00    -0.271 OA
ENDROOT
BRANCH   3   5
HETATM    5  C           1     -36.120  -0.454 -13.337  0.00  0.00     0.311 C 
HETATM    6  N           1     -35.379   0.631 -12.700  0.00  0.00     0.097 N 
HETATM    7  H           1     -36.013   1.366 -12.387  0.00  0.00     0.317 HD
HETATM    8  C           1     -34.505   1.156 -13.745  0.00  0.00     0.271 C 
HETATM    9  C           1     -35.378   1.146 -14.989  0.00  0.00     0.033 C 
HETATM   10  C           1     -36.445   0.091 -14.718  0.00  0.00     0.047 C 
ENDBRANCH   3   5
BRANCH   2  11
HETATM   11  C           1     -33.973  -3.483 -12.394  0.00  0.00     0.181 C 
HETATM   12  C           1     -32.810  -3.386 -11.415  0.00  0.00     0.043 C 
BRANCH  11  13
HETATM   13  C           1     -34.812  -4.692 -12.058  0.00  0.00     0.196 C 
HETATM   14  O           1     -35.120  -4.928 -10.869  0.00  0.00    -0.646 OA
HETATM   15  O           1     -35.199  -5.458 -12.967  0.00  0.00    -0.646 OA
ENDBRANCH  11  13
ENDBRANCH   2  11
TORSDOF 3
ENDMDL
MODEL 4
REMARK VINA RESULT:      -5.8     12.912     14.026
REMARK  3 active torsions:
REMARK  status: ('A' for Active; 'I' for Inactive)
REMARK    1  A    between atoms: C_2  and  C_12 
REMARK    2  A    between atoms: N_6  and  C_12 
REMARK       I    between atoms: N_6  and  C_7 
REMARK    3  A    between atoms: C_7  and  C_10 
ROOT
HETATM    1  H           1     -21.408  -5.325 -10.167  0.00  0.00     0.163 HD
HETATM    2  N           1     -21.888  -4.570  -9.696  0.00  0.00    -0.345 N 
HETATM    3  C           1     -21.985  -4.567  -8.330  0.00  0.00     0.251 C 
HETATM    4  O           1     -22.558  -3.665  -7.767  0.00  0.00    -0.271 OA
ENDROOT
BRANCH   3   5
HETATM    5  C           1     -21.377  -5.691  -7.529  0.00  0.00     0.311 C 
HETATM    6  N           1     -19.959  -5.844  -7.842  0.00  0.00     0.097 N 
HETATM    7  H           1     -19.614  -6.750  -7.524  0.00  0.00     0.317 HD
HETATM    8  C           1     -19.290  -4.781  -7.098  0.00  0.00     0.271 C 
HETATM    9  C           1     -20.015  -4.761  -5.763  0.00  0.00     0.033 C 
HETATM   10  C           1     -21.386  -5.365  -6.045  0.00  0.00     0.047 C 
ENDBRANCH   3   5
BRANCH   2  11
HETATM   11  C           1     -22.473  -3.489 -10.466  0.00  0.00     0.181 C 
HETATM   12  C           1     -21.502  -3.057 -11.556  0.00  0.00     0.043 C 
BRANCH  11  13
HETATM   13  C           1     -23.759  -3.962 -11.098  0.00  0.00     0.196 C 
HETATM   14  O           1     -24.817  -3.320 -10.919  0.00  0.00    -0.646 OA
HETATM   15  O           1     -23.767  -4.996 -11.801  0.00  0.00    -0.646 OA
ENDBRANCH  11  13
ENDBRANCH   2  11
TORSDOF 3
ENDMDL
MODEL 5
REMARK VINA RESULT:      -5.7     12.932     14.134
REMARK  3 active torsions:
REMARK  status: ('A' for Active; 'I' for Inactive)
REMARK    1  A    between atoms: C_2  and  C_12 
REMARK    2  A    between atoms: N_6  and  C_12 
REMARK       I    between atoms: N_6  and  C_7 
REMARK    3  A    between atoms: C_7  and  C_10 
ROOT
HETATM    1  H           1     -22.727  -3.373  -8.863  0.00  0.00     0.163 HD
HETATM    2  N           1     -22.161  -3.883  -9.527  0.00  0.00    -0.345 N 
HETATM    3  C           1     -20.858  -4.183  -9.230  0.00  0.00     0.251 C 
HETATM    4  O           1     -20.182  -4.792 -10.024  0.00  0.00    -0.271 OA
ENDROOT
BRANCH   3   5
HETATM    5  C           1     -20.268  -3.750  -7.911  0.00  0.00     0.311 C 
HETATM    6  N           1     -21.282  -3.755  -6.861  0.00  0.00     0.097 N 
HETATM    7  H           1     -20.970  -3.216  -6.054  0.00  0.00     0.317 HD
HETATM    8  C           1     -21.426  -5.158  -6.482  0.00  0.00     0.271 C 
HETATM    9  C           1     -20.001  -5.684  -6.488  0.00  0.00     0.033 C 
HETATM   10  C           1     -19.237  -4.755  -7.424  0.00  0.00     0.047 C 
ENDBRANCH   3   5
BRANCH   2  11
HETATM   11  C           1     -22.729  -4.299 -10.795  0.00  0.00     0.181 C 
HETATM   12  C           1     -23.878  -5.267 -10.546  0.00  0.00     0.043 C 
BRANCH  11  13
HETATM   13  C           1     -23.243  -3.089 -11.536  0.00  0.00     0.196 C 
HETATM   14  O           1     -22.440  -2.302 -12.082  0.00  0.00    -0.646 OA
HETATM   15  O           1     -24.473  -2.873 -11.603  0.00  0.00    -0.646 OA
ENDBRANCH  11  13
ENDBRANCH   2  11
TORSDOF 3
ENDMDL
MODEL 6
REMARK VINA RESULT:      -5.6      1.578      2.125
REMARK  3 active torsions:
REMARK  status: ('A' for Active; 'I' for Inactive)
REMARK    1  A    between atoms: C_2  and  C_12 
REMARK    2  A    between atoms: N_6  and  C_12 
REMARK       I    between atoms: N_6  and  C_7 
REMARK    3  A    between atoms: C_7  and  C_10 
ROOT
HETATM    1  H           1     -36.094   0.027 -12.301  0.00  0.00     0.163 HD
HETATM    2  N           1     -35.911  -0.582 -13.087  0.00  0.00    -0.345 N 
HETATM    3  C           1     -34.991  -1.590 -12.972  0.00  0.00     0.251 C 
HETATM    4  O           1     -34.773  -2.319 -13.911  0.00  0.00    -0.271 OA
ENDROOT
BRANCH   3   5
HETATM    5  C           1     -34.249  -1.790 -11.673  0.00  0.00     0.311 C 
HETATM    6  N           1     -35.180  -2.050 -10.578  0.00  0.00     0.097 N 
HETATM    7  H           1     -34.724  -1.914  -9.677  0.00  0.00     0.317 HD
HETATM    8  C           1     -35.555  -3.453 -10.727  0.00  0.00     0.271 C 
HETATM    9  C           1     -34.255  -4.139 -11.109  0.00  0.00     0.033 C 
HETATM   10  C           1     -33.393  -3.043 -11.726  0.00  0.00     0.047 C 
ENDBRANCH   3   5
BRANCH   2  11
HETATM   11  C           1     -36.624  -0.391 -14.335  0.00  0.00     0.181 C 
HETATM   12  C           1     -38.072  -0.021 -14.043  0.00  0.00     0.043 C 
BRANCH  11  13
HETATM   13  C           1     -35.971   0.720 -15.120  0.00  0.00     0.196 C 
HETATM   14  O           1     -35.054   1.395 -14.604  0.00  0.00    -0.646 OA
HETATM   15  O           1     -36.346   0.965 -16.287  0.00  0.00    -0.646 OA
ENDBRANCH  11  13
ENDBRANCH   2  11
TORSDOF 3
ENDMDL
MODEL 7
REMARK VINA RESULT:      -5.6      9.706     10.976
REMARK  3 active torsions:
REMARK  status: ('A' for Active; 'I' for Inactive)
REMARK    1  A    between atoms: C_2  and  C_12 
REMARK    2  A    between atoms: N_6  and  C_12 
REMARK       I    between atoms: N_6  and  C_7 
REMARK    3  A    between atoms: C_7  and  C_10 
ROOT
HETATM    1  H           1     -27.903  -8.451 -19.124  0.00  0.00     0.163 HD
HETATM    2  N           1     -27.797  -7.461 -19.302  0.00  0.00    -0.345 N 
HETATM    3  C           1     -28.599  -6.559 -18.656  0.00  0.00     0.251 C 
HETATM    4  O           1     -28.471  -5.377 -18.868  0.00  0.00    -0.271 OA
ENDROOT
BRANCH   3   5
HETATM    5  C           1     -29.643  -7.042 -17.680  0.00  0.00     0.311 C 
HETATM    6  N           1     -29.098  -8.076 -16.805  0.00  0.00     0.097 N 
HETATM    7  H           1     -29.847  -8.590 -16.343  0.00  0.00     0.317 HD
HETATM    8  C           1     -28.316  -7.352 -15.807  0.00  0.00     0.271 C 
HETATM    9  C           1     -29.167  -6.133 -15.493  0.00  0.00     0.033 C 
HETATM   10  C           1     -30.045  -5.933 -16.723  0.00  0.00     0.047 C 
ENDBRANCH   3   5
BRANCH   2  11
HETATM   11  C           1     -26.793  -6.996 -20.239  0.00  0.00     0.181 C 
HETATM   12  C           1     -25.519  -6.638 -19.485  0.00  0.00     0.043 C 
BRANCH  11  13
HETATM   13  C           1     -26.494  -8.088 -21.238  0.00  0.00     0.196 C 
HETATM   14  O           1     -27.394  -8.887 -21.578  0.00  0.00    -0.646 OA
HETATM   15  O           1     -25.348  -8.195 -21.724  0.00  0.00    -0.646 OA
ENDBRANCH  11  13
ENDBRANCH   2  11
TORSDOF 3
ENDMDL
MODEL 8
REMARK VINA RESULT:      -5.5     12.721     14.257
REMARK  3 active torsions:
REMARK  status: ('A' for Active; 'I' for Inactive)
REMARK    1  A    between atoms: C_2  and  C_12 
REMARK    2  A    between atoms: N_6  and  C_12 
REMARK       I    between atoms: N_6  and  C_7 
REMARK    3  A    between atoms: C_7  and  C_10 
ROOT
HETATM    1  H           1     -22.995  -5.431  -7.958  0.00  0.00     0.163 HD
HETATM    2  N           1     -22.216  -5.033  -8.466  0.00  0.00    -0.345 N 
HETATM    3  C           1     -22.325  -4.791  -9.809  0.00  0.00     0.251 C 
HETATM    4  O           1     -21.394  -4.316 -10.415  0.00  0.00    -0.271 OA
ENDROOT
BRANCH   3   5
HETATM    5  C           1     -23.607  -5.121 -10.533  0.00  0.00     0.311 C 
HETATM    6  N           1     -24.761  -4.592  -9.811  0.00  0.00     0.097 N 
HETATM    7  H           1     -25.622  -5.033 -10.133  0.00  0.00     0.317 HD
HETATM    8  C           1     -24.792  -3.169 -10.139  0.00  0.00     0.271 C 
HETATM    9  C           1     -24.441  -3.129 -11.616  0.00  0.00     0.033 C 
HETATM   10  C           1     -23.667  -4.416 -11.877  0.00  0.00     0.047 C 
ENDBRANCH   3   5
BRANCH   2  11
HETATM   11  C           1     -20.983  -4.717  -7.771  0.00  0.00     0.181 C 
HETATM   12  C           1     -21.172  -3.446  -6.952  0.00  0.00     0.043 C 
BRANCH  11  13
HETATM   13  C           1     -20.619  -5.857  -6.851  0.00  0.00     0.196 C 
HETATM   14  O           1     -19.659  -6.606  -7.135  0.00  0.00    -0.646 OA
HETATM   15  O           1     -21.276  -6.052  -5.805  0.00  0.00    -0.646 OA
ENDBRANCH  11  13
ENDBRANCH   2  11
TORSDOF 3
ENDMDL
MODEL 9
REMARK VINA RESULT:      -5.2     13.518     15.043
REMARK  3 active torsions:
REMARK  status: ('A' for Active; 'I' for Inactive)
REMARK    1  A    between atoms: C_2  and  C_12 
REMARK    2  A    between atoms: N_6  and  C_12 
REMARK       I    between atoms: N_6  and  C_7 
REMARK    3  A    between atoms: C_7  and  C_10 
ROOT
HETATM    1  H           1     -21.997  -4.388  -7.780  0.00  0.00     0.163 HD
HETATM    2  N           1     -21.220  -4.753  -8.315  0.00  0.00    -0.345 N 
HETATM    3  C           1     -21.090  -4.434  -9.640  0.00  0.00     0.251 C 
HETATM    4  O           1     -20.162  -4.870 -10.278  0.00  0.00    -0.271 OA
ENDROOT
BRANCH   3   5
HETATM    5  C           1     -22.108  -3.538 -10.303  0.00  0.00     0.311 C 
HETATM    6  N           1     -22.566  -4.116 -11.563  0.00  0.00     0.097 N 
HETATM    7  H           1     -23.030  -3.412 -12.136  0.00  0.00     0.317 HD
HETATM    8  C           1     -23.531  -5.143 -11.179  0.00  0.00     0.271 C 
HETATM    9  C           1     -24.307  -4.504 -10.039  0.00  0.00     0.033 C 
HETATM   10  C           1     -23.373  -3.444  -9.466  0.00  0.00     0.047 C 
ENDBRANCH   3   5
BRANCH   2  11
HETATM   11  C           1     -20.242  -5.614  -7.678  0.00  0.00     0.181 C 
HETATM   12  C           1     -19.067  -4.776  -7.192  0.00  0.00     0.043 C 
BRANCH  11  13
HETATM   13  C           1     -20.880  -6.314  -6.502  0.00  0.00     0.196 C 
HETATM   14  O           1     -21.705  -5.706  -5.786  0.00  0.00    -0.646 OA
HETATM   15  O           1     -20.582  -7.500  -6.245  0.00  0.00    -0.646 OA
ENDBRANCH  11  13
ENDBRANCH   2  11
TORSDOF 3
ENDMDL
