MODEL 1
REMARK VINA RESULT:      -7.3      0.000      0.000
REMARK  8 active torsions:
REMARK  status: ('A' for Active; 'I' for Inactive)
REMARK    1  A    between atoms: C_2  and  C_7 
REMARK    2  A    between atoms: C_7  and  C_11 
REMARK    3  A    between atoms: C_11  and  C_12 
REMARK    4  A    between atoms: C_11  and  N_22 
REMARK    5  A    between atoms: N_16  and  C_17 
REMARK    6  A    between atoms: C_17  and  C_23 
REMARK    7  A    between atoms: C_17  and  C_18 
REMARK    8  A    between atoms: C_18  and  C_19 
REMARK       I    between atoms: N_22  and  C_23 
ROOT
HETATM    1  C           1     -22.248  -5.192  -6.859  0.00  0.00     0.260 C 
ENDROOT
BRANCH   1   2
HETATM    2  N           1     -23.628  -4.956  -6.321  0.00  0.00    -0.067 N 
HETATM    3  H           1     -24.277  -4.739  -7.111  0.00  0.00     0.275 HD
HETATM    4  H           1     -23.609  -4.151  -5.654  0.00  0.00     0.275 HD
HETATM    5  H           1     -23.960  -5.812  -5.823  0.00  0.00     0.275 HD
ENDBRANCH   1   2
BRANCH   1   6
HETATM    6  C           1     -21.362  -5.715  -5.755  0.00  0.00     0.130 C 
HETATM    7  O           1     -20.584  -4.975  -5.204  0.00  0.00    -0.397 OA
HETATM    8  N           1     -21.441  -7.029  -5.380  0.00  0.00    -0.359 N 
HETATM    9  H           1     -22.093  -7.650  -5.844  0.00  0.00     0.162 HD
BRANCH   8  10
HETATM   10  C           1     -20.589  -7.533  -4.320  0.00  0.00     0.184 C 
BRANCH  10  11
HETATM   11  C           1     -21.451  -8.151  -3.227  0.00  0.00     0.040 C 
BRANCH  11  12
HETATM   12  C           1     -21.279  -7.360  -1.936  0.00  0.00    -0.018 C 
HETATM   13  C           1     -21.687  -8.226  -0.751  0.00  0.00     0.289 C 
HETATM   14  C           1     -22.159  -6.118  -1.983  0.00  0.00     0.009 C 
ENDBRANCH  11  12
ENDBRANCH  10  11
BRANCH  10  15
HETATM   15  C           1     -19.658  -8.581  -4.879  0.00  0.00     0.196 C 
HETATM   16  O           1     -19.373  -9.590  -4.199  0.00  0.00    -0.646 OA
HETATM   17  O           1     -19.174  -8.440  -6.022  0.00  0.00    -0.646 OA
ENDBRANCH  10  15
ENDBRANCH   8  10
ENDBRANCH   1   6
BRANCH   1  18
HETATM   18  C           1     -21.679  -3.881  -7.388  0.00  0.00     0.079 C 
BRANCH  18  19
HETATM   19  C           1     -21.620  -3.931  -8.884  0.00  0.00    -0.056 A 
HETATM   20  C           1     -22.772  -3.705  -9.636  0.00  0.00     0.007 A 
HETATM   21  C           1     -22.717  -3.751 -11.029  0.00  0.00     0.001 A 
HETATM   22  C           1     -21.508  -4.023 -11.669  0.00  0.00     0.000 A 
HETATM   23  C           1     -20.355  -4.247 -10.918  0.00  0.00     0.001 A 
HETATM   24  C           1     -20.410  -4.201  -9.525  0.00  0.00     0.007 A 
ENDBRANCH  18  19
ENDBRANCH   1  18
TORSDOF 8
ENDMDL
MODEL 2
REMARK VINA RESULT:      -7.3      2.665      7.478
REMARK  8 active torsions:
REMARK  status: ('A' for Active; 'I' for Inactive)
REMARK    1  A    between atoms: C_2  and  C_7 
REMARK    2  A    between atoms: C_7  and  C_11 
REMARK    3  A    between atoms: C_11  and  C_12 
REMARK    4  A    between atoms: C_11  and  N_22 
REMARK    5  A    between atoms: N_16  and  C_17 
REMARK    6  A    between atoms: C_17  and  C_23 
REMARK    7  A    between atoms: C_17  and  C_18 
REMARK    8  A    between atoms: C_18  and  C_19 
REMARK       I    between atoms: N_22  and  C_23 
ROOT
HETATM    1  C           1     -22.381  -4.873  -6.425  0.00  0.00     0.260 C 
ENDROOT
BRANCH   1   2
HETATM    2  N           1     -23.787  -5.337  -6.184  0.00  0.00    -0.067 N 
HETATM    3  H           1     -23.846  -6.367  -6.345  0.00  0.00     0.275 HD
HETATM    4  H           1     -24.434  -4.843  -6.841  0.00  0.00     0.275 HD
HETATM    5  H           1     -24.062  -5.121  -5.199  0.00  0.00     0.275 HD
ENDBRANCH   1   2
BRANCH   1   6
HETATM    6  C           1     -22.317  -4.120  -7.732  0.00  0.00     0.130 C 
HETATM    7  O           1     -21.502  -3.243  -7.883  0.00  0.00    -0.397 OA
HETATM    8  N           1     -23.184  -4.433  -8.744  0.00  0.00    -0.359 N 
HETATM    9  H           1     -23.867  -5.169  -8.616  0.00  0.00     0.162 HD
BRANCH   8  10
HETATM   10  C           1     -23.123  -3.710 -10.000  0.00  0.00     0.184 C 
BRANCH  10  11
HETATM   11  C           1     -22.589  -4.630 -11.090  0.00  0.00     0.040 C 
BRANCH  11  12
HETATM   12  C           1     -21.217  -4.143 -11.538  0.00  0.00    -0.018 C 
HETATM   13  C           1     -20.142  -4.777 -10.665  0.00  0.00     0.289 C 
HETATM   14  C           1     -21.149  -2.627 -11.405  0.00  0.00     0.009 C 
ENDBRANCH  11  12
ENDBRANCH  10  11
BRANCH  10  15
HETATM   15  C           1     -24.507  -3.238 -10.374  0.00  0.00     0.196 C 
HETATM   16  O           1     -25.316  -2.905  -9.482  0.00  0.00    -0.646 OA
HETATM   17  O           1     -24.842  -3.178 -11.576  0.00  0.00    -0.646 OA
ENDBRANCH  10  15
ENDBRANCH   8  10
ENDBRANCH   1   6
BRANCH   1  18
HETATM   18  C           1     -21.454  -6.080  -6.488  0.00  0.00     0.079 C 
BRANCH  18  19
HETATM   19  C           1     -21.420  -6.754  -5.151  0.00  0.00    -0.056 A 
HETATM   20  C           1     -21.287  -5.995  -3.989  0.00  0.00     0.007 A 
HETATM   21  C           1     -21.256  -6.623  -2.745  0.00  0.00     0.001 A 
HETATM   22  C           1     -21.358  -8.011  -2.662  0.00  0.00     0.000 A 
HETATM   23  C           1     -21.492  -8.772  -3.824  0.00  0.00     0.001 A 
HETATM   24  C           1     -21.523  -8.143  -5.069  0.00  0.00     0.007 A 
ENDBRANCH  18  19
ENDBRANCH   1  18
TORSDOF 8
ENDMDL
MODEL 3
REMARK VINA RESULT:      -6.6      1.477      2.540
REMARK  8 active torsions:
REMARK  status: ('A' for Active; 'I' for Inactive)
REMARK    1  A    between atoms: C_2  and  C_7 
REMARK    2  A    between atoms: C_7  and  C_11 
REMARK    3  A    between atoms: C_11  and  C_12 
REMARK    4  A    between atoms: C_11  and  N_22 
REMARK    5  A    between atoms: N_16  and  C_17 
REMARK    6  A    between atoms: C_17  and  C_23 
REMARK    7  A    between atoms: C_17  and  C_18 
REMARK    8  A    between atoms: C_18  and  C_19 
REMARK       I    between atoms: N_22  and  C_23 
ROOT
HETATM    1  C           1     -21.643  -6.487  -5.717  0.00  0.00     0.260 C 
ENDROOT
BRANCH   1   2
HETATM    2  N           1     -22.926  -6.155  -5.014  0.00  0.00    -0.067 N 
HETATM    3  H           1     -22.874  -5.183  -4.635  0.00  0.00     0.275 HD
HETATM    4  H           1     -23.077  -6.828  -4.229  0.00  0.00     0.275 HD
HETATM    5  H           1     -23.721  -6.224  -5.688  0.00  0.00     0.275 HD
ENDBRANCH   1   2
BRANCH   1   6
HETATM    6  C           1     -20.828  -7.423  -4.858  0.00  0.00     0.130 C 
HETATM    7  O           1     -19.715  -7.743  -5.202  0.00  0.00    -0.397 OA
HETATM    8  N           1     -21.350  -7.909  -3.690  0.00  0.00    -0.359 N 
HETATM    9  H           1     -22.284  -7.641  -3.403  0.00  0.00     0.162 HD
BRANCH   8  10
HETATM   10  C           1     -20.568  -8.809  -2.864  0.00  0.00     0.184 C 
BRANCH  10  11
HETATM   11  C           1     -20.493  -8.261  -1.446  0.00  0.00     0.040 C 
BRANCH  11  12
HETATM   12  C           1     -21.902  -8.053  -0.906  0.00  0.00    -0.018 C 
HETATM   13  C           1     -22.307  -6.596  -1.088  0.00  0.00     0.289 C 
HETATM   14  C           1     -21.935  -8.407   0.575  0.00  0.00     0.009 C 
ENDBRANCH  11  12
ENDBRANCH  10  11
BRANCH  10  15
HETATM   15  C           1     -21.222 -10.169  -2.844  0.00  0.00     0.196 C 
HETATM   16  O           1     -20.754 -11.077  -2.125  0.00  0.00    -0.646 OA
HETATM   17  O           1     -22.232 -10.386  -3.546  0.00  0.00    -0.646 OA
ENDBRANCH  10  15
ENDBRANCH   8  10
ENDBRANCH   1   6
BRANCH   1  18
HETATM   18  C           1     -20.854  -5.208  -5.963  0.00  0.00     0.079 C 
BRANCH  18  19
HETATM   19  C           1     -21.035  -4.775  -7.385  0.00  0.00    -0.056 A 
HETATM   20  C           1     -20.032  -5.024  -8.323  0.00  0.00     0.007 A 
HETATM   21  C           1     -20.201  -4.621  -9.647  0.00  0.00     0.001 A 
HETATM   22  C           1     -21.372  -3.970 -10.034  0.00  0.00     0.000 A 
HETATM   23  C           1     -22.375  -3.722  -9.098  0.00  0.00     0.001 A 
HETATM   24  C           1     -22.206  -4.125  -7.773  0.00  0.00     0.007 A 
ENDBRANCH  18  19
ENDBRANCH   1  18
TORSDOF 8
ENDMDL
MODEL 4
REMARK VINA RESULT:      -6.5      2.268      3.735
REMARK  8 active torsions:
REMARK  status: ('A' for Active; 'I' for Inactive)
REMARK    1  A    between atoms: C_2  and  C_7 
REMARK    2  A    between atoms: C_7  and  C_11 
REMARK    3  A    between atoms: C_11  and  C_12 
REMARK    4  A    between atoms: C_11  and  N_22 
REMARK    5  A    between atoms: N_16  and  C_17 
REMARK    6  A    between atoms: C_17  and  C_23 
REMARK    7  A    between atoms: C_17  and  C_18 
REMARK    8  A    between atoms: C_18  and  C_19 
REMARK       I    between atoms: N_22  and  C_23 
ROOT
HETATM    1  C           1     -20.296  -7.878  -5.059  0.00  0.00     0.260 C 
ENDROOT
BRANCH   1   2
HETATM    2  N           1     -21.151  -8.706  -5.972  0.00  0.00    -0.067 N 
HETATM    3  H           1     -20.840  -8.570  -6.960  0.00  0.00     0.275 HD
HETATM    4  H           1     -22.149  -8.412  -5.876  0.00  0.00     0.275 HD
HETATM    5  H           1     -21.061  -9.715  -5.714  0.00  0.00     0.275 HD
ENDBRANCH   1   2
BRANCH   1   6
HETATM    6  C           1     -20.078  -8.621  -3.763  0.00  0.00     0.130 C 
HETATM    7  O           1     -18.959  -8.923  -3.423  0.00  0.00    -0.397 OA
HETATM    8  N           1     -21.147  -8.950  -2.975  0.00  0.00    -0.359 N 
HETATM    9  H           1     -22.085  -8.696  -3.262  0.00  0.00     0.162 HD
BRANCH   8  10
HETATM   10  C           1     -20.938  -9.664  -1.731  0.00  0.00     0.184 C 
BRANCH  10  11
HETATM   11  C           1     -21.097  -8.703  -0.561  0.00  0.00     0.040 C 
BRANCH  11  12
HETATM   12  C           1     -22.433  -7.980  -0.675  0.00  0.00    -0.018 C 
HETATM   13  C           1     -22.195  -6.534  -1.091  0.00  0.00     0.289 C 
HETATM   14  C           1     -23.141  -8.009   0.673  0.00  0.00     0.009 C 
ENDBRANCH  11  12
ENDBRANCH  10  11
BRANCH  10  15
HETATM   15  C           1     -21.954 -10.774  -1.612  0.00  0.00     0.196 C 
HETATM   16  O           1     -21.972 -11.498  -0.593  0.00  0.00    -0.646 OA
HETATM   17  O           1     -22.778 -10.967  -2.531  0.00  0.00    -0.646 OA
ENDBRANCH  10  15
ENDBRANCH   8  10
ENDBRANCH   1   6
BRANCH   1  18
HETATM   18  C           1     -20.995  -6.554  -4.774  0.00  0.00     0.079 C 
BRANCH  18  19
HETATM   19  C           1     -20.874  -5.658  -5.968  0.00  0.00    -0.056 A 
HETATM   20  C           1     -22.018  -5.104  -6.543  0.00  0.00     0.007 A 
HETATM   21  C           1     -21.905  -4.270  -7.655  0.00  0.00     0.001 A 
HETATM   22  C           1     -20.649  -3.990  -8.191  0.00  0.00     0.000 A 
HETATM   23  C           1     -19.505  -4.542  -7.615  0.00  0.00     0.001 A 
HETATM   24  C           1     -19.617  -5.376  -6.504  0.00  0.00     0.007 A 
ENDBRANCH  18  19
ENDBRANCH   1  18
TORSDOF 8
ENDMDL
MODEL 5
REMARK VINA RESULT:      -6.4      2.277      3.659
REMARK  8 active torsions:
REMARK  status: ('A' for Active; 'I' for Inactive)
REMARK    1  A    between atoms: C_2  and  C_7 
REMARK    2  A    between atoms: C_7  and  C_11 
REMARK    3  A    between atoms: C_11  and  C_12 
REMARK    4  A    between atoms: C_11  and  N_22 
REMARK    5  A    between atoms: N_16  and  C_17 
REMARK    6  A    between atoms: C_17  and  C_23 
REMARK    7  A    between atoms: C_17  and  C_18 
REMARK    8  A    between atoms: C_18  and  C_19 
REMARK       I    between atoms: N_22  and  C_23 
ROOT
HETATM    1  C           1     -20.673  -7.237  -4.712  0.00  0.00     0.260 C 
ENDROOT
BRANCH   1   2
HETATM    2  N           1     -21.208  -8.230  -5.700  0.00  0.00    -0.067 N 
HETATM    3  H           1     -22.038  -7.823  -6.188  0.00  0.00     0.275 HD
HETATM    4  H           1     -21.491  -9.103  -5.199  0.00  0.00     0.275 HD
HETATM    5  H           1     -20.468  -8.457  -6.402  0.00  0.00     0.275 HD
ENDBRANCH   1   2
BRANCH   1   6
HETATM    6  C           1     -20.863  -7.769  -3.312  0.00  0.00     0.130 C 
HETATM    7  O           1     -21.158  -7.016  -2.415  0.00  0.00    -0.397 OA
HETATM    8  N           1     -20.702  -9.105  -3.060  0.00  0.00    -0.359 N 
HETATM    9  H           1     -20.455  -9.735  -3.813  0.00  0.00     0.162 HD
BRANCH   8  10
HETATM   10  C           1     -20.885  -9.616  -1.716  0.00  0.00     0.184 C 
BRANCH  10  11
HETATM   11  C           1     -22.255 -10.271  -1.603  0.00  0.00     0.040 C 
BRANCH  11  12
HETATM   12  C           1     -22.781 -10.110  -0.183  0.00  0.00    -0.018 C 
HETATM   13  C           1     -24.107 -10.846  -0.045  0.00  0.00     0.289 C 
HETATM   14  C           1     -22.988  -8.631   0.116  0.00  0.00     0.009 C 
ENDBRANCH  11  12
ENDBRANCH  10  11
BRANCH  10  15
HETATM   15  C           1     -19.814 -10.637  -1.417  0.00  0.00     0.196 C 
HETATM   16  O           1     -19.778 -11.197  -0.300  0.00  0.00    -0.646 OA
HETATM   17  O           1     -18.965 -10.923  -2.287  0.00  0.00    -0.646 OA
ENDBRANCH  10  15
ENDBRANCH   8  10
ENDBRANCH   1   6
BRANCH   1  18
HETATM   18  C           1     -21.422  -5.919  -4.861  0.00  0.00     0.079 C 
BRANCH  18  19
HETATM   19  C           1     -21.007  -5.249  -6.134  0.00  0.00    -0.056 A 
HETATM   20  C           1     -19.653  -5.060  -6.413  0.00  0.00     0.007 A 
HETATM   21  C           1     -19.267  -4.436  -7.599  0.00  0.00     0.001 A 
HETATM   22  C           1     -20.234  -4.002  -8.506  0.00  0.00     0.000 A 
HETATM   23  C           1     -21.587  -4.192  -8.227  0.00  0.00     0.001 A 
HETATM   24  C           1     -21.974  -4.816  -7.042  0.00  0.00     0.007 A 
ENDBRANCH  18  19
ENDBRANCH   1  18
TORSDOF 8
ENDMDL
MODEL 6
REMARK VINA RESULT:      -6.3      2.555      4.307
REMARK  8 active torsions:
REMARK  status: ('A' for Active; 'I' for Inactive)
REMARK    1  A    between atoms: C_2  and  C_7 
REMARK    2  A    between atoms: C_7  and  C_11 
REMARK    3  A    between atoms: C_11  and  C_12 
REMARK    4  A    between atoms: C_11  and  N_22 
REMARK    5  A    between atoms: N_16  and  C_17 
REMARK    6  A    between atoms: C_17  and  C_23 
REMARK    7  A    between atoms: C_17  and  C_18 
REMARK    8  A    between atoms: C_18  and  C_19 
REMARK       I    between atoms: N_22  and  C_23 
ROOT
HETATM    1  C           1     -20.809  -7.417  -4.834  0.00  0.00     0.260 C 
ENDROOT
BRANCH   1   2
HETATM    2  N           1     -21.150  -8.065  -6.144  0.00  0.00    -0.067 N 
HETATM    3  H           1     -20.299  -8.099  -6.748  0.00  0.00     0.275 HD
HETATM    4  H           1     -21.896  -7.511  -6.622  0.00  0.00     0.275 HD
HETATM    5  H           1     -21.495  -9.036  -5.973  0.00  0.00     0.275 HD
ENDBRANCH   1   2
BRANCH   1   6
HETATM    6  C           1     -21.414  -8.216  -3.706  0.00  0.00     0.130 C 
HETATM    7  O           1     -22.015  -9.237  -3.944  0.00  0.00    -0.397 OA
HETATM    8  N           1     -21.282  -7.784  -2.414  0.00  0.00    -0.359 N 
HETATM    9  H           1     -20.779  -6.928  -2.216  0.00  0.00     0.162 HD
BRANCH   8  10
HETATM   10  C           1     -21.864  -8.551  -1.329  0.00  0.00     0.184 C 
BRANCH  10  11
HETATM   11  C           1     -20.763  -9.297  -0.587  0.00  0.00     0.040 C 
BRANCH  11  12
HETATM   12  C           1     -21.059 -10.790  -0.605  0.00  0.00    -0.018 C 
HETATM   13  C           1     -22.472 -11.023  -1.125  0.00  0.00     0.289 C 
HETATM   14  C           1     -20.941 -11.347   0.808  0.00  0.00     0.009 C 
ENDBRANCH  11  12
ENDBRANCH  10  11
BRANCH  10  15
HETATM   15  C           1     -22.569  -7.618  -0.377  0.00  0.00     0.196 C 
HETATM   16  O           1     -22.617  -6.393  -0.622  0.00  0.00    -0.646 OA
HETATM   17  O           1     -23.107  -8.070   0.656  0.00  0.00    -0.646 OA
ENDBRANCH  10  15
ENDBRANCH   8  10
ENDBRANCH   1   6
BRANCH   1  18
HETATM   18  C           1     -21.367  -6.000  -4.809  0.00  0.00     0.079 C 
BRANCH  18  19
HETATM   19  C           1     -20.973  -5.286  -6.065  0.00  0.00    -0.056 A 
HETATM   20  C           1     -19.624  -5.109  -6.373  0.00  0.00     0.007 A 
HETATM   21  C           1     -19.257  -4.444  -7.543  0.00  0.00     0.001 A 
HETATM   22  C           1     -20.239  -3.955  -8.404  0.00  0.00     0.000 A 
HETATM   23  C           1     -21.588  -4.133  -8.097  0.00  0.00     0.001 A 
HETATM   24  C           1     -21.955  -4.798  -6.928  0.00  0.00     0.007 A 
ENDBRANCH  18  19
ENDBRANCH   1  18
TORSDOF 8
ENDMDL
MODEL 7
REMARK VINA RESULT:      -6.1      4.931      7.483
REMARK  8 active torsions:
REMARK  status: ('A' for Active; 'I' for Inactive)
REMARK    1  A    between atoms: C_2  and  C_7 
REMARK    2  A    between atoms: C_7  and  C_11 
REMARK    3  A    between atoms: C_11  and  C_12 
REMARK    4  A    between atoms: C_11  and  N_22 
REMARK    5  A    between atoms: N_16  and  C_17 
REMARK    6  A    between atoms: C_17  and  C_23 
REMARK    7  A    between atoms: C_17  and  C_18 
REMARK    8  A    between atoms: C_18  and  C_19 
REMARK       I    between atoms: N_22  and  C_23 
ROOT
HETATM    1  C           1     -20.497  -8.730  -3.985  0.00  0.00     0.260 C 
ENDROOT
BRANCH   1   2
HETATM    2  N           1     -21.529  -9.804  -4.166  0.00  0.00    -0.067 N 
HETATM    3  H           1     -22.080  -9.909  -3.285  0.00  0.00     0.275 HD
HETATM    4  H           1     -21.054 -10.708  -4.391  0.00  0.00     0.275 HD
HETATM    5  H           1     -22.170  -9.544  -4.949  0.00  0.00     0.275 HD
ENDBRANCH   1   2
BRANCH   1   6
HETATM    6  C           1     -19.428  -8.878  -5.039  0.00  0.00     0.130 C 
HETATM    7  O           1     -19.397  -8.119  -5.978  0.00  0.00    -0.397 OA
HETATM    8  N           1     -18.493  -9.872  -4.930  0.00  0.00    -0.359 N 
HETATM    9  H           1     -18.520 -10.508  -4.143  0.00  0.00     0.162 HD
BRANCH   8  10
HETATM   10  C           1     -17.465 -10.015  -5.943  0.00  0.00     0.184 C 
BRANCH  10  11
HETATM   11  C           1     -16.098 -10.065  -5.275  0.00  0.00     0.040 C 
BRANCH  11  12
HETATM   12  C           1     -16.254 -10.520  -3.830  0.00  0.00    -0.018 C 
HETATM   13  C           1     -15.920  -9.366  -2.894  0.00  0.00     0.289 C 
HETATM   14  C           1     -15.307 -11.682  -3.559  0.00  0.00     0.009 C 
ENDBRANCH  11  12
ENDBRANCH  10  11
BRANCH  10  15
HETATM   15  C           1     -17.695 -11.291  -6.715  0.00  0.00     0.196 C 
HETATM   16  O           1     -18.782 -11.479  -7.302  0.00  0.00    -0.646 OA
HETATM   17  O           1     -16.798 -12.158  -6.769  0.00  0.00    -0.646 OA
ENDBRANCH  10  15
ENDBRANCH   8  10
ENDBRANCH   1   6
BRANCH   1  18
HETATM   18  C           1     -19.869  -8.858  -2.603  0.00  0.00     0.079 C 
BRANCH  18  19
HETATM   19  C           1     -20.889  -8.525  -1.558  0.00  0.00    -0.056 A 
HETATM   20  C           1     -21.164  -9.434  -0.536  0.00  0.00     0.007 A 
HETATM   21  C           1     -22.114  -9.123   0.437  0.00  0.00     0.001 A 
HETATM   22  C           1     -22.789  -7.904   0.388  0.00  0.00     0.000 A 
HETATM   23  C           1     -22.513  -6.994  -0.633  0.00  0.00     0.001 A 
HETATM   24  C           1     -21.564  -7.304  -1.606  0.00  0.00     0.007 A 
ENDBRANCH  18  19
ENDBRANCH   1  18
TORSDOF 8
ENDMDL
MODEL 8
REMARK VINA RESULT:      -6.0      5.477      7.063
REMARK  8 active torsions:
REMARK  status: ('A' for Active; 'I' for Inactive)
REMARK    1  A    between atoms: C_2  and  C_7 
REMARK    2  A    between atoms: C_7  and  C_11 
REMARK    3  A    between atoms: C_11  and  C_12 
REMARK    4  A    between atoms: C_11  and  N_22 
REMARK    5  A    between atoms: N_16  and  C_17 
REMARK    6  A    between atoms: C_17  and  C_23 
REMARK    7  A    between atoms: C_17  and  C_18 
REMARK    8  A    between atoms: C_18  and  C_19 
REMARK       I    between atoms: N_22  and  C_23 
ROOT
HETATM    1  C           1     -20.455  -9.667  -4.381  0.00  0.00     0.260 C 
ENDROOT
BRANCH   1   2
HETATM    2  N           1     -21.121  -9.198  -5.641  0.00  0.00    -0.067 N 
HETATM    3  H           1     -21.551  -8.259  -5.479  0.00  0.00     0.275 HD
HETATM    4  H           1     -21.865  -9.880  -5.916  0.00  0.00     0.275 HD
HETATM    5  H           1     -20.413  -9.130  -6.406  0.00  0.00     0.275 HD
ENDBRANCH   1   2
BRANCH   1   6
HETATM    6  C           1     -21.477  -9.748  -3.273  0.00  0.00     0.130 C 
HETATM    7  O           1     -22.507 -10.354  -3.446  0.00  0.00    -0.397 OA
HETATM    8  N           1     -21.235  -9.136  -2.074  0.00  0.00    -0.359 N 
HETATM    9  H           1     -20.371  -8.628  -1.930  0.00  0.00     0.162 HD
BRANCH   8  10
HETATM   10  C           1     -22.216  -9.213  -1.008  0.00  0.00     0.184 C 
BRANCH  10  11
HETATM   11  C           1     -21.804 -10.293  -0.016  0.00  0.00     0.040 C 
BRANCH  11  12
HETATM   12  C           1     -22.674 -11.527  -0.217  0.00  0.00    -0.018 C 
HETATM   13  C           1     -24.143 -11.131  -0.143  0.00  0.00     0.289 C 
HETATM   14  C           1     -22.368 -12.545   0.874  0.00  0.00     0.009 C 
ENDBRANCH  11  12
ENDBRANCH  10  11
BRANCH  10  15
HETATM   15  C           1     -22.295  -7.883  -0.301  0.00  0.00     0.196 C 
HETATM   16  O           1     -21.980  -7.798   0.906  0.00  0.00    -0.646 OA
HETATM   17  O           1     -22.673  -6.867  -0.922  0.00  0.00    -0.646 OA
ENDBRANCH  10  15
ENDBRANCH   8  10
ENDBRANCH   1   6
BRANCH   1  18
HETATM   18  C           1     -19.360  -8.682  -3.991  0.00  0.00     0.079 C 
BRANCH  18  19
HETATM   19  C           1     -18.031  -9.371  -4.035  0.00  0.00    -0.056 A 
HETATM   20  C           1     -17.553  -9.889  -5.239  0.00  0.00     0.007 A 
HETATM   21  C           1     -16.315 -10.530  -5.280  0.00  0.00     0.001 A 
HETATM   22  C           1     -15.555 -10.652  -4.117  0.00  0.00     0.000 A 
HETATM   23  C           1     -16.031 -10.133  -2.914  0.00  0.00     0.001 A 
HETATM   24  C           1     -17.269  -9.492  -2.873  0.00  0.00     0.007 A 
ENDBRANCH  18  19
ENDBRANCH   1  18
TORSDOF 8
ENDMDL
MODEL 9
REMARK VINA RESULT:      -5.9     18.409     20.043
REMARK  8 active torsions:
REMARK  status: ('A' for Active; 'I' for Inactive)
REMARK    1  A    between atoms: C_2  and  C_7 
REMARK    2  A    between atoms: C_7  and  C_11 
REMARK    3  A    between atoms: C_11  and  C_12 
REMARK    4  A    between atoms: C_11  and  N_22 
REMARK    5  A    between atoms: N_16  and  C_17 
REMARK    6  A    between atoms: C_17  and  C_23 
REMARK    7  A    between atoms: C_17  and  C_18 
REMARK    8  A    between atoms: C_18  and  C_19 
REMARK       I    between atoms: N_22  and  C_23 
ROOT
HETATM    1  C           1     -14.598   9.189   5.577  0.00  0.00     0.260 C 
ENDROOT
BRANCH   1   2
HETATM    2  N           1     -14.445   8.566   6.934  0.00  0.00    -0.067 N 
HETATM    3  H           1     -14.578   7.533   6.860  0.00  0.00     0.275 HD
HETATM    4  H           1     -15.161   8.965   7.582  0.00  0.00     0.275 HD
HETATM    5  H           1     -13.490   8.769   7.305  0.00  0.00     0.275 HD
ENDBRANCH   1   2
BRANCH   1   6
HETATM    6  C           1     -15.766  10.144   5.592  0.00  0.00     0.130 C 
HETATM    7  O           1     -15.686  11.186   6.197  0.00  0.00    -0.397 OA
HETATM    8  N           1     -16.915   9.829   4.918  0.00  0.00    -0.359 N 
HETATM    9  H           1     -16.981   8.955   4.411  0.00  0.00     0.162 HD
BRANCH   8  10
HETATM   10  C           1     -18.038  10.747   4.931  0.00  0.00     0.184 C 
BRANCH  10  11
HETATM   11  C           1     -17.996  11.619   3.684  0.00  0.00     0.040 C 
BRANCH  11  12
HETATM   12  C           1     -17.222  10.901   2.587  0.00  0.00    -0.018 C 
HETATM   13  C           1     -16.122  11.813   2.059  0.00  0.00     0.289 C 
HETATM   14  C           1     -18.170  10.541   1.451  0.00  0.00     0.009 C 
ENDBRANCH  11  12
ENDBRANCH  10  11
BRANCH  10  15
HETATM   15  C           1     -19.327   9.962   4.952  0.00  0.00     0.196 C 
HETATM   16  O           1     -19.315   8.734   4.721  0.00  0.00    -0.646 OA
HETATM   17  O           1     -20.406  10.540   5.203  0.00  0.00    -0.646 OA
ENDBRANCH  10  15
ENDBRANCH   8  10
ENDBRANCH   1   6
BRANCH   1  18
HETATM   18  C           1     -14.847   8.097   4.544  0.00  0.00     0.079 C 
BRANCH  18  19
HETATM   19  C           1     -14.352   8.553   3.206  0.00  0.00    -0.056 A 
HETATM   20  C           1     -14.927   8.048   2.040  0.00  0.00     0.007 A 
HETATM   21  C           1     -14.466   8.473   0.795  0.00  0.00     0.001 A 
HETATM   22  C           1     -13.430   9.403   0.715  0.00  0.00     0.000 A 
HETATM   23  C           1     -12.855   9.910   1.881  0.00  0.00     0.001 A 
HETATM   24  C           1     -13.316   9.485   3.127  0.00  0.00     0.007 A 
ENDBRANCH  18  19
ENDBRANCH   1  18
TORSDOF 8
ENDMDL
