MODEL 1
REMARK VINA RESULT:      -6.6      0.000      0.000
REMARK  10 active torsions:
REMARK  status: ('A' for Active; 'I' for Inactive)
REMARK    1  A    between atoms: C_2  and  C_3 
REMARK    2  A    between atoms: C_3  and  C_20 
REMARK    3  A    between atoms: C_3  and  N_14 
REMARK    4  A    between atoms: C_4  and  C_12 
REMARK    5  A    between atoms: C_4  and  C_7 
REMARK    6  A    between atoms: C_4  and  N_13 
REMARK    7  A    between atoms: C_5  and  C_7 
REMARK    8  A    between atoms: C_5  and  S_18 
REMARK    9  A    between atoms: C_10  and  C_11 
REMARK   10  A    between atoms: C_10  and  C_20 
REMARK       I    between atoms: C_11  and  N_15 
REMARK       I    between atoms: C_12  and  N_14 
ROOT
HETATM    1  O           1     -33.914  -1.817 -11.163  0.00  0.00    -0.271 OA
HETATM    2  C           1     -34.309  -2.297 -12.199  0.00  0.00     0.249 C 
HETATM    3  N           1     -34.935  -1.505 -13.124  0.00  0.00    -0.345 N 
HETATM    4  H           1     -35.266  -1.907 -13.992  0.00  0.00     0.163 HD
ENDROOT
BRANCH   3   5
HETATM    5  C           1     -35.124  -0.092 -12.860  0.00  0.00     0.186 C 
BRANCH   5   6
HETATM    6  C           1     -36.386   0.104 -12.057  0.00  0.00     0.196 C 
HETATM    7  O           1     -36.317   0.441 -10.857  0.00  0.00    -0.646 OA
HETATM    8  O           1     -37.502  -0.071 -12.594  0.00  0.00    -0.646 OA
ENDBRANCH   5   6
BRANCH   5   9
HETATM    9  C           1     -35.239   0.659 -14.180  0.00  0.00     0.045 C 
BRANCH   9  10
HETATM   10  C           1     -35.384  -0.338 -15.321  0.00  0.00     0.105 C 
BRANCH  10  11
HETATM   11  C           1     -36.671  -0.071 -16.063  0.00  0.00     0.215 C 
HETATM   12  O           1     -36.942  -0.710 -17.052  0.00  0.00    -0.274 OA
HETATM   13  N           1     -37.531   0.896 -15.615  0.00  0.00    -0.370 N 
HETATM   14  H           1     -37.304   1.431 -14.787  0.00  0.00     0.159 HD
HETATM   15  H           1     -38.393   1.076 -16.113  0.00  0.00     0.159 HD
ENDBRANCH  10  11
ENDBRANCH   9  10
ENDBRANCH   5   9
ENDBRANCH   3   5
BRANCH   2  16
HETATM   16  C           1     -34.112  -3.767 -12.474  0.00  0.00     0.275 C 
BRANCH  16  17
HETATM   17  C           1     -32.915  -4.277 -11.682  0.00  0.00     0.053 C 
BRANCH  17  18
HETATM   18  C           1     -33.165  -5.717 -11.254  0.00  0.00     0.076 C 
BRANCH  18  19
HETATM   19  S           1     -34.724  -5.811 -10.328  0.00  0.00    -0.173 SA
HETATM   20  C           1     -34.724  -7.615 -10.122  0.00  0.00     0.089 C 
ENDBRANCH  18  19
ENDBRANCH  17  18
ENDBRANCH  16  17
BRANCH  16  21
HETATM   21  N           1     -33.865  -3.973 -13.940  0.00  0.00    -0.066 N 
HETATM   22  H           1     -34.088  -3.093 -14.457  0.00  0.00     0.275 HD
HETATM   23  H           1     -32.861  -4.220 -14.090  0.00  0.00     0.275 HD
HETATM   24  H           1     -34.472  -4.747 -14.290  0.00  0.00     0.275 HD
ENDBRANCH  16  21
ENDBRANCH   2  16
TORSDOF 10
ENDMDL
MODEL 2
REMARK VINA RESULT:      -6.0     12.110     13.968
REMARK  10 active torsions:
REMARK  status: ('A' for Active; 'I' for Inactive)
REMARK    1  A    between atoms: C_2  and  C_3 
REMARK    2  A    between atoms: C_3  and  C_20 
REMARK    3  A    between atoms: C_3  and  N_14 
REMARK    4  A    between atoms: C_4  and  C_12 
REMARK    5  A    between atoms: C_4  and  C_7 
REMARK    6  A    between atoms: C_4  and  N_13 
REMARK    7  A    between atoms: C_5  and  C_7 
REMARK    8  A    between atoms: C_5  and  S_18 
REMARK    9  A    between atoms: C_10  and  C_11 
REMARK   10  A    between atoms: C_10  and  C_20 
REMARK       I    between atoms: C_11  and  N_15 
REMARK       I    between atoms: C_12  and  N_14 
ROOT
HETATM    1  O           1     -20.193  -3.621  -9.190  0.00  0.00    -0.271 OA
HETATM    2  C           1     -20.822  -4.541  -8.724  0.00  0.00     0.249 C 
HETATM    3  N           1     -22.138  -4.708  -9.062  0.00  0.00    -0.345 N 
HETATM    4  H           1     -22.666  -5.478  -8.672  0.00  0.00     0.163 HD
ENDROOT
BRANCH   3   5
HETATM    5  C           1     -22.776  -3.782  -9.978  0.00  0.00     0.186 C 
BRANCH   5   6
HETATM    6  C           1     -24.273  -3.854  -9.803  0.00  0.00     0.196 C 
HETATM    7  O           1     -24.928  -2.812  -9.593  0.00  0.00    -0.646 OA
HETATM    8  O           1     -24.857  -4.957  -9.870  0.00  0.00    -0.646 OA
ENDBRANCH   5   6
BRANCH   5   9
HETATM    9  C           1     -22.412  -4.155 -11.409  0.00  0.00     0.045 C 
BRANCH   9  10
HETATM   10  C           1     -22.263  -2.888 -12.242  0.00  0.00     0.105 C 
BRANCH  10  11
HETATM   11  C           1     -23.160  -2.972 -13.452  0.00  0.00     0.215 C 
HETATM   12  O           1     -24.357  -3.064 -13.313  0.00  0.00    -0.274 OA
HETATM   13  N           1     -22.618  -2.945 -14.710  0.00  0.00    -0.370 N 
HETATM   14  H           1     -21.616  -2.869 -14.827  0.00  0.00     0.159 HD
HETATM   15  H           1     -23.219  -3.002 -15.521  0.00  0.00     0.159 HD
ENDBRANCH  10  11
ENDBRANCH   9  10
ENDBRANCH   5   9
ENDBRANCH   3   5
BRANCH   2  16
HETATM   16  C           1     -20.159  -5.504  -7.771  0.00  0.00     0.275 C 
BRANCH  16  17
HETATM   17  C           1     -21.182  -5.999  -6.756  0.00  0.00     0.053 C 
BRANCH  17  18
HETATM   18  C           1     -20.863  -5.413  -5.387  0.00  0.00     0.076 C 
BRANCH  18  19
HETATM   19  S           1     -21.525  -6.502  -4.094  0.00  0.00    -0.173 SA
HETATM   20  C           1     -21.415  -8.039  -5.054  0.00  0.00     0.089 C 
ENDBRANCH  18  19
ENDBRANCH  17  18
ENDBRANCH  16  17
BRANCH  16  21
HETATM   21  N           1     -19.041  -4.806  -7.053  0.00  0.00    -0.066 N 
HETATM   22  H           1     -18.552  -5.485  -6.428  0.00  0.00     0.275 HD
HETATM   23  H           1     -18.364  -4.426  -7.752  0.00  0.00     0.275 HD
HETATM   24  H           1     -19.430  -4.023  -6.481  0.00  0.00     0.275 HD
ENDBRANCH  16  21
ENDBRANCH   2  16
TORSDOF 10
ENDMDL
MODEL 3
REMARK VINA RESULT:      -5.9      2.335      3.683
REMARK  10 active torsions:
REMARK  status: ('A' for Active; 'I' for Inactive)
REMARK    1  A    between atoms: C_2  and  C_3 
REMARK    2  A    between atoms: C_3  and  C_20 
REMARK    3  A    between atoms: C_3  and  N_14 
REMARK    4  A    between atoms: C_4  and  C_12 
REMARK    5  A    between atoms: C_4  and  C_7 
REMARK    6  A    between atoms: C_4  and  N_13 
REMARK    7  A    between atoms: C_5  and  C_7 
REMARK    8  A    between atoms: C_5  and  S_18 
REMARK    9  A    between atoms: C_10  and  C_11 
REMARK   10  A    between atoms: C_10  and  C_20 
REMARK       I    between atoms: C_11  and  N_15 
REMARK       I    between atoms: C_12  and  N_14 
ROOT
HETATM    1  O           1     -34.689  -3.081 -14.065  0.00  0.00    -0.271 OA
HETATM    2  C           1     -34.519  -3.019 -12.870  0.00  0.00     0.249 C 
HETATM    3  N           1     -35.099  -2.010 -12.149  0.00  0.00    -0.345 N 
HETATM    4  H           1     -34.957  -1.957 -11.149  0.00  0.00     0.163 HD
ENDROOT
BRANCH   3   5
HETATM    5  C           1     -35.918  -1.017 -12.819  0.00  0.00     0.186 C 
BRANCH   5   6
HETATM    6  C           1     -35.051   0.140 -13.250  0.00  0.00     0.196 C 
HETATM    7  O           1     -34.751   1.035 -12.433  0.00  0.00    -0.646 OA
HETATM    8  O           1     -34.632   0.202 -14.427  0.00  0.00    -0.646 OA
ENDBRANCH   5   6
BRANCH   5   9
HETATM    9  C           1     -36.993  -0.519 -11.863  0.00  0.00     0.045 C 
BRANCH   9  10
HETATM   10  C           1     -36.802  -1.169 -10.500  0.00  0.00     0.105 C 
BRANCH  10  11
HETATM   11  C           1     -36.896  -0.116  -9.422  0.00  0.00     0.215 C 
HETATM   12  O           1     -37.448  -0.368  -8.378  0.00  0.00    -0.274 OA
HETATM   13  N           1     -36.355   1.125  -9.629  0.00  0.00    -0.370 N 
HETATM   14  H           1     -35.893   1.336 -10.504  0.00  0.00     0.159 HD
HETATM   15  H           1     -36.418   1.831  -8.907  0.00  0.00     0.159 HD
ENDBRANCH  10  11
ENDBRANCH   9  10
ENDBRANCH   5   9
ENDBRANCH   3   5
BRANCH   2  16
HETATM   16  C           1     -33.668  -4.051 -12.174  0.00  0.00     0.275 C 
BRANCH  16  17
HETATM   17  C           1     -34.531  -4.857 -11.212  0.00  0.00     0.053 C 
BRANCH  17  18
HETATM   18  C           1     -33.859  -6.193 -10.924  0.00  0.00     0.076 C 
BRANCH  18  19
HETATM   19  S           1     -34.924  -7.185  -9.840  0.00  0.00    -0.173 SA
HETATM   20  C           1     -33.926  -8.700  -9.911  0.00  0.00     0.089 C 
ENDBRANCH  18  19
ENDBRANCH  17  18
ENDBRANCH  16  17
BRANCH  16  21
HETATM   21  N           1     -32.576  -3.363 -11.407  0.00  0.00    -0.066 N 
HETATM   22  H           1     -31.723  -3.289 -12.006  0.00  0.00     0.275 HD
HETATM   23  H           1     -32.894  -2.406 -11.135  0.00  0.00     0.275 HD
HETATM   24  H           1     -32.353  -3.914 -10.549  0.00  0.00     0.275 HD
ENDBRANCH  16  21
ENDBRANCH   2  16
TORSDOF 10
ENDMDL
MODEL 4
REMARK VINA RESULT:      -5.5     14.158     17.202
REMARK  10 active torsions:
REMARK  status: ('A' for Active; 'I' for Inactive)
REMARK    1  A    between atoms: C_2  and  C_3 
REMARK    2  A    between atoms: C_3  and  C_20 
REMARK    3  A    between atoms: C_3  and  N_14 
REMARK    4  A    between atoms: C_4  and  C_12 
REMARK    5  A    between atoms: C_4  and  C_7 
REMARK    6  A    between atoms: C_4  and  N_13 
REMARK    7  A    between atoms: C_5  and  C_7 
REMARK    8  A    between atoms: C_5  and  S_18 
REMARK    9  A    between atoms: C_10  and  C_11 
REMARK   10  A    between atoms: C_10  and  C_20 
REMARK       I    between atoms: C_11  and  N_15 
REMARK       I    between atoms: C_12  and  N_14 
ROOT
HETATM    1  O           1     -19.600  -4.542  -5.753  0.00  0.00    -0.271 OA
HETATM    2  C           1     -20.694  -4.710  -6.236  0.00  0.00     0.249 C 
HETATM    3  N           1     -21.550  -5.627  -5.686  0.00  0.00    -0.345 N 
HETATM    4  H           1     -22.467  -5.769  -6.090  0.00  0.00     0.163 HD
ENDROOT
BRANCH   3   5
HETATM    5  C           1     -21.142  -6.394  -4.524  0.00  0.00     0.186 C 
BRANCH   5   6
HETATM    6  C           1     -20.717  -7.775  -4.958  0.00  0.00     0.196 C 
HETATM    7  O           1     -19.971  -8.458  -4.227  0.00  0.00    -0.646 OA
HETATM    8  O           1     -21.114  -8.235  -6.051  0.00  0.00    -0.646 OA
ENDBRANCH   5   6
BRANCH   5   9
HETATM    9  C           1     -22.311  -6.503  -3.554  0.00  0.00     0.045 C 
BRANCH   9  10
HETATM   10  C           1     -21.865  -6.055  -2.168  0.00  0.00     0.105 C 
BRANCH  10  11
HETATM   11  C           1     -22.024  -7.197  -1.194  0.00  0.00     0.215 C 
HETATM   12  O           1     -22.932  -7.190  -0.398  0.00  0.00    -0.274 OA
HETATM   13  N           1     -21.137  -8.241  -1.213  0.00  0.00    -0.370 N 
HETATM   14  H           1     -20.376  -8.246  -1.880  0.00  0.00     0.159 HD
HETATM   15  H           1     -21.244  -9.006  -0.560  0.00  0.00     0.159 HD
ENDBRANCH  10  11
ENDBRANCH   9  10
ENDBRANCH   5   9
ENDBRANCH   3   5
BRANCH   2  16
HETATM   16  C           1     -21.118  -3.913  -7.444  0.00  0.00     0.275 C 
BRANCH  16  17
HETATM   17  C           1     -22.546  -4.285  -7.823  0.00  0.00     0.053 C 
BRANCH  17  18
HETATM   18  C           1     -22.719  -4.160  -9.332  0.00  0.00     0.076 C 
BRANCH  18  19
HETATM   19  S           1     -24.376  -3.514  -9.699  0.00  0.00    -0.173 SA
HETATM   20  C           1     -24.090  -3.231 -11.469  0.00  0.00     0.089 C 
ENDBRANCH  18  19
ENDBRANCH  17  18
ENDBRANCH  16  17
BRANCH  16  21
HETATM   21  N           1     -20.201  -4.220  -8.592  0.00  0.00    -0.066 N 
HETATM   22  H           1     -20.762  -4.562  -9.404  0.00  0.00     0.275 HD
HETATM   23  H           1     -19.686  -3.353  -8.865  0.00  0.00     0.275 HD
HETATM   24  H           1     -19.519  -4.957  -8.305  0.00  0.00     0.275 HD
ENDBRANCH  16  21
ENDBRANCH   2  16
TORSDOF 10
ENDMDL
MODEL 5
REMARK VINA RESULT:      -5.3     13.851     16.126
REMARK  10 active torsions:
REMARK  status: ('A' for Active; 'I' for Inactive)
REMARK    1  A    between atoms: C_2  and  C_3 
REMARK    2  A    between atoms: C_3  and  C_20 
REMARK    3  A    between atoms: C_3  and  N_14 
REMARK    4  A    between atoms: C_4  and  C_12 
REMARK    5  A    between atoms: C_4  and  C_7 
REMARK    6  A    between atoms: C_4  and  N_13 
REMARK    7  A    between atoms: C_5  and  C_7 
REMARK    8  A    between atoms: C_5  and  S_18 
REMARK    9  A    between atoms: C_10  and  C_11 
REMARK   10  A    between atoms: C_10  and  C_20 
REMARK       I    between atoms: C_11  and  N_15 
REMARK       I    between atoms: C_12  and  N_14 
ROOT
HETATM    1  O           1     -22.230  -7.235  -4.965  0.00  0.00    -0.271 OA
HETATM    2  C           1     -21.563  -6.321  -4.541  0.00  0.00     0.249 C 
HETATM    3  N           1     -21.099  -5.360  -5.398  0.00  0.00    -0.345 N 
HETATM    4  H           1     -20.540  -4.594  -5.045  0.00  0.00     0.163 HD
ENDROOT
BRANCH   3   5
HETATM    5  C           1     -21.407  -5.439  -6.814  0.00  0.00     0.186 C 
BRANCH   5   6
HETATM    6  C           1     -20.142  -5.713  -7.588  0.00  0.00     0.196 C 
HETATM    7  O           1     -19.394  -6.655  -7.251  0.00  0.00    -0.646 OA
HETATM    8  O           1     -19.842  -4.997  -8.568  0.00  0.00    -0.646 OA
ENDBRANCH   5   6
BRANCH   5   9
HETATM    9  C           1     -22.010  -4.119  -7.276  0.00  0.00     0.045 C 
BRANCH   9  10
HETATM   10  C           1     -23.476  -4.328  -7.633  0.00  0.00     0.105 C 
BRANCH  10  11
HETATM   11  C           1     -23.722  -3.856  -9.046  0.00  0.00     0.215 C 
HETATM   12  O           1     -22.804  -3.439  -9.712  0.00  0.00    -0.274 OA
HETATM   13  N           1     -24.985  -3.901  -9.572  0.00  0.00    -0.370 N 
HETATM   14  H           1     -25.754  -4.250  -9.014  0.00  0.00     0.159 HD
HETATM   15  H           1     -25.150  -3.584 -10.519  0.00  0.00     0.159 HD
ENDBRANCH  10  11
ENDBRANCH   9  10
ENDBRANCH   5   9
ENDBRANCH   3   5
BRANCH   2  16
HETATM   16  C           1     -21.242  -6.238  -3.070  0.00  0.00     0.275 C 
BRANCH  16  17
HETATM   17  C           1     -20.733  -7.589  -2.584  0.00  0.00     0.053 C 
BRANCH  17  18
HETATM   18  C           1     -21.851  -8.320  -1.852  0.00  0.00     0.076 C 
BRANCH  18  19
HETATM   19  S           1     -21.469  -8.392  -0.080  0.00  0.00    -0.173 SA
HETATM   20  C           1     -23.155  -8.052   0.501  0.00  0.00     0.089 C 
ENDBRANCH  18  19
ENDBRANCH  17  18
ENDBRANCH  16  17
BRANCH  16  21
HETATM   21  N           1     -22.481  -5.869  -2.308  0.00  0.00    -0.066 N 
HETATM   22  H           1     -22.368  -4.914  -1.900  0.00  0.00     0.275 HD
HETATM   23  H           1     -23.301  -5.875  -2.956  0.00  0.00     0.275 HD
HETATM   24  H           1     -22.637  -6.560  -1.541  0.00  0.00     0.275 HD
ENDBRANCH  16  21
ENDBRANCH   2  16
TORSDOF 10
ENDMDL
MODEL 6
REMARK VINA RESULT:      -5.3      1.663      1.853
REMARK  10 active torsions:
REMARK  status: ('A' for Active; 'I' for Inactive)
REMARK    1  A    between atoms: C_2  and  C_3 
REMARK    2  A    between atoms: C_3  and  C_20 
REMARK    3  A    between atoms: C_3  and  N_14 
REMARK    4  A    between atoms: C_4  and  C_12 
REMARK    5  A    between atoms: C_4  and  C_7 
REMARK    6  A    between atoms: C_4  and  N_13 
REMARK    7  A    between atoms: C_5  and  C_7 
REMARK    8  A    between atoms: C_5  and  S_18 
REMARK    9  A    between atoms: C_10  and  C_11 
REMARK   10  A    between atoms: C_10  and  C_20 
REMARK       I    between atoms: C_11  and  N_15 
REMARK       I    between atoms: C_12  and  N_14 
ROOT
HETATM    1  O           1     -34.906  -2.486 -13.583  0.00  0.00    -0.271 OA
HETATM    2  C           1     -34.543  -2.294 -12.447  0.00  0.00     0.249 C 
HETATM    3  N           1     -34.789  -1.089 -11.846  0.00  0.00    -0.345 N 
HETATM    4  H           1     -34.485  -0.927 -10.895  0.00  0.00     0.163 HD
ENDROOT
BRANCH   3   5
HETATM    5  C           1     -35.487  -0.045 -12.572  0.00  0.00     0.186 C 
BRANCH   5   6
HETATM    6  C           1     -36.974  -0.287 -12.494  0.00  0.00     0.196 C 
HETATM    7  O           1     -37.591  -0.717 -13.491  0.00  0.00    -0.646 OA
HETATM    8  O           1     -37.589  -0.057 -11.429  0.00  0.00    -0.646 OA
ENDBRANCH   5   6
BRANCH   5   9
HETATM    9  C           1     -35.045  -0.060 -14.030  0.00  0.00     0.045 C 
BRANCH   9  10
HETATM   10  C           1     -35.053   1.361 -14.577  0.00  0.00     0.105 C 
BRANCH  10  11
HETATM   11  C           1     -35.963   1.433 -15.780  0.00  0.00     0.215 C 
HETATM   12  O           1     -36.076   2.468 -16.391  0.00  0.00    -0.274 OA
HETATM   13  N           1     -36.660   0.323 -16.177  0.00  0.00    -0.370 N 
HETATM   14  H           1     -36.566  -0.545 -15.664  0.00  0.00     0.159 HD
HETATM   15  H           1     -37.270   0.371 -16.982  0.00  0.00     0.159 HD
ENDBRANCH  10  11
ENDBRANCH   9  10
ENDBRANCH   5   9
ENDBRANCH   3   5
BRANCH   2  16
HETATM   16  C           1     -33.817  -3.379 -11.692  0.00  0.00     0.275 C 
BRANCH  16  17
HETATM   17  C           1     -34.608  -4.678 -11.783  0.00  0.00     0.053 C 
BRANCH  17  18
HETATM   18  C           1     -33.820  -5.800 -11.120  0.00  0.00     0.076 C 
BRANCH  18  19
HETATM   19  S           1     -34.890  -6.679  -9.947  0.00  0.00    -0.173 SA
HETATM   20  C           1     -34.119  -8.309 -10.158  0.00  0.00     0.089 C 
ENDBRANCH  18  19
ENDBRANCH  17  18
ENDBRANCH  16  17
BRANCH  16  21
HETATM   21  N           1     -33.679  -2.979 -10.253  0.00  0.00    -0.066 N 
HETATM   22  H           1     -34.603  -2.653  -9.892  0.00  0.00     0.275 HD
HETATM   23  H           1     -33.358  -3.802  -9.694  0.00  0.00     0.275 HD
HETATM   24  H           1     -32.981  -2.207 -10.171  0.00  0.00     0.275 HD
ENDBRANCH  16  21
ENDBRANCH   2  16
TORSDOF 10
ENDMDL
MODEL 7
REMARK VINA RESULT:      -5.0     14.638     17.764
REMARK  10 active torsions:
REMARK  status: ('A' for Active; 'I' for Inactive)
REMARK    1  A    between atoms: C_2  and  C_3 
REMARK    2  A    between atoms: C_3  and  C_20 
REMARK    3  A    between atoms: C_3  and  N_14 
REMARK    4  A    between atoms: C_4  and  C_12 
REMARK    5  A    between atoms: C_4  and  C_7 
REMARK    6  A    between atoms: C_4  and  N_13 
REMARK    7  A    between atoms: C_5  and  C_7 
REMARK    8  A    between atoms: C_5  and  S_18 
REMARK    9  A    between atoms: C_10  and  C_11 
REMARK   10  A    between atoms: C_10  and  C_20 
REMARK       I    between atoms: C_11  and  N_15 
REMARK       I    between atoms: C_12  and  N_14 
ROOT
HETATM    1  O           1     -22.900  -5.708  -5.673  0.00  0.00    -0.271 OA
HETATM    2  C           1     -21.699  -5.780  -5.777  0.00  0.00     0.249 C 
HETATM    3  N           1     -20.995  -6.646  -4.984  0.00  0.00    -0.345 N 
HETATM    4  H           1     -19.989  -6.706  -5.070  0.00  0.00     0.163 HD
ENDROOT
BRANCH   3   5
HETATM    5  C           1     -21.691  -7.476  -4.019  0.00  0.00     0.186 C 
BRANCH   5   6
HETATM    6  C           1     -21.570  -6.860  -2.647  0.00  0.00     0.196 C 
HETATM    7  O           1     -20.753  -7.322  -1.824  0.00  0.00    -0.646 OA
HETATM    8  O           1     -22.289  -5.885  -2.335  0.00  0.00    -0.646 OA
ENDBRANCH   5   6
BRANCH   5   9
HETATM    9  C           1     -21.073  -8.867  -4.009  0.00  0.00     0.045 C 
BRANCH   9  10
HETATM   10  C           1     -19.820  -8.873  -4.874  0.00  0.00     0.105 C 
BRANCH  10  11
HETATM   11  C           1     -18.631  -9.273  -4.035  0.00  0.00     0.215 C 
HETATM   12  O           1     -17.600  -9.608  -4.569  0.00  0.00    -0.274 OA
HETATM   13  N           1     -18.720  -9.257  -2.669  0.00  0.00    -0.370 N 
HETATM   14  H           1     -19.584  -8.977  -2.222  0.00  0.00     0.159 HD
HETATM   15  H           1     -17.923  -9.525  -2.107  0.00  0.00     0.159 HD
ENDBRANCH  10  11
ENDBRANCH   9  10
ENDBRANCH   5   9
ENDBRANCH   3   5
BRANCH   2  16
HETATM   16  C           1     -20.975  -4.917  -6.780  0.00  0.00     0.275 C 
BRANCH  16  17
HETATM   17  C           1     -21.988  -4.112  -7.583  0.00  0.00     0.053 C 
BRANCH  17  18
HETATM   18  C           1     -21.565  -4.078  -9.046  0.00  0.00     0.076 C 
BRANCH  18  19
HETATM   19  S           1     -22.946  -4.629 -10.088  0.00  0.00    -0.173 SA
HETATM   20  C           1     -24.198  -3.542  -9.348  0.00  0.00     0.089 C 
ENDBRANCH  18  19
ENDBRANCH  17  18
ENDBRANCH  16  17
BRANCH  16  21
HETATM   21  N           1     -20.181  -5.788  -7.708  0.00  0.00    -0.066 N 
HETATM   22  H           1     -19.651  -5.189  -8.381  0.00  0.00     0.275 HD
HETATM   23  H           1     -19.511  -6.366  -7.153  0.00  0.00     0.275 HD
HETATM   24  H           1     -20.829  -6.415  -8.236  0.00  0.00     0.275 HD
ENDBRANCH  16  21
ENDBRANCH   2  16
TORSDOF 10
ENDMDL
MODEL 8
REMARK VINA RESULT:      -5.0      3.437      4.651
REMARK  10 active torsions:
REMARK  status: ('A' for Active; 'I' for Inactive)
REMARK    1  A    between atoms: C_2  and  C_3 
REMARK    2  A    between atoms: C_3  and  C_20 
REMARK    3  A    between atoms: C_3  and  N_14 
REMARK    4  A    between atoms: C_4  and  C_12 
REMARK    5  A    between atoms: C_4  and  C_7 
REMARK    6  A    between atoms: C_4  and  N_13 
REMARK    7  A    between atoms: C_5  and  C_7 
REMARK    8  A    between atoms: C_5  and  S_18 
REMARK    9  A    between atoms: C_10  and  C_11 
REMARK   10  A    between atoms: C_10  and  C_20 
REMARK       I    between atoms: C_11  and  N_15 
REMARK       I    between atoms: C_12  and  N_14 
ROOT
HETATM    1  O           1     -34.354  -2.158 -12.951  0.00  0.00    -0.271 OA
HETATM    2  C           1     -35.301  -1.525 -12.548  0.00  0.00     0.249 C 
HETATM    3  N           1     -35.894  -0.593 -13.356  0.00  0.00    -0.345 N 
HETATM    4  H           1     -36.687  -0.062 -13.018  0.00  0.00     0.163 HD
ENDROOT
BRANCH   3   5
HETATM    5  C           1     -35.387  -0.365 -14.695  0.00  0.00     0.186 C 
BRANCH   5   6
HETATM    6  C           1     -35.476   1.105 -15.023  0.00  0.00     0.196 C 
HETATM    7  O           1     -36.155   1.488 -15.999  0.00  0.00    -0.646 OA
HETATM    8  O           1     -34.870   1.940 -14.317  0.00  0.00    -0.646 OA
ENDBRANCH   5   6
BRANCH   5   9
HETATM    9  C           1     -36.217  -1.161 -15.694  0.00  0.00     0.045 C 
BRANCH   9  10
HETATM   10  C           1     -35.378  -1.462 -16.928  0.00  0.00     0.105 C 
BRANCH  10  11
HETATM   11  C           1     -34.553  -2.702 -16.685  0.00  0.00     0.215 C 
HETATM   12  O           1     -34.829  -3.443 -15.772  0.00  0.00    -0.274 OA
HETATM   13  N           1     -33.490  -2.987 -17.500  0.00  0.00    -0.370 N 
HETATM   14  H           1     -33.258  -2.367 -18.266  0.00  0.00     0.159 HD
HETATM   15  H           1     -32.937  -3.819 -17.338  0.00  0.00     0.159 HD
ENDBRANCH  10  11
ENDBRANCH   9  10
ENDBRANCH   5   9
ENDBRANCH   3   5
BRANCH   2  16
HETATM   16  C           1     -35.829  -1.761 -11.155  0.00  0.00     0.275 C 
BRANCH  16  17
HETATM   17  C           1     -36.930  -0.754 -10.851  0.00  0.00     0.053 C 
BRANCH  17  18
HETATM   18  C           1     -36.967  -0.477  -9.353  0.00  0.00     0.076 C 
BRANCH  18  19
HETATM   19  S           1     -37.577   1.207  -9.063  0.00  0.00    -0.173 SA
HETATM   20  C           1     -37.057   1.311  -7.327  0.00  0.00     0.089 C 
ENDBRANCH  18  19
ENDBRANCH  17  18
ENDBRANCH  16  17
BRANCH  16  21
HETATM   21  N           1     -34.714  -1.596 -10.164  0.00  0.00    -0.066 N 
HETATM   22  H           1     -34.666  -0.598  -9.857  0.00  0.00     0.275 HD
HETATM   23  H           1     -34.894  -2.207  -9.335  0.00  0.00     0.275 HD
HETATM   24  H           1     -33.809  -1.868 -10.609  0.00  0.00     0.275 HD
ENDBRANCH  16  21
ENDBRANCH   2  16
TORSDOF 10
ENDMDL
MODEL 9
REMARK VINA RESULT:      -4.9     14.700     17.849
REMARK  10 active torsions:
REMARK  status: ('A' for Active; 'I' for Inactive)
REMARK    1  A    between atoms: C_2  and  C_3 
REMARK    2  A    between atoms: C_3  and  C_20 
REMARK    3  A    between atoms: C_3  and  N_14 
REMARK    4  A    between atoms: C_4  and  C_12 
REMARK    5  A    between atoms: C_4  and  C_7 
REMARK    6  A    between atoms: C_4  and  N_13 
REMARK    7  A    between atoms: C_5  and  C_7 
REMARK    8  A    between atoms: C_5  and  S_18 
REMARK    9  A    between atoms: C_10  and  C_11 
REMARK   10  A    between atoms: C_10  and  C_20 
REMARK       I    between atoms: C_11  and  N_15 
REMARK       I    between atoms: C_12  and  N_14 
ROOT
HETATM    1  O           1     -22.821  -6.311  -5.049  0.00  0.00    -0.271 OA
HETATM    2  C           1     -21.621  -6.260  -4.912  0.00  0.00     0.249 C 
HETATM    3  N           1     -21.033  -6.839  -3.820  0.00  0.00    -0.345 N 
HETATM    4  H           1     -20.028  -6.796  -3.705  0.00  0.00     0.163 HD
ENDROOT
BRANCH   3   5
HETATM    5  C           1     -21.848  -7.513  -2.828  0.00  0.00     0.186 C 
BRANCH   5   6
HETATM    6  C           1     -22.200  -6.545  -1.726  0.00  0.00     0.196 C 
HETATM    7  O           1     -21.923  -5.333  -1.846  0.00  0.00    -0.646 OA
HETATM    8  O           1     -22.770  -6.956  -0.692  0.00  0.00    -0.646 OA
ENDBRANCH   5   6
BRANCH   5   9
HETATM    9  C           1     -21.071  -8.686  -2.246  0.00  0.00     0.045 C 
BRANCH   9  10
HETATM   10  C           1     -21.798  -9.986  -2.564  0.00  0.00     0.105 C 
BRANCH  10  11
HETATM   11  C           1     -22.662 -10.380  -1.391  0.00  0.00     0.215 C 
HETATM   12  O           1     -23.642 -11.065  -1.565  0.00  0.00    -0.274 OA
HETATM   13  N           1     -22.335  -9.960  -0.129  0.00  0.00    -0.370 N 
HETATM   14  H           1     -21.515  -9.387   0.017  0.00  0.00     0.159 HD
HETATM   15  H           1     -22.914 -10.224   0.657  0.00  0.00     0.159 HD
ENDBRANCH  10  11
ENDBRANCH   9  10
ENDBRANCH   5   9
ENDBRANCH   3   5
BRANCH   2  16
HETATM   16  C           1     -20.773  -5.559  -5.943  0.00  0.00     0.275 C 
BRANCH  16  17
HETATM   17  C           1     -21.665  -4.719  -6.849  0.00  0.00     0.053 C 
BRANCH  17  18
HETATM   18  C           1     -20.826  -4.113  -7.968  0.00  0.00     0.076 C 
BRANCH  18  19
HETATM   19  S           1     -21.756  -4.181  -9.525  0.00  0.00    -0.173 SA
HETATM   20  C           1     -23.405  -4.056  -8.777  0.00  0.00     0.089 C 
ENDBRANCH  18  19
ENDBRANCH  17  18
ENDBRANCH  16  17
BRANCH  16  21
HETATM   21  N           1     -20.044  -6.579  -6.768  0.00  0.00    -0.066 N 
HETATM   22  H           1     -19.089  -6.223  -6.998  0.00  0.00     0.275 HD
HETATM   23  H           1     -19.963  -7.468  -6.226  0.00  0.00     0.275 HD
HETATM   24  H           1     -20.573  -6.754  -7.652  0.00  0.00     0.275 HD
ENDBRANCH  16  21
ENDBRANCH   2  16
TORSDOF 10
ENDMDL
