MODEL 1
REMARK VINA RESULT:      -8.0      0.000      0.000
REMARK  8 active torsions:
REMARK  status: ('A' for Active; 'I' for Inactive)
REMARK    1  A    between atoms: C_3  and  O_4 
REMARK    2  A    between atoms: O_4  and  P_6 
REMARK    3  A    between atoms: C_5  and  C_21 
REMARK    4  A    between atoms: C_5  and  C_7 
REMARK    5  A    between atoms: C_5  and  N_18 
REMARK    6  A    between atoms: P_6  and  O_8 
REMARK    7  A    between atoms: C_7  and  C_24 
REMARK       I    between atoms: N_18  and  C_25 
REMARK    8  A    between atoms: C_25  and  C_26 
ROOT
HETATM    1  C           1     -20.987  -5.199  -6.489  0.00  0.00     0.189 C 
ENDROOT
BRANCH   1   2
HETATM    2  C           1     -19.598  -5.400  -7.043  0.00  0.00     0.197 C 
HETATM    3  O           1     -18.759  -4.475  -6.977  0.00  0.00    -0.646 OA
HETATM    4  O           1     -19.287  -6.490  -7.569  0.00  0.00    -0.646 OA
ENDBRANCH   1   2
BRANCH   1   5
HETATM    5  C           1     -21.556  -3.884  -7.006  0.00  0.00     0.070 C 
BRANCH   5   6
HETATM    6  C           1     -22.112  -4.084  -8.381  0.00  0.00    -0.073 A 
HETATM    7  C           1     -23.493  -4.129  -8.574  0.00  0.00     0.027 A 
HETATM    8  C           1     -24.012  -4.315  -9.855  0.00  0.00     0.015 A 
HETATM    9  C           1     -23.150  -4.456 -10.943  0.00  0.00     0.078 A 
HETATM   10  C           1     -21.769  -4.411 -10.750  0.00  0.00     0.037 A 
HETATM   11  C           1     -21.251  -4.225  -9.469  0.00  0.00     0.006 A 
BRANCH   9  12
HETATM   12  O           1     -23.654  -4.637 -12.188  0.00  0.00    -0.248 OA
BRANCH  12  13
HETATM   13  P           1     -24.007  -3.326 -13.063  0.00  0.00     0.411 P 
HETATM   14  O           1     -23.060  -2.239 -12.726  0.00  0.00    -0.624 OA
HETATM   15  O           1     -25.388  -2.889 -12.759  0.00  0.00    -0.624 OA
BRANCH  13  16
HETATM   16  O           1     -23.884  -3.678 -14.634  0.00  0.00    -0.300 OA
HETATM   17  H           1     -24.491  -4.385 -14.773  0.00  0.00     0.223 HD
ENDBRANCH  13  16
ENDBRANCH  12  13
ENDBRANCH   9  12
ENDBRANCH   5   6
ENDBRANCH   1   5
BRANCH   1  18
HETATM   18  N           1     -20.929  -5.164  -5.041  0.00  0.00    -0.344 N 
HETATM   19  H           1     -20.729  -4.295  -4.564  0.00  0.00     0.163 HD
HETATM   20  C           1     -21.146  -6.307  -4.320  0.00  0.00     0.252 C 
HETATM   21  O           1     -21.098  -6.278  -3.113  0.00  0.00    -0.271 OA
BRANCH  20  22
HETATM   22  C           1     -21.445  -7.603  -5.031  0.00  0.00     0.345 C 
HETATM   23  C           1     -21.972  -8.645  -4.060  0.00  0.00     0.048 C 
HETATM   24  C           1     -20.748  -9.451  -3.640  0.00  0.00     0.033 C 
HETATM   25  C           1     -19.586  -8.834  -4.399  0.00  0.00     0.271 C 
HETATM   26  N           1     -20.220  -8.203  -5.554  0.00  0.00     0.097 N 
HETATM   27  H           1     -20.435  -8.914  -6.253  0.00  0.00     0.317 HD
ENDBRANCH  20  22
ENDBRANCH   1  18
TORSDOF 8
ENDMDL
MODEL 2
REMARK VINA RESULT:      -7.2     10.751     13.352
REMARK  8 active torsions:
REMARK  status: ('A' for Active; 'I' for Inactive)
REMARK    1  A    between atoms: C_3  and  O_4 
REMARK    2  A    between atoms: O_4  and  P_6 
REMARK    3  A    between atoms: C_5  and  C_21 
REMARK    4  A    between atoms: C_5  and  C_7 
REMARK    5  A    between atoms: C_5  and  N_18 
REMARK    6  A    between atoms: P_6  and  O_8 
REMARK    7  A    between atoms: C_7  and  C_24 
REMARK       I    between atoms: N_18  and  C_25 
REMARK    8  A    between atoms: C_25  and  C_26 
ROOT
HETATM    1  C           1     -32.724  -4.642 -16.308  0.00  0.00     0.189 C 
ENDROOT
BRANCH   1   2
HETATM    2  C           1     -33.046  -3.375 -17.061  0.00  0.00     0.197 C 
HETATM    3  O           1     -34.155  -2.820 -16.905  0.00  0.00    -0.646 OA
HETATM    4  O           1     -32.204  -2.879 -17.840  0.00  0.00    -0.646 OA
ENDBRANCH   1   2
BRANCH   1   5
HETATM    5  C           1     -32.125  -5.664 -17.266  0.00  0.00     0.070 C 
BRANCH   5   6
HETATM    6  C           1     -30.796  -6.116 -16.749  0.00  0.00    -0.073 A 
HETATM    7  C           1     -30.131  -7.176 -17.367  0.00  0.00     0.027 A 
HETATM    8  C           1     -28.892  -7.598 -16.885  0.00  0.00     0.015 A 
HETATM    9  C           1     -28.317  -6.960 -15.787  0.00  0.00     0.078 A 
HETATM   10  C           1     -28.980  -5.900 -15.169  0.00  0.00     0.037 A 
HETATM   11  C           1     -30.220  -5.478 -15.650  0.00  0.00     0.006 A 
BRANCH   9  12
HETATM   12  O           1     -27.113  -7.369 -15.318  0.00  0.00    -0.248 OA
BRANCH  12  13
HETATM   13  P           1     -25.784  -6.732 -15.979  0.00  0.00     0.411 P 
HETATM   14  O           1     -25.150  -5.804 -15.015  0.00  0.00    -0.624 OA
HETATM   15  O           1     -26.151  -5.993 -17.208  0.00  0.00    -0.624 OA
BRANCH  13  16
HETATM   16  O           1     -24.747  -7.914 -16.349  0.00  0.00    -0.300 OA
HETATM   17  H           1     -24.774  -7.976 -17.288  0.00  0.00     0.223 HD
ENDBRANCH  13  16
ENDBRANCH  12  13
ENDBRANCH   9  12
ENDBRANCH   5   6
ENDBRANCH   1   5
BRANCH   1  18
HETATM   18  N           1     -33.938  -5.180 -15.726  0.00  0.00    -0.344 N 
HETATM   19  H           1     -34.525  -5.803 -16.266  0.00  0.00     0.163 HD
HETATM   20  C           1     -34.290  -4.846 -14.446  0.00  0.00     0.252 C 
HETATM   21  O           1     -35.301  -5.295 -13.961  0.00  0.00    -0.271 OA
BRANCH  20  22
HETATM   22  C           1     -33.415  -3.917 -13.641  0.00  0.00     0.345 C 
HETATM   23  C           1     -32.855  -4.625 -12.419  0.00  0.00     0.048 C 
HETATM   24  C           1     -33.820  -4.286 -11.288  0.00  0.00     0.033 C 
HETATM   25  C           1     -34.876  -3.396 -11.921  0.00  0.00     0.271 C 
HETATM   26  N           1     -34.199  -2.821 -13.080  0.00  0.00     0.097 N 
HETATM   27  H           1     -33.591  -2.060 -12.775  0.00  0.00     0.317 HD
ENDBRANCH  20  22
ENDBRANCH   1  18
TORSDOF 8
ENDMDL
MODEL 3
REMARK VINA RESULT:      -6.9      3.670      8.301
REMARK  8 active torsions:
REMARK  status: ('A' for Active; 'I' for Inactive)
REMARK    1  A    between atoms: C_3  and  O_4 
REMARK    2  A    between atoms: O_4  and  P_6 
REMARK    3  A    between atoms: C_5  and  C_21 
REMARK    4  A    between atoms: C_5  and  C_7 
REMARK    5  A    between atoms: C_5  and  N_18 
REMARK    6  A    between atoms: P_6  and  O_8 
REMARK    7  A    between atoms: C_7  and  C_24 
REMARK       I    between atoms: N_18  and  C_25 
REMARK    8  A    between atoms: C_25  and  C_26 
ROOT
HETATM    1  C           1     -21.186  -5.150  -8.221  0.00  0.00     0.189 C 
ENDROOT
BRANCH   1   2
HETATM    2  C           1     -21.970  -4.119  -7.446  0.00  0.00     0.197 C 
HETATM    3  O           1     -23.150  -4.355  -7.109  0.00  0.00    -0.646 OA
HETATM    4  O           1     -21.438  -3.030  -7.141  0.00  0.00    -0.646 OA
ENDBRANCH   1   2
BRANCH   1   5
HETATM    5  C           1     -20.050  -5.682  -7.356  0.00  0.00     0.070 C 
BRANCH   5   6
HETATM    6  C           1     -20.594  -6.127  -6.034  0.00  0.00    -0.073 A 
HETATM    7  C           1     -21.255  -7.351  -5.929  0.00  0.00     0.027 A 
HETATM    8  C           1     -21.761  -7.768  -4.698  0.00  0.00     0.015 A 
HETATM    9  C           1     -21.607  -6.960  -3.572  0.00  0.00     0.078 A 
HETATM   10  C           1     -20.945  -5.736  -3.676  0.00  0.00     0.037 A 
HETATM   11  C           1     -20.439  -5.320  -4.907  0.00  0.00     0.006 A 
BRANCH   9  12
HETATM   12  O           1     -22.098  -7.363  -2.375  0.00  0.00    -0.248 OA
BRANCH  12  13
HETATM   13  P           1     -21.260  -8.465  -1.542  0.00  0.00     0.411 P 
HETATM   14  O           1     -21.886  -9.795  -1.717  0.00  0.00    -0.624 OA
HETATM   15  O           1     -21.261  -8.103  -0.107  0.00  0.00    -0.624 OA
BRANCH  13  16
HETATM   16  O           1     -19.741  -8.510  -2.088  0.00  0.00    -0.300 OA
HETATM   17  H           1     -19.489  -9.416  -2.031  0.00  0.00     0.223 HD
ENDBRANCH  13  16
ENDBRANCH  12  13
ENDBRANCH   9  12
ENDBRANCH   5   6
ENDBRANCH   1   5
BRANCH   1  18
HETATM   18  N           1     -20.637  -4.542  -9.417  0.00  0.00    -0.344 N 
HETATM   19  H           1     -19.659  -4.286  -9.451  0.00  0.00     0.163 HD
HETATM   20  C           1     -21.443  -4.313 -10.500  0.00  0.00     0.252 C 
HETATM   21  O           1     -20.985  -3.806 -11.496  0.00  0.00    -0.271 OA
BRANCH  20  22
HETATM   22  C           1     -22.901  -4.695 -10.449  0.00  0.00     0.345 C 
HETATM   23  C           1     -23.376  -5.199 -11.801  0.00  0.00     0.048 C 
HETATM   24  C           1     -23.979  -3.980 -12.489  0.00  0.00     0.033 C 
HETATM   25  C           1     -23.826  -2.844 -11.493  0.00  0.00     0.271 C 
HETATM   26  N           1     -23.737  -3.522 -10.202  0.00  0.00     0.097 N 
HETATM   27  H           1     -24.670  -3.800  -9.899  0.00  0.00     0.317 HD
ENDBRANCH  20  22
ENDBRANCH   1  18
TORSDOF 8
ENDMDL
MODEL 4
REMARK VINA RESULT:      -6.9     13.198     16.193
REMARK  8 active torsions:
REMARK  status: ('A' for Active; 'I' for Inactive)
REMARK    1  A    between atoms: C_3  and  O_4 
REMARK    2  A    between atoms: O_4  and  P_6 
REMARK    3  A    between atoms: C_5  and  C_21 
REMARK    4  A    between atoms: C_5  and  C_7 
REMARK    5  A    between atoms: C_5  and  N_18 
REMARK    6  A    between atoms: P_6  and  O_8 
REMARK    7  A    between atoms: C_7  and  C_24 
REMARK       I    between atoms: N_18  and  C_25 
REMARK    8  A    between atoms: C_25  and  C_26 
ROOT
HETATM    1  C           1     -35.588  -0.550 -11.604  0.00  0.00     0.189 C 
ENDROOT
BRANCH   1   2
HETATM    2  C           1     -36.669   0.063 -10.747  0.00  0.00     0.197 C 
HETATM    3  O           1     -36.467   0.252  -9.528  0.00  0.00    -0.646 OA
HETATM    4  O           1     -37.765   0.382 -11.257  0.00  0.00    -0.646 OA
ENDBRANCH   1   2
BRANCH   1   5
HETATM    5  C           1     -34.499  -1.129 -10.712  0.00  0.00     0.070 C 
BRANCH   5   6
HETATM    6  C           1     -34.440  -2.614 -10.892  0.00  0.00    -0.073 A 
HETATM    7  C           1     -33.219  -3.236 -11.155  0.00  0.00     0.027 A 
HETATM    8  C           1     -33.163  -4.619 -11.323  0.00  0.00     0.015 A 
HETATM    9  C           1     -34.327  -5.381 -11.228  0.00  0.00     0.078 A 
HETATM   10  C           1     -35.548  -4.759 -10.964  0.00  0.00     0.037 A 
HETATM   11  C           1     -35.604  -3.376 -10.796  0.00  0.00     0.006 A 
BRANCH   9  12
HETATM   12  O           1     -34.274  -6.725 -11.391  0.00  0.00    -0.248 OA
BRANCH  12  13
HETATM   13  P           1     -34.339  -7.654 -10.071  0.00  0.00     0.411 P 
HETATM   14  O           1     -35.694  -8.237  -9.944  0.00  0.00    -0.624 OA
HETATM   15  O           1     -34.041  -6.833  -8.876  0.00  0.00    -0.624 OA
BRANCH  13  16
HETATM   16  O           1     -33.252  -8.842 -10.195  0.00  0.00    -0.300 OA
HETATM   17  H           1     -32.785  -8.662 -10.993  0.00  0.00     0.223 HD
ENDBRANCH  13  16
ENDBRANCH  12  13
ENDBRANCH   9  12
ENDBRANCH   5   6
ENDBRANCH   1   5
BRANCH   1  18
HETATM   18  N           1     -35.017   0.468 -12.464  0.00  0.00    -0.344 N 
HETATM   19  H           1     -34.511   1.245 -12.060  0.00  0.00     0.163 HD
HETATM   20  C           1     -35.164   0.377 -13.823  0.00  0.00     0.252 C 
HETATM   21  O           1     -34.687   1.225 -14.539  0.00  0.00    -0.271 OA
BRANCH  20  22
HETATM   22  C           1     -35.919  -0.782 -14.424  0.00  0.00     0.345 C 
HETATM   23  C           1     -35.658  -0.880 -15.918  0.00  0.00     0.048 C 
HETATM   24  C           1     -36.807  -0.121 -16.571  0.00  0.00     0.033 C 
HETATM   25  C           1     -37.669   0.365 -15.419  0.00  0.00     0.271 C 
HETATM   26  N           1     -37.360  -0.565 -14.336  0.00  0.00     0.097 N 
HETATM   27  H           1     -37.867  -1.438 -14.483  0.00  0.00     0.317 HD
ENDBRANCH  20  22
ENDBRANCH   1  18
TORSDOF 8
ENDMDL
MODEL 5
REMARK VINA RESULT:      -6.8      2.881      4.333
REMARK  8 active torsions:
REMARK  status: ('A' for Active; 'I' for Inactive)
REMARK    1  A    between atoms: C_3  and  O_4 
REMARK    2  A    between atoms: O_4  and  P_6 
REMARK    3  A    between atoms: C_5  and  C_21 
REMARK    4  A    between atoms: C_5  and  C_7 
REMARK    5  A    between atoms: C_5  and  N_18 
REMARK    6  A    between atoms: P_6  and  O_8 
REMARK    7  A    between atoms: C_7  and  C_24 
REMARK       I    between atoms: N_18  and  C_25 
REMARK    8  A    between atoms: C_25  and  C_26 
ROOT
HETATM    1  C           1     -20.499  -8.410  -4.553  0.00  0.00     0.189 C 
ENDROOT
BRANCH   1   2
HETATM    2  C           1     -20.852  -9.819  -4.960  0.00  0.00     0.197 C 
HETATM    3  O           1     -20.271 -10.354  -5.928  0.00  0.00    -0.646 OA
HETATM    4  O           1     -21.727 -10.451  -4.328  0.00  0.00    -0.646 OA
ENDBRANCH   1   2
BRANCH   1   5
HETATM    5  C           1     -19.658  -7.761  -5.644  0.00  0.00     0.070 C 
BRANCH   5   6
HETATM    6  C           1     -20.418  -6.625  -6.254  0.00  0.00    -0.073 A 
HETATM    7  C           1     -19.859  -5.896  -7.304  0.00  0.00     0.027 A 
HETATM    8  C           1     -20.567  -4.838  -7.873  0.00  0.00     0.015 A 
HETATM    9  C           1     -21.834  -4.508  -7.392  0.00  0.00     0.078 A 
HETATM   10  C           1     -22.394  -5.237  -6.342  0.00  0.00     0.037 A 
HETATM   11  C           1     -21.686  -6.296  -5.774  0.00  0.00     0.006 A 
BRANCH   9  12
HETATM   12  O           1     -22.523  -3.480  -7.944  0.00  0.00    -0.248 OA
BRANCH  12  13
HETATM   13  P           1     -23.216  -3.716  -9.383  0.00  0.00     0.411 P 
HETATM   14  O           1     -23.472  -5.161  -9.576  0.00  0.00    -0.624 OA
HETATM   15  O           1     -22.315  -3.227 -10.450  0.00  0.00    -0.624 OA
BRANCH  13  16
HETATM   16  O           1     -24.615  -2.911  -9.445  0.00  0.00    -0.300 OA
HETATM   17  H           1     -24.462  -2.203 -10.047  0.00  0.00     0.223 HD
ENDBRANCH  13  16
ENDBRANCH  12  13
ENDBRANCH   9  12
ENDBRANCH   5   6
ENDBRANCH   1   5
BRANCH   1  18
HETATM   18  N           1     -19.744  -8.439  -3.315  0.00  0.00    -0.344 N 
HETATM   19  H           1     -18.747  -8.613  -3.335  0.00  0.00     0.163 HD
HETATM   20  C           1     -20.379  -8.232  -2.120  0.00  0.00     0.252 C 
HETATM   21  O           1     -19.750  -8.256  -1.090  0.00  0.00    -0.271 OA
BRANCH  20  22
HETATM   22  C           1     -21.865  -7.973  -2.091  0.00  0.00     0.345 C 
HETATM   23  C           1     -22.220  -6.979  -0.999  0.00  0.00     0.048 C 
HETATM   24  C           1     -22.601  -7.833   0.206  0.00  0.00     0.033 C 
HETATM   25  C           1     -22.452  -9.270  -0.264  0.00  0.00     0.271 C 
HETATM   26  N           1     -22.595  -9.180  -1.714  0.00  0.00     0.097 N 
HETATM   27  H           1     -23.584  -9.095  -1.953  0.00  0.00     0.317 HD
ENDBRANCH  20  22
ENDBRANCH   1  18
TORSDOF 8
ENDMDL
MODEL 6
REMARK VINA RESULT:      -6.7      5.251      9.231
REMARK  8 active torsions:
REMARK  status: ('A' for Active; 'I' for Inactive)
REMARK    1  A    between atoms: C_3  and  O_4 
REMARK    2  A    between atoms: O_4  and  P_6 
REMARK    3  A    between atoms: C_5  and  C_21 
REMARK    4  A    between atoms: C_5  and  C_7 
REMARK    5  A    between atoms: C_5  and  N_18 
REMARK    6  A    between atoms: P_6  and  O_8 
REMARK    7  A    between atoms: C_7  and  C_24 
REMARK       I    between atoms: N_18  and  C_25 
REMARK    8  A    between atoms: C_25  and  C_26 
ROOT
HETATM    1  C           1     -20.610  -8.928  -4.919  0.00  0.00     0.189 C 
ENDROOT
BRANCH   1   2
HETATM    2  C           1     -21.176 -10.301  -5.188  0.00  0.00     0.197 C 
HETATM    3  O           1     -21.168 -10.763  -6.350  0.00  0.00    -0.646 OA
HETATM    4  O           1     -21.652 -10.976  -4.250  0.00  0.00    -0.646 OA
ENDBRANCH   1   2
BRANCH   1   5
HETATM    5  C           1     -19.691  -8.986  -3.706  0.00  0.00     0.070 C 
BRANCH   5   6
HETATM    6  C           1     -18.330  -9.442  -4.131  0.00  0.00    -0.073 A 
HETATM    7  C           1     -17.379  -9.786  -3.170  0.00  0.00     0.027 A 
HETATM    8  C           1     -16.111 -10.212  -3.564  0.00  0.00     0.015 A 
HETATM    9  C           1     -15.793 -10.293  -4.920  0.00  0.00     0.078 A 
HETATM   10  C           1     -16.744  -9.950  -5.881  0.00  0.00     0.037 A 
HETATM   11  C           1     -18.012  -9.524  -5.486  0.00  0.00     0.006 A 
BRANCH   9  12
HETATM   12  O           1     -14.561 -10.707  -5.305  0.00  0.00    -0.248 OA
BRANCH  12  13
HETATM   13  P           1     -14.223 -12.282  -5.204  0.00  0.00     0.411 P 
HETATM   14  O           1     -13.585 -12.567  -3.899  0.00  0.00    -0.624 OA
HETATM   15  O           1     -13.300 -12.659  -6.297  0.00  0.00    -0.624 OA
BRANCH  13  16
HETATM   16  O           1     -15.589 -13.135  -5.331  0.00  0.00    -0.300 OA
HETATM   17  H           1     -15.475 -13.663  -6.102  0.00  0.00     0.223 HD
ENDBRANCH  13  16
ENDBRANCH  12  13
ENDBRANCH   9  12
ENDBRANCH   5   6
ENDBRANCH   1   5
BRANCH   1  18
HETATM   18  N           1     -21.695  -8.001  -4.659  0.00  0.00    -0.344 N 
HETATM   19  H           1     -22.499  -8.302  -4.124  0.00  0.00     0.163 HD
HETATM   20  C           1     -21.629  -6.720  -5.137  0.00  0.00     0.252 C 
HETATM   21  O           1     -22.533  -5.948  -4.919  0.00  0.00    -0.271 OA
BRANCH  20  22
HETATM   22  C           1     -20.430  -6.272  -5.934  0.00  0.00     0.345 C 
HETATM   23  C           1     -20.129  -4.805  -5.681  0.00  0.00     0.048 C 
HETATM   24  C           1     -20.838  -4.056  -6.804  0.00  0.00     0.033 C 
HETATM   25  C           1     -21.499  -5.134  -7.645  0.00  0.00     0.271 C 
HETATM   26  N           1     -20.707  -6.329  -7.367  0.00  0.00     0.097 N 
HETATM   27  H           1     -19.841  -6.295  -7.905  0.00  0.00     0.317 HD
ENDBRANCH  20  22
ENDBRANCH   1  18
TORSDOF 8
ENDMDL
MODEL 7
REMARK VINA RESULT:      -6.7      4.819      7.153
REMARK  8 active torsions:
REMARK  status: ('A' for Active; 'I' for Inactive)
REMARK    1  A    between atoms: C_3  and  O_4 
REMARK    2  A    between atoms: O_4  and  P_6 
REMARK    3  A    between atoms: C_5  and  C_21 
REMARK    4  A    between atoms: C_5  and  C_7 
REMARK    5  A    between atoms: C_5  and  N_18 
REMARK    6  A    between atoms: P_6  and  O_8 
REMARK    7  A    between atoms: C_7  and  C_24 
REMARK       I    between atoms: N_18  and  C_25 
REMARK    8  A    between atoms: C_25  and  C_26 
ROOT
HETATM    1  C           1     -21.375  -9.333  -0.550  0.00  0.00     0.189 C 
ENDROOT
BRANCH   1   2
HETATM    2  C           1     -20.908  -9.617   0.857  0.00  0.00     0.197 C 
HETATM    3  O           1     -20.929  -8.712   1.717  0.00  0.00    -0.646 OA
HETATM    4  O           1     -20.499 -10.759   1.160  0.00  0.00    -0.646 OA
ENDBRANCH   1   2
BRANCH   1   5
HETATM    5  C           1     -21.274  -7.839  -0.827  0.00  0.00     0.070 C 
BRANCH   5   6
HETATM    6  C           1     -21.219  -7.606  -2.304  0.00  0.00    -0.073 A 
HETATM    7  C           1     -22.026  -6.627  -2.886  0.00  0.00     0.027 A 
HETATM    8  C           1     -21.975  -6.409  -4.263  0.00  0.00     0.015 A 
HETATM    9  C           1     -21.118  -7.170  -5.058  0.00  0.00     0.078 A 
HETATM   10  C           1     -20.311  -8.148  -4.476  0.00  0.00     0.037 A 
HETATM   11  C           1     -20.362  -8.366  -3.100  0.00  0.00     0.006 A 
BRANCH   9  12
HETATM   12  O           1     -21.068  -6.959  -6.396  0.00  0.00    -0.248 OA
BRANCH  12  13
HETATM   13  P           1     -20.723  -5.471  -6.918  0.00  0.00     0.411 P 
HETATM   14  O           1     -21.978  -4.702  -7.081  0.00  0.00    -0.624 OA
HETATM   15  O           1     -20.022  -5.554  -8.218  0.00  0.00    -0.624 OA
BRANCH  13  16
HETATM   16  O           1     -19.775  -4.729  -5.840  0.00  0.00    -0.300 OA
HETATM   17  H           1     -19.153  -5.383  -5.573  0.00  0.00     0.223 HD
ENDBRANCH  13  16
ENDBRANCH  12  13
ENDBRANCH   9  12
ENDBRANCH   5   6
ENDBRANCH   1   5
BRANCH   1  18
HETATM   18  N           1     -22.754  -9.758  -0.696  0.00  0.00    -0.344 N 
HETATM   19  H           1     -23.498  -9.216  -0.275  0.00  0.00     0.163 HD
HETATM   20  C           1     -23.049 -10.893  -1.403  0.00  0.00     0.252 C 
HETATM   21  O           1     -24.198 -11.246  -1.525  0.00  0.00    -0.271 OA
BRANCH  20  22
HETATM   22  C           1     -21.940 -11.700  -2.030  0.00  0.00     0.345 C 
HETATM   23  C           1     -22.459 -12.510  -3.206  0.00  0.00     0.048 C 
HETATM   24  C           1     -22.789 -13.881  -2.629  0.00  0.00     0.033 C 
HETATM   25  C           1     -22.434 -13.788  -1.155  0.00  0.00     0.271 C 
HETATM   26  N           1     -21.446 -12.713  -1.101  0.00  0.00     0.097 N 
HETATM   27  H           1     -20.539 -13.070  -1.404  0.00  0.00     0.317 HD
ENDBRANCH  20  22
ENDBRANCH   1  18
TORSDOF 8
ENDMDL
MODEL 8
REMARK VINA RESULT:      -6.5      2.612      4.359
REMARK  8 active torsions:
REMARK  status: ('A' for Active; 'I' for Inactive)
REMARK    1  A    between atoms: C_3  and  O_4 
REMARK    2  A    between atoms: O_4  and  P_6 
REMARK    3  A    between atoms: C_5  and  C_21 
REMARK    4  A    between atoms: C_5  and  C_7 
REMARK    5  A    between atoms: C_5  and  N_18 
REMARK    6  A    between atoms: P_6  and  O_8 
REMARK    7  A    between atoms: C_7  and  C_24 
REMARK       I    between atoms: N_18  and  C_25 
REMARK    8  A    between atoms: C_25  and  C_26 
ROOT
HETATM    1  C           1     -20.802  -7.911  -4.238  0.00  0.00     0.189 C 
ENDROOT
BRANCH   1   2
HETATM    2  C           1     -20.763  -7.713  -2.743  0.00  0.00     0.197 C 
HETATM    3  O           1     -20.208  -8.564  -2.014  0.00  0.00    -0.646 OA
HETATM    4  O           1     -21.286  -6.699  -2.233  0.00  0.00    -0.646 OA
ENDBRANCH   1   2
BRANCH   1   5
HETATM    5  C           1     -22.013  -7.191  -4.816  0.00  0.00     0.070 C 
BRANCH   5   6
HETATM    6  C           1     -21.571  -6.254  -5.896  0.00  0.00    -0.073 A 
HETATM    7  C           1     -22.425  -5.241  -6.332  0.00  0.00     0.027 A 
HETATM    8  C           1     -22.014  -4.367  -7.339  0.00  0.00     0.015 A 
HETATM    9  C           1     -20.749  -4.507  -7.909  0.00  0.00     0.078 A 
HETATM   10  C           1     -19.894  -5.519  -7.472  0.00  0.00     0.037 A 
HETATM   11  C           1     -20.306  -6.393  -6.466  0.00  0.00     0.006 A 
BRANCH   9  12
HETATM   12  O           1     -20.348  -3.658  -8.887  0.00  0.00    -0.248 OA
BRANCH  12  13
HETATM   13  P           1     -20.672  -4.056 -10.418  0.00  0.00     0.411 P 
HETATM   14  O           1     -19.701  -5.075 -10.878  0.00  0.00    -0.624 OA
HETATM   15  O           1     -20.567  -2.853 -11.273  0.00  0.00    -0.624 OA
BRANCH  13  16
HETATM   16  O           1     -22.167  -4.659 -10.512  0.00  0.00    -0.300 OA
HETATM   17  H           1     -22.412  -4.841  -9.622  0.00  0.00     0.223 HD
ENDBRANCH  13  16
ENDBRANCH  12  13
ENDBRANCH   9  12
ENDBRANCH   5   6
ENDBRANCH   1   5
BRANCH   1  18
HETATM   18  N           1     -20.895  -9.327  -4.536  0.00  0.00    -0.344 N 
HETATM   19  H           1     -21.782  -9.806  -4.443  0.00  0.00     0.163 HD
HETATM   20  C           1     -19.784 -10.016  -4.942  0.00  0.00     0.252 C 
HETATM   21  O           1     -19.863 -11.196  -5.191  0.00  0.00    -0.271 OA
BRANCH  20  22
HETATM   22  C           1     -18.462  -9.302  -5.080  0.00  0.00     0.345 C 
HETATM   23  C           1     -17.541 -10.048  -6.030  0.00  0.00     0.048 C 
HETATM   24  C           1     -16.682 -10.934  -5.135  0.00  0.00     0.033 C 
HETATM   25  C           1     -17.150 -10.642  -3.720  0.00  0.00     0.271 C 
HETATM   26  N           1     -17.735  -9.307  -3.814  0.00  0.00     0.097 N 
HETATM   27  H           1     -16.990  -8.610  -3.822  0.00  0.00     0.317 HD
ENDBRANCH  20  22
ENDBRANCH   1  18
TORSDOF 8
ENDMDL
MODEL 9
REMARK VINA RESULT:      -6.4      6.179     10.248
REMARK  8 active torsions:
REMARK  status: ('A' for Active; 'I' for Inactive)
REMARK    1  A    between atoms: C_3  and  O_4 
REMARK    2  A    between atoms: O_4  and  P_6 
REMARK    3  A    between atoms: C_5  and  C_21 
REMARK    4  A    between atoms: C_5  and  C_7 
REMARK    5  A    between atoms: C_5  and  N_18 
REMARK    6  A    between atoms: P_6  and  O_8 
REMARK    7  A    between atoms: C_7  and  C_24 
REMARK       I    between atoms: N_18  and  C_25 
REMARK    8  A    between atoms: C_25  and  C_26 
ROOT
HETATM    1  C           1     -20.141  -8.457  -4.203  0.00  0.00     0.189 C 
ENDROOT
BRANCH   1   2
HETATM    2  C           1     -20.676  -7.341  -5.065  0.00  0.00     0.197 C 
HETATM    3  O           1     -20.570  -7.405  -6.308  0.00  0.00    -0.646 OA
HETATM    4  O           1     -21.226  -6.351  -4.535  0.00  0.00    -0.646 OA
ENDBRANCH   1   2
BRANCH   1   5
HETATM    5  C           1     -19.135  -9.278  -5.000  0.00  0.00     0.070 C 
BRANCH   5   6
HETATM    6  C           1     -18.286 -10.078  -4.062  0.00  0.00    -0.073 A 
HETATM    7  C           1     -17.400  -9.431  -3.200  0.00  0.00     0.027 A 
HETATM    8  C           1     -16.609 -10.175  -2.325  0.00  0.00     0.015 A 
HETATM    9  C           1     -16.703 -11.566  -2.312  0.00  0.00     0.078 A 
HETATM   10  C           1     -17.590 -12.214  -3.173  0.00  0.00     0.037 A 
HETATM   11  C           1     -18.381 -11.469  -4.048  0.00  0.00     0.006 A 
BRANCH   9  12
HETATM   12  O           1     -15.935 -12.291  -1.463  0.00  0.00    -0.248 OA
BRANCH  12  13
HETATM   13  P           1     -16.488 -12.544   0.033  0.00  0.00     0.411 P 
HETATM   14  O           1     -16.304 -13.968   0.393  0.00  0.00    -0.624 OA
HETATM   15  O           1     -17.927 -12.203   0.091  0.00  0.00    -0.624 OA
BRANCH  13  16
HETATM   16  O           1     -15.670 -11.617   1.073  0.00  0.00    -0.300 OA
HETATM   17  H           1     -15.708 -12.080   1.892  0.00  0.00     0.223 HD
ENDBRANCH  13  16
ENDBRANCH  12  13
ENDBRANCH   9  12
ENDBRANCH   5   6
ENDBRANCH   1   5
BRANCH   1  18
HETATM   18  N           1     -21.235  -9.311  -3.783  0.00  0.00    -0.344 N 
HETATM   19  H           1     -21.749  -9.848  -4.469  0.00  0.00     0.163 HD
HETATM   20  C           1     -21.573  -9.389  -2.458  0.00  0.00     0.252 C 
HETATM   21  O           1     -22.484 -10.101  -2.109  0.00  0.00    -0.271 OA
BRANCH  20  22
HETATM   22  C           1     -20.806  -8.588  -1.436  0.00  0.00     0.345 C 
HETATM   23  C           1     -21.253  -8.939  -0.027  0.00  0.00     0.048 C 
HETATM   24  C           1     -22.312  -7.900   0.324  0.00  0.00     0.033 C 
HETATM   25  C           1     -22.409  -7.004  -0.899  0.00  0.00     0.271 C 
HETATM   26  N           1     -21.113  -7.166  -1.554  0.00  0.00     0.097 N 
HETATM   27  H           1     -20.415  -6.603  -1.068  0.00  0.00     0.317 HD
ENDBRANCH  20  22
ENDBRANCH   1  18
TORSDOF 8
ENDMDL
