MODEL 1
REMARK VINA RESULT:      -5.1      0.000      0.000
REMARK  6 active torsions:
REMARK  status: ('A' for Active; 'I' for Inactive)
REMARK    1  A    between atoms: N_1  and  C_3 
REMARK    2  A    between atoms: C_3  and  C_11 
REMARK    3  A    between atoms: S_4  and  C_5 
REMARK    4  A    between atoms: C_5  and  C_6 
REMARK    5  A    between atoms: C_6  and  C_7 
REMARK    6  A    between atoms: C_6  and  N_10 
REMARK       I    between atoms: N_10  and  C_11 
ROOT
HETATM    1  N           1     -35.073  -1.195 -12.307  0.00  0.00    -0.344 N 
HETATM    2  C           1     -34.392  -2.381 -12.365  0.00  0.00     0.248 C 
HETATM    3  O           1     -34.473  -3.077 -13.350  0.00  0.00    -0.271 OA
HETATM    4  H           1     -35.004  -0.612 -11.482  0.00  0.00     0.163 HD
ENDROOT
BRANCH   1   5
HETATM    5  C           1     -35.893  -0.775 -13.426  0.00  0.00     0.194 C 
BRANCH   5   6
HETATM    6  C           1     -37.164  -0.118 -12.906  0.00  0.00     0.106 C 
BRANCH   6   7
HETATM    7  S           1     -37.132  -0.086 -11.091  0.00  0.00    -0.180 SA
HETATM    8  H           1     -38.396  -0.514 -10.922  0.00  0.00     0.101 HD
ENDBRANCH   6   7
ENDBRANCH   5   6
BRANCH   5   9
HETATM    9  C           1     -35.124   0.214 -14.269  0.00  0.00     0.197 C 
HETATM   10  O           1     -34.770  -0.094 -15.427  0.00  0.00    -0.646 OA
HETATM   11  O           1     -34.840   1.340 -13.807  0.00  0.00    -0.646 OA
ENDBRANCH   5   9
ENDBRANCH   1   5
BRANCH   2  12
HETATM   12  C           1     -33.539  -2.818 -11.200  0.00  0.00     0.270 C 
HETATM   13  C           1     -34.026  -4.169 -10.692  0.00  0.00     0.050 C 
BRANCH  12  14
HETATM   14  N           1     -33.640  -1.805 -10.098  0.00  0.00    -0.067 N 
HETATM   15  H           1     -34.101  -2.239  -9.267  0.00  0.00     0.275 HD
HETATM   16  H           1     -32.682  -1.481  -9.835  0.00  0.00     0.275 HD
HETATM   17  H           1     -34.207  -0.991 -10.426  0.00  0.00     0.275 HD
ENDBRANCH  12  14
ENDBRANCH   2  12
TORSDOF 6
ENDMDL
MODEL 2
REMARK VINA RESULT:      -5.1      2.531      2.862
REMARK  6 active torsions:
REMARK  status: ('A' for Active; 'I' for Inactive)
REMARK    1  A    between atoms: N_1  and  C_3 
REMARK    2  A    between atoms: C_3  and  C_11 
REMARK    3  A    between atoms: S_4  and  C_5 
REMARK    4  A    between atoms: C_5  and  C_6 
REMARK    5  A    between atoms: C_6  and  C_7 
REMARK    6  A    between atoms: C_6  and  N_10 
REMARK       I    between atoms: N_10  and  C_11 
ROOT
HETATM    1  N           1     -34.945  -1.537 -13.023  0.00  0.00    -0.344 N 
HETATM    2  C           1     -34.242  -2.336 -12.163  0.00  0.00     0.248 C 
HETATM    3  O           1     -33.824  -1.884 -11.123  0.00  0.00    -0.271 OA
HETATM    4  H           1     -35.297  -1.916 -13.893  0.00  0.00     0.163 HD
ENDROOT
BRANCH   1   5
HETATM    5  C           1     -35.187  -0.147 -12.688  0.00  0.00     0.194 C 
BRANCH   5   6
HETATM    6  C           1     -35.360   0.661 -13.967  0.00  0.00     0.106 C 
BRANCH   6   7
HETATM    7  S           1     -35.658  -0.463 -15.360  0.00  0.00    -0.180 SA
HETATM    8  H           1     -34.698  -1.347 -15.034  0.00  0.00     0.101 HD
ENDBRANCH   6   7
ENDBRANCH   5   6
BRANCH   5   9
HETATM    9  C           1     -36.440  -0.042 -11.852  0.00  0.00     0.197 C 
HETATM   10  O           1     -37.530  -0.451 -12.306  0.00  0.00    -0.646 OA
HETATM   11  O           1     -36.386   0.456 -10.707  0.00  0.00    -0.646 OA
ENDBRANCH   5   9
ENDBRANCH   1   5
BRANCH   2  12
HETATM   12  C           1     -33.992  -3.782 -12.512  0.00  0.00     0.270 C 
HETATM   13  C           1     -32.680  -4.237 -11.885  0.00  0.00     0.050 C 
BRANCH  12  14
HETATM   14  N           1     -33.909  -3.930 -14.003  0.00  0.00    -0.067 N 
HETATM   15  H           1     -34.606  -4.640 -14.322  0.00  0.00     0.275 HD
HETATM   16  H           1     -34.115  -3.010 -14.455  0.00  0.00     0.275 HD
HETATM   17  H           1     -32.947  -4.241 -14.268  0.00  0.00     0.275 HD
ENDBRANCH  12  14
ENDBRANCH   2  12
TORSDOF 6
ENDMDL
MODEL 3
REMARK VINA RESULT:      -5.1     12.491     13.812
REMARK  6 active torsions:
REMARK  status: ('A' for Active; 'I' for Inactive)
REMARK    1  A    between atoms: N_1  and  C_3 
REMARK    2  A    between atoms: C_3  and  C_11 
REMARK    3  A    between atoms: S_4  and  C_5 
REMARK    4  A    between atoms: C_5  and  C_6 
REMARK    5  A    between atoms: C_6  and  C_7 
REMARK    6  A    between atoms: C_6  and  N_10 
REMARK       I    between atoms: N_10  and  C_11 
ROOT
HETATM    1  N           1     -22.423  -4.714  -8.414  0.00  0.00    -0.344 N 
HETATM    2  C           1     -21.706  -4.309  -7.321  0.00  0.00     0.248 C 
HETATM    3  O           1     -21.383  -3.150  -7.206  0.00  0.00    -0.271 OA
HETATM    4  H           1     -22.695  -5.685  -8.510  0.00  0.00     0.163 HD
ENDROOT
BRANCH   1   5
HETATM    5  C           1     -22.795  -3.754  -9.435  0.00  0.00     0.194 C 
BRANCH   5   6
HETATM    6  C           1     -22.063  -4.081 -10.730  0.00  0.00     0.106 C 
BRANCH   6   7
HETATM    7  S           1     -22.479  -2.842 -11.990  0.00  0.00    -0.180 SA
HETATM    8  H           1     -21.675  -3.341 -12.947  0.00  0.00     0.101 HD
ENDBRANCH   6   7
ENDBRANCH   5   6
BRANCH   5   9
HETATM    9  C           1     -24.285  -3.819  -9.667  0.00  0.00     0.197 C 
HETATM   10  O           1     -24.818  -4.896 -10.007  0.00  0.00    -0.646 OA
HETATM   11  O           1     -24.985  -2.793  -9.520  0.00  0.00    -0.646 OA
ENDBRANCH   5   9
ENDBRANCH   1   5
BRANCH   2  12
HETATM   12  C           1     -21.320  -5.309  -6.259  0.00  0.00     0.270 C 
HETATM   13  C           1     -20.168  -4.753  -5.432  0.00  0.00     0.050 C 
BRANCH  12  14
HETATM   14  N           1     -20.893  -6.591  -6.911  0.00  0.00    -0.067 N 
HETATM   15  H           1     -20.286  -6.378  -7.735  0.00  0.00     0.275 HD
HETATM   16  H           1     -20.358  -7.169  -6.224  0.00  0.00     0.275 HD
HETATM   17  H           1     -21.738  -7.118  -7.228  0.00  0.00     0.275 HD
ENDBRANCH  12  14
ENDBRANCH   2  12
TORSDOF 6
ENDMDL
MODEL 4
REMARK VINA RESULT:      -4.9     11.483     12.546
REMARK  6 active torsions:
REMARK  status: ('A' for Active; 'I' for Inactive)
REMARK    1  A    between atoms: N_1  and  C_3 
REMARK    2  A    between atoms: C_3  and  C_11 
REMARK    3  A    between atoms: S_4  and  C_5 
REMARK    4  A    between atoms: C_5  and  C_6 
REMARK    5  A    between atoms: C_6  and  C_7 
REMARK    6  A    between atoms: C_6  and  N_10 
REMARK       I    between atoms: N_10  and  C_11 
ROOT
HETATM    1  N           1     -23.069  -3.236 -11.842  0.00  0.00    -0.344 N 
HETATM    2  C           1     -23.560  -3.197 -13.119  0.00  0.00     0.248 C 
HETATM    3  O           1     -24.432  -3.963 -13.455  0.00  0.00    -0.271 OA
HETATM    4  H           1     -22.340  -2.594 -11.560  0.00  0.00     0.163 HD
ENDROOT
BRANCH   1   5
HETATM    5  C           1     -23.595  -4.198 -10.893  0.00  0.00     0.194 C 
BRANCH   5   6
HETATM    6  C           1     -22.445  -4.823 -10.114  0.00  0.00     0.106 C 
BRANCH   6   7
HETATM    7  S           1     -20.880  -4.059 -10.625  0.00  0.00    -0.180 SA
HETATM    8  H           1     -20.596  -4.953 -11.590  0.00  0.00     0.101 HD
ENDBRANCH   6   7
ENDBRANCH   5   6
BRANCH   5   9
HETATM    9  C           1     -24.530  -3.500  -9.935  0.00  0.00     0.197 C 
HETATM   10  O           1     -24.156  -3.246  -8.770  0.00  0.00    -0.646 OA
HETATM   11  O           1     -25.678  -3.176 -10.308  0.00  0.00    -0.646 OA
ENDBRANCH   5   9
ENDBRANCH   1   5
BRANCH   2  12
HETATM   12  C           1     -23.013  -2.196 -14.106  0.00  0.00     0.270 C 
HETATM   13  C           1     -24.152  -1.341 -14.648  0.00  0.00     0.050 C 
BRANCH  12  14
HETATM   14  N           1     -22.352  -2.922 -15.240  0.00  0.00    -0.067 N 
HETATM   15  H           1     -21.337  -2.674 -15.269  0.00  0.00     0.275 HD
HETATM   16  H           1     -22.456  -3.953 -15.101  0.00  0.00     0.275 HD
HETATM   17  H           1     -22.803  -2.644 -16.141  0.00  0.00     0.275 HD
ENDBRANCH  12  14
ENDBRANCH   2  12
TORSDOF 6
ENDMDL
MODEL 5
REMARK VINA RESULT:      -4.9      3.060      4.685
REMARK  6 active torsions:
REMARK  status: ('A' for Active; 'I' for Inactive)
REMARK    1  A    between atoms: N_1  and  C_3 
REMARK    2  A    between atoms: C_3  and  C_11 
REMARK    3  A    between atoms: S_4  and  C_5 
REMARK    4  A    between atoms: C_5  and  C_6 
REMARK    5  A    between atoms: C_6  and  C_7 
REMARK    6  A    between atoms: C_6  and  N_10 
REMARK       I    between atoms: N_10  and  C_11 
ROOT
HETATM    1  N           1     -36.188  -0.283 -12.404  0.00  0.00    -0.344 N 
HETATM    2  C           1     -36.829  -0.275 -13.613  0.00  0.00     0.248 C 
HETATM    3  O           1     -37.953  -0.709 -13.705  0.00  0.00    -0.271 OA
HETATM    4  H           1     -35.247   0.081 -12.327  0.00  0.00     0.163 HD
ENDROOT
BRANCH   1   5
HETATM    5  C           1     -36.858  -0.812 -11.232  0.00  0.00     0.194 C 
BRANCH   5   6
HETATM    6  C           1     -36.013  -1.923 -10.623  0.00  0.00     0.106 C 
BRANCH   6   7
HETATM    7  S           1     -34.406  -1.994 -11.463  0.00  0.00    -0.180 SA
HETATM    8  H           1     -34.563  -0.855 -12.162  0.00  0.00     0.101 HD
ENDBRANCH   6   7
ENDBRANCH   5   6
BRANCH   5   9
HETATM    9  C           1     -37.045   0.291 -10.219  0.00  0.00     0.197 C 
HETATM   10  O           1     -38.072   1.002 -10.252  0.00  0.00    -0.646 OA
HETATM   11  O           1     -36.173   0.493  -9.347  0.00  0.00    -0.646 OA
ENDBRANCH   5   9
ENDBRANCH   1   5
BRANCH   2  12
HETATM   12  C           1     -36.131   0.276 -14.832  0.00  0.00     0.270 C 
HETATM   13  C           1     -34.964   1.153 -14.397  0.00  0.00     0.050 C 
BRANCH  12  14
HETATM   14  N           1     -37.098   1.095 -15.635  0.00  0.00    -0.067 N 
HETATM   15  H           1     -36.822   1.073 -16.642  0.00  0.00     0.275 HD
HETATM   16  H           1     -38.060   0.700 -15.528  0.00  0.00     0.275 HD
HETATM   17  H           1     -37.086   2.083 -15.292  0.00  0.00     0.275 HD
ENDBRANCH  12  14
ENDBRANCH   2  12
TORSDOF 6
ENDMDL
MODEL 6
REMARK VINA RESULT:      -4.5     12.773     13.936
REMARK  6 active torsions:
REMARK  status: ('A' for Active; 'I' for Inactive)
REMARK    1  A    between atoms: N_1  and  C_3 
REMARK    2  A    between atoms: C_3  and  C_11 
REMARK    3  A    between atoms: S_4  and  C_5 
REMARK    4  A    between atoms: C_5  and  C_6 
REMARK    5  A    between atoms: C_6  and  C_7 
REMARK    6  A    between atoms: C_6  and  N_10 
REMARK       I    between atoms: N_10  and  C_11 
ROOT
HETATM    1  N           1     -21.885  -3.987  -9.643  0.00  0.00    -0.344 N 
HETATM    2  C           1     -20.655  -4.336  -9.155  0.00  0.00     0.248 C 
HETATM    3  O           1     -19.900  -4.992  -9.832  0.00  0.00    -0.271 OA
HETATM    4  H           1     -22.518  -3.436  -9.076  0.00  0.00     0.163 HD
ENDROOT
BRANCH   1   5
HETATM    5  C           1     -22.283  -4.405 -10.973  0.00  0.00     0.194 C 
BRANCH   5   6
HETATM    6  C           1     -23.758  -4.781 -10.968  0.00  0.00     0.106 C 
BRANCH   6   7
HETATM    7  S           1     -24.677  -3.619  -9.919  0.00  0.00    -0.180 SA
HETATM    8  H           1     -25.356  -3.032 -10.922  0.00  0.00     0.101 HD
ENDBRANCH   6   7
ENDBRANCH   5   6
BRANCH   5   9
HETATM    9  C           1     -22.054  -3.273 -11.945  0.00  0.00     0.197 C 
HETATM   10  O           1     -21.327  -2.310 -11.623  0.00  0.00    -0.646 OA
HETATM   11  O           1     -22.594  -3.299 -13.073  0.00  0.00    -0.646 OA
ENDBRANCH   5   9
ENDBRANCH   1   5
BRANCH   2  12
HETATM   12  C           1     -20.243  -3.901  -7.770  0.00  0.00     0.270 C 
HETATM   13  C           1     -19.654  -5.087  -7.018  0.00  0.00     0.050 C 
BRANCH  12  14
HETATM   14  N           1     -21.442  -3.386  -7.030  0.00  0.00    -0.067 N 
HETATM   15  H           1     -22.144  -4.153  -6.927  0.00  0.00     0.275 HD
HETATM   16  H           1     -21.149  -3.051  -6.084  0.00  0.00     0.275 HD
HETATM   17  H           1     -21.866  -2.594  -7.564  0.00  0.00     0.275 HD
ENDBRANCH  12  14
ENDBRANCH   2  12
TORSDOF 6
ENDMDL
MODEL 7
REMARK VINA RESULT:      -4.4     24.841     25.492
REMARK  6 active torsions:
REMARK  status: ('A' for Active; 'I' for Inactive)
REMARK    1  A    between atoms: N_1  and  C_3 
REMARK    2  A    between atoms: C_3  and  C_11 
REMARK    3  A    between atoms: S_4  and  C_5 
REMARK    4  A    between atoms: C_5  and  C_6 
REMARK    5  A    between atoms: C_6  and  C_7 
REMARK    6  A    between atoms: C_6  and  N_10 
REMARK       I    between atoms: N_10  and  C_11 
ROOT
HETATM    1  N           1     -11.495   4.893 -20.763  0.00  0.00    -0.344 N 
HETATM    2  C           1     -11.454   5.976 -19.926  0.00  0.00     0.248 C 
HETATM    3  O           1     -12.480   6.447 -19.496  0.00  0.00    -0.271 OA
HETATM    4  H           1     -10.635   4.498 -21.122  0.00  0.00     0.163 HD
ENDROOT
BRANCH   1   5
HETATM    5  C           1     -12.770   4.312 -21.134  0.00  0.00     0.194 C 
BRANCH   5   6
HETATM    6  C           1     -13.157   4.784 -22.529  0.00  0.00     0.106 C 
BRANCH   6   7
HETATM    7  S           1     -14.876   5.364 -22.518  0.00  0.00    -0.180 SA
HETATM    8  H           1     -14.582   6.676 -22.566  0.00  0.00     0.101 HD
ENDBRANCH   6   7
ENDBRANCH   5   6
BRANCH   5   9
HETATM    9  C           1     -12.658   2.806 -21.124  0.00  0.00     0.197 C 
HETATM   10  O           1     -11.557   2.263 -20.894  0.00  0.00    -0.646 OA
HETATM   11  O           1     -13.668   2.104 -21.348  0.00  0.00    -0.646 OA
ENDBRANCH   5   9
ENDBRANCH   1   5
BRANCH   2  12
HETATM   12  C           1     -10.126   6.580 -19.540  0.00  0.00     0.270 C 
HETATM   13  C           1      -9.361   6.969 -20.798  0.00  0.00     0.050 C 
BRANCH  12  14
HETATM   14  N           1      -9.328   5.577 -18.760  0.00  0.00    -0.067 N 
HETATM   15  H           1      -9.533   4.616 -19.115  0.00  0.00     0.275 HD
HETATM   16  H           1      -8.309   5.781 -18.873  0.00  0.00     0.275 HD
HETATM   17  H           1      -9.586   5.638 -17.749  0.00  0.00     0.275 HD
ENDBRANCH  12  14
ENDBRANCH   2  12
TORSDOF 6
ENDMDL
MODEL 8
REMARK VINA RESULT:      -4.4      1.980      4.303
REMARK  6 active torsions:
REMARK  status: ('A' for Active; 'I' for Inactive)
REMARK    1  A    between atoms: N_1  and  C_3 
REMARK    2  A    between atoms: C_3  and  C_11 
REMARK    3  A    between atoms: S_4  and  C_5 
REMARK    4  A    between atoms: C_5  and  C_6 
REMARK    5  A    between atoms: C_6  and  C_7 
REMARK    6  A    between atoms: C_6  and  N_10 
REMARK       I    between atoms: N_10  and  C_11 
ROOT
HETATM    1  N           1     -35.413  -1.131 -13.270  0.00  0.00    -0.344 N 
HETATM    2  C           1     -35.326  -0.034 -14.084  0.00  0.00     0.248 C 
HETATM    3  O           1     -34.999   1.035 -13.626  0.00  0.00    -0.271 OA
HETATM    4  H           1     -35.686  -2.027 -13.654  0.00  0.00     0.163 HD
ENDROOT
BRANCH   1   5
HETATM    5  C           1     -35.113  -1.010 -11.857  0.00  0.00     0.194 C 
BRANCH   5   6
HETATM    6  C           1     -36.366  -1.308 -11.044  0.00  0.00     0.106 C 
BRANCH   6   7
HETATM    7  S           1     -37.031   0.238 -10.365  0.00  0.00    -0.180 SA
HETATM    8  H           1     -38.175  -0.294  -9.899  0.00  0.00     0.101 HD
ENDBRANCH   6   7
ENDBRANCH   5   6
BRANCH   5   9
HETATM    9  C           1     -34.028  -1.993 -11.487  0.00  0.00     0.197 C 
HETATM   10  O           1     -33.296  -1.772 -10.499  0.00  0.00    -0.646 OA
HETATM   11  O           1     -33.862  -3.026 -12.171  0.00  0.00    -0.646 OA
ENDBRANCH   5   9
ENDBRANCH   1   5
BRANCH   2  12
HETATM   12  C           1     -35.639  -0.161 -15.555  0.00  0.00     0.270 C 
HETATM   13  C           1     -37.148  -0.201 -15.753  0.00  0.00     0.050 C 
BRANCH  12  14
HETATM   14  N           1     -35.033  -1.426 -16.088  0.00  0.00    -0.067 N 
HETATM   15  H           1     -35.339  -1.570 -17.077  0.00  0.00     0.275 HD
HETATM   16  H           1     -33.990  -1.354 -16.052  0.00  0.00     0.275 HD
HETATM   17  H           1     -35.347  -2.234 -15.505  0.00  0.00     0.275 HD
ENDBRANCH  12  14
ENDBRANCH   2  12
TORSDOF 6
ENDMDL
MODEL 9
REMARK VINA RESULT:      -4.2     24.992     25.716
REMARK  6 active torsions:
REMARK  status: ('A' for Active; 'I' for Inactive)
REMARK    1  A    between atoms: N_1  and  C_3 
REMARK    2  A    between atoms: C_3  and  C_11 
REMARK    3  A    between atoms: S_4  and  C_5 
REMARK    4  A    between atoms: C_5  and  C_6 
REMARK    5  A    between atoms: C_6  and  C_7 
REMARK    6  A    between atoms: C_6  and  N_10 
REMARK       I    between atoms: N_10  and  C_11 
ROOT
HETATM    1  N           1     -11.773   6.826 -20.712  0.00  0.00    -0.344 N 
HETATM    2  C           1     -11.876   7.910 -19.883  0.00  0.00     0.248 C 
HETATM    3  O           1     -12.869   8.068 -19.214  0.00  0.00    -0.271 OA
HETATM    4  H           1     -10.941   6.694 -21.273  0.00  0.00     0.163 HD
ENDROOT
BRANCH   1   5
HETATM    5  C           1     -12.858   5.867 -20.788  0.00  0.00     0.194 C 
BRANCH   5   6
HETATM    6  C           1     -13.125   5.516 -22.246  0.00  0.00     0.106 C 
BRANCH   6   7
HETATM    7  S           1     -14.909   5.299 -22.500  0.00  0.00    -0.180 SA
HETATM    8  H           1     -15.021   4.182 -21.758  0.00  0.00     0.101 HD
ENDBRANCH   6   7
ENDBRANCH   5   6
BRANCH   5   9
HETATM    9  C           1     -12.477   4.617 -20.032  0.00  0.00     0.197 C 
HETATM   10  O           1     -12.274   4.670 -18.800  0.00  0.00    -0.646 OA
HETATM   11  O           1     -12.364   3.530 -20.638  0.00  0.00    -0.646 OA
ENDBRANCH   5   9
ENDBRANCH   1   5
BRANCH   2  12
HETATM   12  C           1     -10.747   8.909 -19.805  0.00  0.00     0.270 C 
HETATM   13  C           1      -9.648   8.511 -20.782  0.00  0.00     0.050 C 
BRANCH  12  14
HETATM   14  N           1     -10.192   8.928 -18.411  0.00  0.00    -0.067 N 
HETATM   15  H           1     -10.901   8.541 -17.748  0.00  0.00     0.275 HD
HETATM   16  H           1      -9.325   8.346 -18.374  0.00  0.00     0.275 HD
HETATM   17  H           1      -9.964   9.912 -18.142  0.00  0.00     0.275 HD
ENDBRANCH  12  14
ENDBRANCH   2  12
TORSDOF 6
ENDMDL
