MODEL 1
REMARK VINA RESULT:      -5.9      0.000      0.000
REMARK  6 active torsions:
REMARK  status: ('A' for Active; 'I' for Inactive)
REMARK    1  A    between atoms: C_1  and  C_4 
REMARK    2  A    between atoms: C_1  and  C_9 
REMARK       I    between atoms: N_2  and  C_3 
REMARK    3  A    between atoms: C_3  and  C_4 
REMARK    4  A    between atoms: C_4  and  N_15 
REMARK    5  A    between atoms: C_9  and  S_14 
REMARK    6  A    between atoms: C_16  and  C_18 
ROOT
HETATM    1  N           1     -35.830  -0.981 -13.289  0.00  0.00    -0.336 N 
HETATM    2  C           1     -34.971  -1.971 -12.898  0.00  0.00     0.251 C 
HETATM    3  C           1     -37.898   0.094 -13.025  0.00  0.00     0.022 C 
HETATM    4  C           1     -36.500   0.002 -12.440  0.00  0.00     0.127 C 
HETATM    5  O           1     -34.492  -2.715 -13.721  0.00  0.00    -0.271 OA
HETATM    6  C           1     -37.755  -0.357 -14.474  0.00  0.00     0.038 C 
HETATM    7  C           1     -36.279  -0.676 -14.645  0.00  0.00     0.188 C 
ENDROOT
BRANCH   2   8
HETATM    8  C           1     -34.621  -2.134 -11.439  0.00  0.00     0.275 C 
BRANCH   8   9
HETATM    9  C           1     -33.470  -3.123 -11.300  0.00  0.00     0.053 C 
BRANCH   9  10
HETATM   10  C           1     -33.914  -4.301 -10.443  0.00  0.00     0.076 C 
BRANCH  10  11
HETATM   11  S           1     -34.353  -5.699 -11.513  0.00  0.00    -0.173 SA
HETATM   12  C           1     -34.641  -6.893 -10.177  0.00  0.00     0.089 C 
ENDBRANCH  10  11
ENDBRANCH   9  10
ENDBRANCH   8   9
BRANCH   8  13
HETATM   13  N           1     -35.815  -2.650 -10.694  0.00  0.00    -0.066 N 
HETATM   14  H           1     -36.203  -1.892 -10.088  0.00  0.00     0.275 HD
HETATM   15  H           1     -36.545  -2.957 -11.376  0.00  0.00     0.275 HD
HETATM   16  H           1     -35.532  -3.460 -10.098  0.00  0.00     0.275 HD
ENDBRANCH   8  13
ENDBRANCH   2   8
BRANCH   7  17
HETATM   17  C           1     -35.534   0.510 -15.203  0.00  0.00     0.196 C 
HETATM   18  O           1     -34.317   0.657 -14.956  0.00  0.00    -0.646 OA
HETATM   19  O           1     -36.132   1.346 -15.914  0.00  0.00    -0.646 OA
ENDBRANCH   7  17
TORSDOF 6
ENDMDL
MODEL 2
REMARK VINA RESULT:      -5.8      2.147      2.922
REMARK  6 active torsions:
REMARK  status: ('A' for Active; 'I' for Inactive)
REMARK    1  A    between atoms: C_1  and  C_4 
REMARK    2  A    between atoms: C_1  and  C_9 
REMARK       I    between atoms: N_2  and  C_3 
REMARK    3  A    between atoms: C_3  and  C_4 
REMARK    4  A    between atoms: C_4  and  N_15 
REMARK    5  A    between atoms: C_9  and  S_14 
REMARK    6  A    between atoms: C_16  and  C_18 
ROOT
HETATM    1  N           1     -36.030   0.097 -13.573  0.00  0.00    -0.336 N 
HETATM    2  C           1     -36.743  -0.390 -12.512  0.00  0.00     0.251 C 
HETATM    3  C           1     -34.695   1.802 -14.475  0.00  0.00     0.022 C 
HETATM    4  C           1     -34.651   0.581 -13.571  0.00  0.00     0.127 C 
HETATM    5  O           1     -37.884  -0.756 -12.669  0.00  0.00    -0.271 OA
HETATM    6  C           1     -35.901   1.584 -15.381  0.00  0.00     0.038 C 
HETATM    7  C           1     -36.480   0.246 -14.955  0.00  0.00     0.188 C 
ENDROOT
BRANCH   2   8
HETATM    8  C           1     -36.106  -0.470 -11.147  0.00  0.00     0.275 C 
BRANCH   8   9
HETATM    9  C           1     -36.421  -1.821 -10.517  0.00  0.00     0.053 C 
BRANCH   9  10
HETATM   10  C           1     -35.445  -2.866 -11.041  0.00  0.00     0.076 C 
BRANCH  10  11
HETATM   11  S           1     -33.743  -2.287 -10.792  0.00  0.00    -0.173 SA
HETATM   12  C           1     -32.933  -3.678 -11.629  0.00  0.00     0.089 C 
ENDBRANCH  10  11
ENDBRANCH   9  10
ENDBRANCH   8   9
BRANCH   8  13
HETATM   13  N           1     -36.649   0.625 -10.278  0.00  0.00    -0.066 N 
HETATM   14  H           1     -36.748   1.500 -10.841  0.00  0.00     0.275 HD
HETATM   15  H           1     -37.584   0.343  -9.907  0.00  0.00     0.275 HD
HETATM   16  H           1     -35.994   0.796  -9.482  0.00  0.00     0.275 HD
ENDBRANCH   8  13
ENDBRANCH   2   8
BRANCH   7  17
HETATM   17  C           1     -35.945  -0.871 -15.817  0.00  0.00     0.196 C 
HETATM   18  O           1     -36.106  -0.836 -17.056  0.00  0.00    -0.646 OA
HETATM   19  O           1     -35.341  -1.831 -15.292  0.00  0.00    -0.646 OA
ENDBRANCH   7  17
TORSDOF 6
ENDMDL
MODEL 3
REMARK VINA RESULT:      -5.8     13.214     15.040
REMARK  6 active torsions:
REMARK  status: ('A' for Active; 'I' for Inactive)
REMARK    1  A    between atoms: C_1  and  C_4 
REMARK    2  A    between atoms: C_1  and  C_9 
REMARK       I    between atoms: N_2  and  C_3 
REMARK    3  A    between atoms: C_3  and  C_4 
REMARK    4  A    between atoms: C_4  and  N_15 
REMARK    5  A    between atoms: C_9  and  S_14 
REMARK    6  A    between atoms: C_16  and  C_18 
ROOT
HETATM    1  N           1     -21.590  -4.364  -9.539  0.00  0.00    -0.336 N 
HETATM    2  C           1     -21.653  -4.610  -8.195  0.00  0.00     0.251 C 
HETATM    3  C           1     -20.344  -3.617 -11.381  0.00  0.00     0.022 C 
HETATM    4  C           1     -20.567  -4.819 -10.479  0.00  0.00     0.127 C 
HETATM    5  O           1     -22.566  -4.163  -7.542  0.00  0.00    -0.271 OA
HETATM    6  C           1     -21.631  -2.806 -11.291  0.00  0.00     0.038 C 
HETATM    7  C           1     -22.527  -3.590 -10.348  0.00  0.00     0.188 C 
ENDROOT
BRANCH   2   8
HETATM    8  C           1     -20.583  -5.439  -7.528  0.00  0.00     0.275 C 
BRANCH   8   9
HETATM    9  C           1     -21.223  -6.365  -6.501  0.00  0.00     0.053 C 
BRANCH   9  10
HETATM   10  C           1     -20.799  -5.941  -5.101  0.00  0.00     0.076 C 
BRANCH  10  11
HETATM   11  S           1     -21.168  -7.273  -3.925  0.00  0.00    -0.173 SA
HETATM   12  C           1     -21.763  -6.201  -2.587  0.00  0.00     0.089 C 
ENDBRANCH  10  11
ENDBRANCH   9  10
ENDBRANCH   8   9
BRANCH   8  13
HETATM   13  N           1     -19.605  -4.533  -6.842  0.00  0.00    -0.066 N 
HETATM   14  H           1     -18.706  -4.522  -7.375  0.00  0.00     0.275 HD
HETATM   15  H           1     -19.997  -3.565  -6.802  0.00  0.00     0.275 HD
HETATM   16  H           1     -19.429  -4.879  -5.872  0.00  0.00     0.275 HD
ENDBRANCH   8  13
ENDBRANCH   2   8
BRANCH   7  17
HETATM   17  C           1     -23.452  -4.501 -11.117  0.00  0.00     0.196 C 
HETATM   18  O           1     -23.667  -4.292 -12.331  0.00  0.00    -0.646 OA
HETATM   19  O           1     -24.002  -5.464 -10.542  0.00  0.00    -0.646 OA
ENDBRANCH   7  17
TORSDOF 6
ENDMDL
MODEL 4
REMARK VINA RESULT:      -5.8     12.965     14.599
REMARK  6 active torsions:
REMARK  status: ('A' for Active; 'I' for Inactive)
REMARK    1  A    between atoms: C_1  and  C_4 
REMARK    2  A    between atoms: C_1  and  C_9 
REMARK       I    between atoms: N_2  and  C_3 
REMARK    3  A    between atoms: C_3  and  C_4 
REMARK    4  A    between atoms: C_4  and  N_15 
REMARK    5  A    between atoms: C_9  and  S_14 
REMARK    6  A    between atoms: C_16  and  C_18 
ROOT
HETATM    1  N           1     -22.186  -4.229  -9.399  0.00  0.00    -0.336 N 
HETATM    2  C           1     -21.305  -4.595  -8.418  0.00  0.00     0.251 C 
HETATM    3  C           1     -24.400  -4.137 -10.169  0.00  0.00     0.022 C 
HETATM    4  C           1     -23.410  -3.445  -9.248  0.00  0.00     0.127 C 
HETATM    5  O           1     -20.329  -5.250  -8.697  0.00  0.00    -0.271 OA
HETATM    6  C           1     -23.544  -4.860 -11.203  0.00  0.00     0.038 C 
HETATM    7  C           1     -22.109  -4.537 -10.824  0.00  0.00     0.188 C 
ENDROOT
BRANCH   2   8
HETATM    8  C           1     -21.552  -4.180  -6.988  0.00  0.00     0.275 C 
BRANCH   8   9
HETATM    9  C           1     -20.368  -4.597  -6.125  0.00  0.00     0.053 C 
BRANCH   9  10
HETATM   10  C           1     -20.842  -5.555  -5.041  0.00  0.00     0.076 C 
BRANCH  10  11
HETATM   11  S           1     -20.302  -7.241  -5.441  0.00  0.00    -0.173 SA
HETATM   12  C           1     -21.635  -8.094  -4.552  0.00  0.00     0.089 C 
ENDBRANCH  10  11
ENDBRANCH   9  10
ENDBRANCH   8   9
BRANCH   8  13
HETATM   13  N           1     -22.797  -4.847  -6.484  0.00  0.00    -0.066 N 
HETATM   14  H           1     -22.544  -5.549  -5.751  0.00  0.00     0.275 HD
HETATM   15  H           1     -23.434  -4.129  -6.072  0.00  0.00     0.275 HD
HETATM   16  H           1     -23.280  -5.330  -7.275  0.00  0.00     0.275 HD
ENDBRANCH   8  13
ENDBRANCH   2   8
BRANCH   7  17
HETATM   17  C           1     -21.601  -3.349 -11.604  0.00  0.00     0.196 C 
HETATM   18  O           1     -20.521  -2.808 -11.285  0.00  0.00    -0.646 OA
HETATM   19  O           1     -22.261  -2.907 -12.569  0.00  0.00    -0.646 OA
ENDBRANCH   7  17
TORSDOF 6
ENDMDL
MODEL 5
REMARK VINA RESULT:      -5.7      2.463      3.281
REMARK  6 active torsions:
REMARK  status: ('A' for Active; 'I' for Inactive)
REMARK    1  A    between atoms: C_1  and  C_4 
REMARK    2  A    between atoms: C_1  and  C_9 
REMARK       I    between atoms: N_2  and  C_3 
REMARK    3  A    between atoms: C_3  and  C_4 
REMARK    4  A    between atoms: C_4  and  N_15 
REMARK    5  A    between atoms: C_9  and  S_14 
REMARK    6  A    between atoms: C_16  and  C_18 
ROOT
HETATM    1  N           1     -34.803  -1.836 -12.229  0.00  0.00    -0.336 N 
HETATM    2  C           1     -34.085  -2.832 -11.626  0.00  0.00     0.251 C 
HETATM    3  C           1     -35.085  -0.398 -14.061  0.00  0.00     0.022 C 
HETATM    4  C           1     -35.333  -1.821 -13.591  0.00  0.00     0.127 C 
HETATM    5  O           1     -33.711  -2.700 -10.485  0.00  0.00    -0.271 OA
HETATM    6  C           1     -34.997   0.434 -12.786  0.00  0.00     0.038 C 
HETATM    7  C           1     -35.208  -0.556 -11.653  0.00  0.00     0.188 C 
ENDROOT
BRANCH   2   8
HETATM    8  C           1     -33.759  -4.094 -12.386  0.00  0.00     0.275 C 
BRANCH   8   9
HETATM    9  C           1     -34.630  -5.235 -11.874  0.00  0.00     0.053 C 
BRANCH   9  10
HETATM   10  C           1     -33.810  -6.126 -10.952  0.00  0.00     0.076 C 
BRANCH  10  11
HETATM   11  S           1     -34.923  -7.146  -9.946  0.00  0.00    -0.173 SA
HETATM   12  C           1     -33.888  -8.637  -9.948  0.00  0.00     0.089 C 
ENDBRANCH  10  11
ENDBRANCH   9  10
ENDBRANCH   8   9
BRANCH   8  13
HETATM   13  N           1     -32.314  -4.439 -12.182  0.00  0.00    -0.066 N 
HETATM   14  H           1     -32.084  -5.308 -12.717  0.00  0.00     0.275 HD
HETATM   15  H           1     -31.717  -3.653 -12.524  0.00  0.00     0.275 HD
HETATM   16  H           1     -32.133  -4.600 -11.166  0.00  0.00     0.275 HD
ENDBRANCH   8  13
ENDBRANCH   2   8
BRANCH   7  17
HETATM   17  C           1     -36.657  -0.591 -11.233  0.00  0.00     0.196 C 
HETATM   18  O           1     -37.395   0.393 -11.452  0.00  0.00    -0.646 OA
HETATM   19  O           1     -37.119  -1.605 -10.666  0.00  0.00    -0.646 OA
ENDBRANCH   7  17
TORSDOF 6
ENDMDL
MODEL 6
REMARK VINA RESULT:      -5.6      2.596      5.630
REMARK  6 active torsions:
REMARK  status: ('A' for Active; 'I' for Inactive)
REMARK    1  A    between atoms: C_1  and  C_4 
REMARK    2  A    between atoms: C_1  and  C_9 
REMARK       I    between atoms: N_2  and  C_3 
REMARK    3  A    between atoms: C_3  and  C_4 
REMARK    4  A    between atoms: C_4  and  N_15 
REMARK    5  A    between atoms: C_9  and  S_14 
REMARK    6  A    between atoms: C_16  and  C_18 
ROOT
HETATM    1  N           1     -34.731  -2.374 -12.216  0.00  0.00    -0.336 N 
HETATM    2  C           1     -35.257  -1.627 -13.234  0.00  0.00     0.251 C 
HETATM    3  C           1     -33.600  -2.445 -10.162  0.00  0.00     0.022 C 
HETATM    4  C           1     -34.967  -2.216 -10.783  0.00  0.00     0.127 C 
HETATM    5  O           1     -34.967  -1.877 -14.380  0.00  0.00    -0.271 OA
HETATM    6  C           1     -32.836  -3.287 -11.179  0.00  0.00     0.038 C 
HETATM    7  C           1     -33.810  -3.502 -12.324  0.00  0.00     0.188 C 
ENDROOT
BRANCH   2   8
HETATM    8  C           1     -36.200  -0.489 -12.926  0.00  0.00     0.275 C 
BRANCH   8   9
HETATM    9  C           1     -36.589   0.214 -14.221  0.00  0.00     0.053 C 
BRANCH   9  10
HETATM   10  C           1     -38.026  -0.141 -14.579  0.00  0.00     0.076 C 
BRANCH  10  11
HETATM   11  S           1     -38.069  -0.909 -16.223  0.00  0.00    -0.173 SA
HETATM   12  C           1     -36.362  -0.497 -16.682  0.00  0.00     0.089 C 
ENDBRANCH  10  11
ENDBRANCH   9  10
ENDBRANCH   8   9
BRANCH   8  13
HETATM   13  N           1     -35.522   0.487 -12.013  0.00  0.00    -0.066 N 
HETATM   14  H           1     -34.934   1.142 -12.576  0.00  0.00     0.275 HD
HETATM   15  H           1     -36.243   1.032 -11.489  0.00  0.00     0.275 HD
HETATM   16  H           1     -34.916  -0.030 -11.337  0.00  0.00     0.275 HD
ENDBRANCH   8  13
ENDBRANCH   2   8
BRANCH   7  17
HETATM   17  C           1     -34.545  -4.811 -12.167  0.00  0.00     0.196 C 
HETATM   18  O           1     -35.246  -5.251 -13.103  0.00  0.00    -0.646 OA
HETATM   19  O           1     -34.451  -5.456 -11.100  0.00  0.00    -0.646 OA
ENDBRANCH   7  17
TORSDOF 6
ENDMDL
MODEL 7
REMARK VINA RESULT:      -5.5     13.197     15.365
REMARK  6 active torsions:
REMARK  status: ('A' for Active; 'I' for Inactive)
REMARK    1  A    between atoms: C_1  and  C_4 
REMARK    2  A    between atoms: C_1  and  C_9 
REMARK       I    between atoms: N_2  and  C_3 
REMARK    3  A    between atoms: C_3  and  C_4 
REMARK    4  A    between atoms: C_4  and  N_15 
REMARK    5  A    between atoms: C_9  and  S_14 
REMARK    6  A    between atoms: C_16  and  C_18 
ROOT
HETATM    1  N           1     -21.320  -4.607  -8.578  0.00  0.00    -0.336 N 
HETATM    2  C           1     -22.091  -4.497  -9.703  0.00  0.00     0.251 C 
HETATM    3  C           1     -19.186  -4.600  -7.605  0.00  0.00     0.022 C 
HETATM    4  C           1     -20.285  -3.685  -8.115  0.00  0.00     0.127 C 
HETATM    5  O           1     -22.913  -5.346  -9.957  0.00  0.00    -0.271 OA
HETATM    6  C           1     -19.886  -5.909  -7.257  0.00  0.00     0.038 C 
HETATM    7  C           1     -21.351  -5.671  -7.578  0.00  0.00     0.188 C 
ENDROOT
BRANCH   2   8
HETATM    8  C           1     -21.916  -3.316 -10.626  0.00  0.00     0.275 C 
BRANCH   8   9
HETATM    9  C           1     -23.264  -2.931 -11.221  0.00  0.00     0.053 C 
BRANCH   9  10
HETATM   10  C           1     -23.378  -3.497 -12.630  0.00  0.00     0.076 C 
BRANCH  10  11
HETATM   11  S           1     -23.811  -2.166 -13.785  0.00  0.00    -0.173 SA
HETATM   12  C           1     -22.703  -2.693 -15.122  0.00  0.00     0.089 C 
ENDBRANCH  10  11
ENDBRANCH   9  10
ENDBRANCH   8   9
BRANCH   8  13
HETATM   13  N           1     -20.970  -3.683 -11.730  0.00  0.00    -0.066 N 
HETATM   14  H           1     -20.110  -3.091 -11.663  0.00  0.00     0.275 HD
HETATM   15  H           1     -20.705  -4.690 -11.641  0.00  0.00     0.275 HD
HETATM   16  H           1     -21.431  -3.522 -12.653  0.00  0.00     0.275 HD
ENDBRANCH   8  13
ENDBRANCH   2   8
BRANCH   7  17
HETATM   17  C           1     -22.107  -5.230  -6.348  0.00  0.00     0.196 C 
HETATM   18  O           1     -21.605  -5.393  -5.215  0.00  0.00    -0.646 OA
HETATM   19  O           1     -23.234  -4.702  -6.463  0.00  0.00    -0.646 OA
ENDBRANCH   7  17
TORSDOF 6
ENDMDL
MODEL 8
REMARK VINA RESULT:      -5.2      2.765      5.377
REMARK  6 active torsions:
REMARK  status: ('A' for Active; 'I' for Inactive)
REMARK    1  A    between atoms: C_1  and  C_4 
REMARK    2  A    between atoms: C_1  and  C_9 
REMARK       I    between atoms: N_2  and  C_3 
REMARK    3  A    between atoms: C_3  and  C_4 
REMARK    4  A    between atoms: C_4  and  N_15 
REMARK    5  A    between atoms: C_9  and  S_14 
REMARK    6  A    between atoms: C_16  and  C_18 
ROOT
HETATM    1  N           1     -34.417  -2.382 -12.309  0.00  0.00    -0.336 N 
HETATM    2  C           1     -35.033  -1.475 -13.129  0.00  0.00     0.251 C 
HETATM    3  C           1     -32.618  -2.906 -10.898  0.00  0.00     0.022 C 
HETATM    4  C           1     -33.944  -2.167 -10.943  0.00  0.00     0.127 C 
HETATM    5  O           1     -35.369  -1.800 -14.243  0.00  0.00    -0.271 OA
HETATM    6  C           1     -32.710  -3.959 -11.997  0.00  0.00     0.038 C 
HETATM    7  C           1     -34.089  -3.773 -12.608  0.00  0.00     0.188 C 
ENDROOT
BRANCH   2   8
HETATM    8  C           1     -35.291  -0.071 -12.642  0.00  0.00     0.275 C 
BRANCH   8   9
HETATM    9  C           1     -36.664  -0.005 -11.983  0.00  0.00     0.053 C 
BRANCH   9  10
HETATM   10  C           1     -36.510   0.422 -10.530  0.00  0.00     0.076 C 
BRANCH  10  11
HETATM   11  S           1     -38.075   0.157  -9.650  0.00  0.00    -0.173 SA
HETATM   12  C           1     -37.362   0.108  -7.982  0.00  0.00     0.089 C 
ENDBRANCH  10  11
ENDBRANCH   9  10
ENDBRANCH   8   9
BRANCH   8  13
HETATM   13  N           1     -35.250   0.876 -13.804  0.00  0.00    -0.066 N 
HETATM   14  H           1     -34.977   1.828 -13.470  0.00  0.00     0.275 HD
HETATM   15  H           1     -34.549   0.539 -14.502  0.00  0.00     0.275 HD
HETATM   16  H           1     -36.194   0.922 -14.251  0.00  0.00     0.275 HD
ENDBRANCH   8  13
ENDBRANCH   2   8
BRANCH   7  17
HETATM   17  C           1     -35.089  -4.708 -11.974  0.00  0.00     0.196 C 
HETATM   18  O           1     -35.965  -4.258 -11.204  0.00  0.00    -0.646 OA
HETATM   19  O           1     -35.041  -5.933 -12.219  0.00  0.00    -0.646 OA
ENDBRANCH   7  17
TORSDOF 6
ENDMDL
MODEL 9
REMARK VINA RESULT:      -5.1     14.331     17.027
REMARK  6 active torsions:
REMARK  status: ('A' for Active; 'I' for Inactive)
REMARK    1  A    between atoms: C_1  and  C_4 
REMARK    2  A    between atoms: C_1  and  C_9 
REMARK       I    between atoms: N_2  and  C_3 
REMARK    3  A    between atoms: C_3  and  C_4 
REMARK    4  A    between atoms: C_4  and  N_15 
REMARK    5  A    between atoms: C_9  and  S_14 
REMARK    6  A    between atoms: C_16  and  C_18 
ROOT
HETATM    1  N           1     -21.310  -6.697  -5.186  0.00  0.00    -0.336 N 
HETATM    2  C           1     -21.822  -5.698  -5.969  0.00  0.00     0.251 C 
HETATM    3  C           1     -20.077  -8.686  -5.032  0.00  0.00     0.022 C 
HETATM    4  C           1     -19.931  -7.179  -5.150  0.00  0.00     0.127 C 
HETATM    5  O           1     -22.992  -5.408  -5.888  0.00  0.00    -0.271 OA
HETATM    6  C           1     -21.454  -8.907  -4.417  0.00  0.00     0.038 C 
HETATM    7  C           1     -22.021  -7.513  -4.207  0.00  0.00     0.188 C 
ENDROOT
BRANCH   2   8
HETATM    8  C           1     -20.926  -4.958  -6.932  0.00  0.00     0.275 C 
BRANCH   8   9
HETATM    9  C           1     -21.642  -3.712  -7.438  0.00  0.00     0.053 C 
BRANCH   9  10
HETATM   10  C           1     -21.950  -3.871  -8.921  0.00  0.00     0.076 C 
BRANCH  10  11
HETATM   11  S           1     -23.744  -3.777  -9.181  0.00  0.00    -0.173 SA
HETATM   12  C           1     -23.824  -5.038 -10.484  0.00  0.00     0.089 C 
ENDBRANCH  10  11
ENDBRANCH   9  10
ENDBRANCH   8   9
BRANCH   8  13
HETATM   13  N           1     -20.596  -5.850  -8.091  0.00  0.00    -0.066 N 
HETATM   14  H           1     -21.309  -5.722  -8.844  0.00  0.00     0.275 HD
HETATM   15  H           1     -19.651  -5.603  -8.462  0.00  0.00     0.275 HD
HETATM   16  H           1     -20.598  -6.847  -7.777  0.00  0.00     0.275 HD
ENDBRANCH   8  13
ENDBRANCH   2   8
BRANCH   7  17
HETATM   17  C           1     -21.748  -7.028  -2.804  0.00  0.00     0.196 C 
HETATM   18  O           1     -22.024  -5.851  -2.485  0.00  0.00    -0.646 OA
HETATM   19  O           1     -21.247  -7.803  -1.961  0.00  0.00    -0.646 OA
ENDBRANCH   7  17
TORSDOF 6
ENDMDL
