MODEL 1
REMARK VINA RESULT:      -6.8      0.000      0.000
REMARK  8 active torsions:
REMARK  status: ('A' for Active; 'I' for Inactive)
REMARK    1  A    between atoms: C_1  and  C_3 
REMARK    2  A    between atoms: C_3  and  C_15 
REMARK    3  A    between atoms: N_5  and  C_19 
REMARK       I    between atoms: N_5  and  C_13 
REMARK    4  A    between atoms: C_6  and  O_14 
REMARK    5  A    between atoms: C_6  and  C_19 
REMARK    6  A    between atoms: N_8  and  C_15 
REMARK    7  A    between atoms: C_13  and  C_15 
REMARK    8  A    between atoms: C_19  and  C_20 
ROOT
HETATM    1  H           1     -33.968  -0.664 -14.165  0.00  0.00     0.163 HD
HETATM    2  N           1     -34.962  -0.710 -13.977  0.00  0.00    -0.343 N 
HETATM    3  O           1     -36.598  -1.313 -12.582  0.00  0.00    -0.271 OA
HETATM    4  C           1     -35.413  -1.258 -12.806  0.00  0.00     0.249 C 
ENDROOT
BRANCH   4   5
HETATM    5  C           1     -34.429  -1.790 -11.794  0.00  0.00     0.278 C 
BRANCH   5   6
HETATM    6  C           1     -34.269  -3.293 -11.982  0.00  0.00     0.021 C 
HETATM    7  C           1     -32.812  -3.680 -11.768  0.00  0.00     0.012 C 
BRANCH   6   8
HETATM    8  C           1     -35.142  -4.025 -10.972  0.00  0.00     0.002 C 
HETATM    9  C           1     -34.455  -5.317 -10.547  0.00  0.00     0.005 C 
ENDBRANCH   6   8
ENDBRANCH   5   6
BRANCH   5  10
HETATM   10  N           1     -34.934  -1.511 -10.410  0.00  0.00    -0.066 N 
HETATM   11  H           1     -34.160  -1.118  -9.828  0.00  0.00     0.275 HD
HETATM   12  H           1     -35.718  -0.822 -10.458  0.00  0.00     0.275 HD
HETATM   13  H           1     -35.276  -2.400  -9.979  0.00  0.00     0.275 HD
ENDBRANCH   5  10
ENDBRANCH   4   5
BRANCH   2  14
HETATM   14  C           1     -35.908  -0.198 -14.949  0.00  0.00     0.209 C 
BRANCH  14  15
HETATM   15  C           1     -35.554   1.243 -15.291  0.00  0.00     0.200 C 
BRANCH  15  16
HETATM   16  O           1     -36.603   1.823 -16.019  0.00  0.00    -0.398 OA
HETATM   17  H           1     -37.216   1.135 -16.209  0.00  0.00     0.209 HD
ENDBRANCH  15  16
ENDBRANCH  14  15
BRANCH  14  18
HETATM   18  C           1     -35.852  -1.041 -16.199  0.00  0.00     0.198 C 
HETATM   19  O           1     -36.601  -0.778 -17.165  0.00  0.00    -0.646 OA
HETATM   20  O           1     -35.057  -2.003 -16.269  0.00  0.00    -0.646 OA
ENDBRANCH  14  18
ENDBRANCH   2  14
TORSDOF 8
ENDMDL
MODEL 2
REMARK VINA RESULT:      -5.9     11.775     13.299
REMARK  8 active torsions:
REMARK  status: ('A' for Active; 'I' for Inactive)
REMARK    1  A    between atoms: C_1  and  C_3 
REMARK    2  A    between atoms: C_3  and  C_15 
REMARK    3  A    between atoms: N_5  and  C_19 
REMARK       I    between atoms: N_5  and  C_13 
REMARK    4  A    between atoms: C_6  and  O_14 
REMARK    5  A    between atoms: C_6  and  C_19 
REMARK    6  A    between atoms: N_8  and  C_15 
REMARK    7  A    between atoms: C_13  and  C_15 
REMARK    8  A    between atoms: C_19  and  C_20 
ROOT
HETATM    1  H           1     -23.047  -4.543 -12.718  0.00  0.00     0.163 HD
HETATM    2  N           1     -22.625  -3.630 -12.603  0.00  0.00    -0.343 N 
HETATM    3  O           1     -21.255  -2.311 -11.432  0.00  0.00    -0.271 OA
HETATM    4  C           1     -21.758  -3.400 -11.569  0.00  0.00     0.249 C 
ENDROOT
BRANCH   4   5
HETATM    5  C           1     -21.429  -4.510 -10.601  0.00  0.00     0.278 C 
BRANCH   5   6
HETATM    6  C           1     -21.831  -4.092  -9.193  0.00  0.00     0.021 C 
HETATM    7  C           1     -23.344  -4.175  -9.051  0.00  0.00     0.012 C 
BRANCH   6   8
HETATM    8  C           1     -21.175  -5.023  -8.182  0.00  0.00     0.002 C 
HETATM    9  C           1     -20.544  -4.200  -7.067  0.00  0.00     0.005 C 
ENDBRANCH   6   8
ENDBRANCH   5   6
BRANCH   5  10
HETATM   10  N           1     -19.955  -4.786 -10.638  0.00  0.00    -0.066 N 
HETATM   11  H           1     -19.634  -4.836 -11.631  0.00  0.00     0.275 HD
HETATM   12  H           1     -19.445  -4.019 -10.145  0.00  0.00     0.275 HD
HETATM   13  H           1     -19.760  -5.696 -10.163  0.00  0.00     0.275 HD
ENDBRANCH   5  10
ENDBRANCH   4   5
BRANCH   2  14
HETATM   14  C           1     -22.941  -2.563 -13.533  0.00  0.00     0.209 C 
BRANCH  14  15
HETATM   15  C           1     -22.592  -3.005 -14.949  0.00  0.00     0.200 C 
BRANCH  15  16
HETATM   16  O           1     -22.577  -1.890 -15.798  0.00  0.00    -0.398 OA
HETATM   17  H           1     -22.289  -2.192 -16.642  0.00  0.00     0.209 HD
ENDBRANCH  15  16
ENDBRANCH  14  15
BRANCH  14  18
HETATM   18  C           1     -24.413  -2.245 -13.454  0.00  0.00     0.198 C 
HETATM   19  O           1     -25.150  -2.883 -12.670  0.00  0.00    -0.646 OA
HETATM   20  O           1     -24.898  -1.345 -14.173  0.00  0.00    -0.646 OA
ENDBRANCH  14  18
ENDBRANCH   2  14
TORSDOF 8
ENDMDL
MODEL 3
REMARK VINA RESULT:      -5.8     12.231     13.968
REMARK  8 active torsions:
REMARK  status: ('A' for Active; 'I' for Inactive)
REMARK    1  A    between atoms: C_1  and  C_3 
REMARK    2  A    between atoms: C_3  and  C_15 
REMARK    3  A    between atoms: N_5  and  C_19 
REMARK       I    between atoms: N_5  and  C_13 
REMARK    4  A    between atoms: C_6  and  O_14 
REMARK    5  A    between atoms: C_6  and  C_19 
REMARK    6  A    between atoms: N_8  and  C_15 
REMARK    7  A    between atoms: C_13  and  C_15 
REMARK    8  A    between atoms: C_19  and  C_20 
ROOT
HETATM    1  H           1     -23.987  -3.887  -8.955  0.00  0.00     0.163 HD
HETATM    2  N           1     -23.064  -3.788  -9.358  0.00  0.00    -0.343 N 
HETATM    3  O           1     -20.853  -3.782  -9.046  0.00  0.00    -0.271 OA
HETATM    4  C           1     -21.954  -3.900  -8.565  0.00  0.00     0.249 C 
ENDROOT
BRANCH   4   5
HETATM    5  C           1     -22.107  -4.175  -7.089  0.00  0.00     0.278 C 
BRANCH   5   6
HETATM    6  C           1     -21.174  -5.309  -6.684  0.00  0.00     0.021 C 
HETATM    7  C           1     -19.942  -4.734  -6.000  0.00  0.00     0.012 C 
BRANCH   6   8
HETATM    8  C           1     -21.899  -6.240  -5.722  0.00  0.00     0.002 C 
HETATM    9  C           1     -21.266  -6.139  -4.341  0.00  0.00     0.005 C 
ENDBRANCH   6   8
ENDBRANCH   5   6
BRANCH   5  10
HETATM   10  N           1     -23.525  -4.565  -6.797  0.00  0.00    -0.066 N 
HETATM   11  H           1     -23.834  -5.295  -7.477  0.00  0.00     0.275 HD
HETATM   12  H           1     -23.588  -4.944  -5.825  0.00  0.00     0.275 HD
HETATM   13  H           1     -24.141  -3.725  -6.884  0.00  0.00     0.275 HD
ENDBRANCH   5  10
ENDBRANCH   4   5
BRANCH   2  14
HETATM   14  C           1     -22.917  -3.524 -10.777  0.00  0.00     0.209 C 
BRANCH  14  15
HETATM   15  C           1     -22.435  -4.787 -11.480  0.00  0.00     0.200 C 
BRANCH  15  16
HETATM   16  O           1     -23.486  -5.338 -12.226  0.00  0.00    -0.398 OA
HETATM   17  H           1     -23.099  -5.762 -12.972  0.00  0.00     0.209 HD
ENDBRANCH  15  16
ENDBRANCH  14  15
BRANCH  14  18
HETATM   18  C           1     -24.246  -3.105 -11.352  0.00  0.00     0.198 C 
HETATM   19  O           1     -24.310  -2.656 -12.518  0.00  0.00    -0.646 OA
HETATM   20  O           1     -25.285  -3.203 -10.663  0.00  0.00    -0.646 OA
ENDBRANCH  14  18
ENDBRANCH   2  14
TORSDOF 8
ENDMDL
MODEL 4
REMARK VINA RESULT:      -5.8      9.889     11.364
REMARK  8 active torsions:
REMARK  status: ('A' for Active; 'I' for Inactive)
REMARK    1  A    between atoms: C_1  and  C_3 
REMARK    2  A    between atoms: C_3  and  C_15 
REMARK    3  A    between atoms: N_5  and  C_19 
REMARK       I    between atoms: N_5  and  C_13 
REMARK    4  A    between atoms: C_6  and  O_14 
REMARK    5  A    between atoms: C_6  and  C_19 
REMARK    6  A    between atoms: N_8  and  C_15 
REMARK    7  A    between atoms: C_13  and  C_15 
REMARK    8  A    between atoms: C_19  and  C_20 
ROOT
HETATM    1  H           1     -27.195  -8.127 -18.656  0.00  0.00     0.163 HD
HETATM    2  N           1     -27.335  -7.233 -19.109  0.00  0.00    -0.343 N 
HETATM    3  O           1     -28.426  -5.285 -19.156  0.00  0.00    -0.271 OA
HETATM    4  C           1     -28.259  -6.352 -18.616  0.00  0.00     0.249 C 
ENDROOT
BRANCH   4   5
HETATM    5  C           1     -29.070  -6.714 -17.396  0.00  0.00     0.278 C 
BRANCH   5   6
HETATM    6  C           1     -28.358  -6.216 -16.146  0.00  0.00     0.021 C 
HETATM    7  C           1     -29.386  -5.879 -15.075  0.00  0.00     0.012 C 
BRANCH   6   8
HETATM    8  C           1     -27.423  -7.301 -15.629  0.00  0.00     0.002 C 
HETATM    9  C           1     -25.980  -6.833 -15.755  0.00  0.00     0.005 C 
ENDBRANCH   6   8
ENDBRANCH   5   6
BRANCH   5  10
HETATM   10  N           1     -29.226  -8.203 -17.323  0.00  0.00    -0.066 N 
HETATM   11  H           1     -29.375  -8.587 -18.283  0.00  0.00     0.275 HD
HETATM   12  H           1     -28.364  -8.623 -16.909  0.00  0.00     0.275 HD
HETATM   13  H           1     -30.050  -8.437 -16.723  0.00  0.00     0.275 HD
ENDBRANCH   5  10
ENDBRANCH   4   5
BRANCH   2  14
HETATM   14  C           1     -26.556  -6.884 -20.282  0.00  0.00     0.209 C 
BRANCH  14  15
HETATM   15  C           1     -25.142  -6.508 -19.858  0.00  0.00     0.200 C 
BRANCH  15  16
HETATM   16  O           1     -24.566  -7.573 -19.150  0.00  0.00    -0.398 OA
HETATM   17  H           1     -24.410  -7.266 -18.274  0.00  0.00     0.209 HD
ENDBRANCH  15  16
ENDBRANCH  14  15
BRANCH  14  18
HETATM   18  C           1     -26.503  -8.064 -21.220  0.00  0.00     0.198 C 
HETATM   19  O           1     -27.544  -8.708 -21.475  0.00  0.00    -0.646 OA
HETATM   20  O           1     -25.417  -8.400 -21.742  0.00  0.00    -0.646 OA
ENDBRANCH  14  18
ENDBRANCH   2  14
TORSDOF 8
ENDMDL
MODEL 5
REMARK VINA RESULT:      -5.7     11.700     13.242
REMARK  8 active torsions:
REMARK  status: ('A' for Active; 'I' for Inactive)
REMARK    1  A    between atoms: C_1  and  C_3 
REMARK    2  A    between atoms: C_3  and  C_15 
REMARK    3  A    between atoms: N_5  and  C_19 
REMARK       I    between atoms: N_5  and  C_13 
REMARK    4  A    between atoms: C_6  and  O_14 
REMARK    5  A    between atoms: C_6  and  C_19 
REMARK    6  A    between atoms: N_8  and  C_15 
REMARK    7  A    between atoms: C_13  and  C_15 
REMARK    8  A    between atoms: C_19  and  C_20 
ROOT
HETATM    1  H           1     -21.436  -2.745 -12.889  0.00  0.00     0.163 HD
HETATM    2  N           1     -22.186  -3.391 -12.678  0.00  0.00    -0.343 N 
HETATM    3  O           1     -22.921  -5.096 -11.436  0.00  0.00    -0.271 OA
HETATM    4  C           1     -22.027  -4.324 -11.689  0.00  0.00     0.249 C 
ENDROOT
BRANCH   4   5
HETATM    5  C           1     -20.736  -4.386 -10.911  0.00  0.00     0.278 C 
BRANCH   5   6
HETATM    6  C           1     -21.041  -4.614  -9.436  0.00  0.00     0.021 C 
HETATM    7  C           1     -19.777  -4.394  -8.616  0.00  0.00     0.012 C 
BRANCH   6   8
HETATM    8  C           1     -22.116  -3.635  -8.984  0.00  0.00     0.002 C 
HETATM    9  C           1     -22.891  -4.233  -7.818  0.00  0.00     0.005 C 
ENDBRANCH   6   8
ENDBRANCH   5   6
BRANCH   5  10
HETATM   10  N           1     -19.991  -3.095 -11.073  0.00  0.00    -0.066 N 
HETATM   11  H           1     -19.076  -3.153 -10.571  0.00  0.00     0.275 HD
HETATM   12  H           1     -19.822  -2.916 -12.088  0.00  0.00     0.275 HD
HETATM   13  H           1     -20.558  -2.314 -10.671  0.00  0.00     0.275 HD
ENDBRANCH   5  10
ENDBRANCH   4   5
BRANCH   2  14
HETATM   14  C           1     -23.427  -3.332 -13.425  0.00  0.00     0.209 C 
BRANCH  14  15
HETATM   15  C           1     -24.512  -2.706 -12.558  0.00  0.00     0.200 C 
BRANCH  15  16
HETATM   16  O           1     -25.765  -3.203 -12.943  0.00  0.00    -0.398 OA
HETATM   17  H           1     -25.665  -3.549 -13.813  0.00  0.00     0.209 HD
ENDBRANCH  15  16
ENDBRANCH  14  15
BRANCH  14  18
HETATM   18  C           1     -23.230  -2.495 -14.665  0.00  0.00     0.198 C 
HETATM   19  O           1     -22.354  -2.812 -15.500  0.00  0.00    -0.646 OA
HETATM   20  O           1     -23.939  -1.484 -14.857  0.00  0.00    -0.646 OA
ENDBRANCH  14  18
ENDBRANCH   2  14
TORSDOF 8
ENDMDL
MODEL 6
REMARK VINA RESULT:      -5.6      2.439      5.402
REMARK  8 active torsions:
REMARK  status: ('A' for Active; 'I' for Inactive)
REMARK    1  A    between atoms: C_1  and  C_3 
REMARK    2  A    between atoms: C_3  and  C_15 
REMARK    3  A    between atoms: N_5  and  C_19 
REMARK       I    between atoms: N_5  and  C_13 
REMARK    4  A    between atoms: C_6  and  O_14 
REMARK    5  A    between atoms: C_6  and  C_19 
REMARK    6  A    between atoms: N_8  and  C_15 
REMARK    7  A    between atoms: C_13  and  C_15 
REMARK    8  A    between atoms: C_19  and  C_20 
ROOT
HETATM    1  H           1     -34.131  -1.809 -13.862  0.00  0.00     0.163 HD
HETATM    2  N           1     -34.783  -1.903 -13.094  0.00  0.00    -0.343 N 
HETATM    3  O           1     -36.583  -1.116 -12.030  0.00  0.00    -0.271 OA
HETATM    4  C           1     -35.805  -1.004 -12.947  0.00  0.00     0.249 C 
ENDROOT
BRANCH   4   5
HETATM    5  C           1     -35.961   0.127 -13.933  0.00  0.00     0.278 C 
BRANCH   5   6
HETATM    6  C           1     -36.635  -0.389 -15.198  0.00  0.00     0.021 C 
HETATM    7  C           1     -37.820   0.502 -15.542  0.00  0.00     0.012 C 
BRANCH   6   8
HETATM    8  C           1     -35.636  -0.371 -16.347  0.00  0.00     0.002 C 
HETATM    9  C           1     -35.258  -1.800 -16.715  0.00  0.00     0.005 C 
ENDBRANCH   6   8
ENDBRANCH   5   6
BRANCH   5  10
HETATM   10  N           1     -34.610   0.681 -14.278  0.00  0.00    -0.066 N 
HETATM   11  H           1     -34.491   1.616 -13.828  0.00  0.00     0.275 HD
HETATM   12  H           1     -33.869   0.031 -13.932  0.00  0.00     0.275 HD
HETATM   13  H           1     -34.530   0.781 -15.315  0.00  0.00     0.275 HD
ENDBRANCH   5  10
ENDBRANCH   4   5
BRANCH   2  14
HETATM   14  C           1     -34.634  -2.990 -12.145  0.00  0.00     0.209 C 
BRANCH  14  15
HETATM   15  C           1     -34.452  -4.301 -12.901  0.00  0.00     0.200 C 
BRANCH  15  16
HETATM   16  O           1     -33.688  -4.074 -14.055  0.00  0.00    -0.398 OA
HETATM   17  H           1     -32.786  -4.064 -13.787  0.00  0.00     0.209 HD
ENDBRANCH  15  16
ENDBRANCH  14  15
BRANCH  14  18
HETATM   18  C           1     -33.428  -2.739 -11.276  0.00  0.00     0.198 C 
HETATM   19  O           1     -32.389  -3.418 -11.435  0.00  0.00    -0.646 OA
HETATM   20  O           1     -33.466  -1.853 -10.394  0.00  0.00    -0.646 OA
ENDBRANCH  14  18
ENDBRANCH   2  14
TORSDOF 8
ENDMDL
MODEL 7
REMARK VINA RESULT:      -5.4     12.944     14.607
REMARK  8 active torsions:
REMARK  status: ('A' for Active; 'I' for Inactive)
REMARK    1  A    between atoms: C_1  and  C_3 
REMARK    2  A    between atoms: C_3  and  C_15 
REMARK    3  A    between atoms: N_5  and  C_19 
REMARK       I    between atoms: N_5  and  C_13 
REMARK    4  A    between atoms: C_6  and  O_14 
REMARK    5  A    between atoms: C_6  and  C_19 
REMARK    6  A    between atoms: N_8  and  C_15 
REMARK    7  A    between atoms: C_13  and  C_15 
REMARK    8  A    between atoms: C_19  and  C_20 
ROOT
HETATM    1  H           1     -21.130  -4.913 -10.290  0.00  0.00     0.163 HD
HETATM    2  N           1     -21.710  -4.302  -9.731  0.00  0.00    -0.343 N 
HETATM    3  O           1     -22.392  -3.676  -7.698  0.00  0.00    -0.271 OA
HETATM    4  C           1     -21.699  -4.406  -8.366  0.00  0.00     0.249 C 
ENDROOT
BRANCH   4   5
HETATM    5  C           1     -20.819  -5.431  -7.695  0.00  0.00     0.278 C 
BRANCH   5   6
HETATM    6  C           1     -21.416  -5.810  -6.346  0.00  0.00     0.021 C 
HETATM    7  C           1     -21.390  -7.323  -6.185  0.00  0.00     0.012 C 
BRANCH   6   8
HETATM    8  C           1     -20.599  -5.168  -5.233  0.00  0.00     0.002 C 
HETATM    9  C           1     -20.974  -5.796  -3.898  0.00  0.00     0.005 C 
ENDBRANCH   6   8
ENDBRANCH   5   6
BRANCH   5  10
HETATM   10  N           1     -19.448  -4.858  -7.492  0.00  0.00    -0.066 N 
HETATM   11  H           1     -19.525  -3.921  -7.036  0.00  0.00     0.275 HD
HETATM   12  H           1     -18.890  -5.498  -6.883  0.00  0.00     0.275 HD
HETATM   13  H           1     -18.974  -4.756  -8.418  0.00  0.00     0.275 HD
ENDBRANCH   5  10
ENDBRANCH   4   5
BRANCH   2  14
HETATM   14  C           1     -22.557  -3.316 -10.375  0.00  0.00     0.209 C 
BRANCH  14  15
HETATM   15  C           1     -21.884  -2.826 -11.651  0.00  0.00     0.200 C 
BRANCH  15  16
HETATM   16  O           1     -21.680  -3.909 -12.518  0.00  0.00    -0.398 OA
HETATM   17  H           1     -22.512  -4.337 -12.620  0.00  0.00     0.209 HD
ENDBRANCH  15  16
ENDBRANCH  14  15
BRANCH  14  18
HETATM   18  C           1     -23.887  -3.939 -10.715  0.00  0.00     0.198 C 
HETATM   19  O           1     -24.928  -3.246 -10.689  0.00  0.00    -0.646 OA
HETATM   20  O           1     -23.951  -5.150 -11.022  0.00  0.00    -0.646 OA
ENDBRANCH  14  18
ENDBRANCH   2  14
TORSDOF 8
ENDMDL
MODEL 8
REMARK VINA RESULT:      -5.4     10.335     11.797
REMARK  8 active torsions:
REMARK  status: ('A' for Active; 'I' for Inactive)
REMARK    1  A    between atoms: C_1  and  C_3 
REMARK    2  A    between atoms: C_3  and  C_15 
REMARK    3  A    between atoms: N_5  and  C_19 
REMARK       I    between atoms: N_5  and  C_13 
REMARK    4  A    between atoms: C_6  and  O_14 
REMARK    5  A    between atoms: C_6  and  C_19 
REMARK    6  A    between atoms: N_8  and  C_15 
REMARK    7  A    between atoms: C_13  and  C_15 
REMARK    8  A    between atoms: C_19  and  C_20 
ROOT
HETATM    1  H           1     -27.601  -7.211 -19.498  0.00  0.00     0.163 HD
HETATM    2  N           1     -27.569  -6.753 -18.596  0.00  0.00    -0.343 N 
HETATM    3  O           1     -26.333  -5.787 -17.006  0.00  0.00    -0.271 OA
HETATM    4  C           1     -26.372  -6.334 -18.082  0.00  0.00     0.249 C 
ENDROOT
BRANCH   4   5
HETATM    5  C           1     -25.099  -6.553 -18.861  0.00  0.00     0.278 C 
BRANCH   5   6
HETATM    6  C           1     -25.435  -7.091 -20.246  0.00  0.00     0.021 C 
HETATM    7  C           1     -25.505  -5.937 -21.237  0.00  0.00     0.012 C 
BRANCH   6   8
HETATM    8  C           1     -24.356  -8.072 -20.684  0.00  0.00     0.002 C 
HETATM    9  C           1     -24.086  -7.899 -22.173  0.00  0.00     0.005 C 
ENDBRANCH   6   8
ENDBRANCH   5   6
BRANCH   5  10
HETATM   10  N           1     -24.233  -7.541 -18.138  0.00  0.00    -0.066 N 
HETATM   11  H           1     -23.233  -7.387 -18.400  0.00  0.00     0.275 HD
HETATM   12  H           1     -24.348  -7.415 -17.108  0.00  0.00     0.275 HD
HETATM   13  H           1     -24.517  -8.511 -18.405  0.00  0.00     0.275 HD
ENDBRANCH   5  10
ENDBRANCH   4   5
BRANCH   2  14
HETATM   14  C           1     -28.792  -6.541 -17.846  0.00  0.00     0.209 C 
BRANCH  14  15
HETATM   15  C           1     -29.599  -5.424 -18.496  0.00  0.00     0.200 C 
BRANCH  15  16
HETATM   16  O           1     -30.648  -5.048 -17.646  0.00  0.00    -0.398 OA
HETATM   17  H           1     -31.438  -5.406 -18.012  0.00  0.00     0.209 HD
ENDBRANCH  15  16
ENDBRANCH  14  15
BRANCH  14  18
HETATM   18  C           1     -29.606  -7.812 -17.841  0.00  0.00     0.198 C 
HETATM   19  O           1     -29.475  -8.635 -16.908  0.00  0.00    -0.646 OA
HETATM   20  O           1     -30.410  -8.044 -18.770  0.00  0.00    -0.646 OA
ENDBRANCH  14  18
ENDBRANCH   2  14
TORSDOF 8
ENDMDL
MODEL 9
REMARK VINA RESULT:      -5.3     13.385     15.600
REMARK  8 active torsions:
REMARK  status: ('A' for Active; 'I' for Inactive)
REMARK    1  A    between atoms: C_1  and  C_3 
REMARK    2  A    between atoms: C_3  and  C_15 
REMARK    3  A    between atoms: N_5  and  C_19 
REMARK       I    between atoms: N_5  and  C_13 
REMARK    4  A    between atoms: C_6  and  O_14 
REMARK    5  A    between atoms: C_6  and  C_19 
REMARK    6  A    between atoms: N_8  and  C_15 
REMARK    7  A    between atoms: C_13  and  C_15 
REMARK    8  A    between atoms: C_19  and  C_20 
ROOT
HETATM    1  H           1     -22.441  -6.177  -7.924  0.00  0.00     0.163 HD
HETATM    2  N           1     -22.061  -5.312  -7.560  0.00  0.00    -0.343 N 
HETATM    3  O           1     -21.908  -3.091  -7.733  0.00  0.00    -0.271 OA
HETATM    4  C           1     -22.361  -4.123  -8.167  0.00  0.00     0.249 C 
ENDROOT
BRANCH   4   5
HETATM    5  C           1     -23.259  -4.100  -9.379  0.00  0.00     0.278 C 
BRANCH   5   6
HETATM    6  C           1     -22.542  -3.408 -10.531  0.00  0.00     0.021 C 
HETATM    7  C           1     -21.515  -4.356 -11.134  0.00  0.00     0.012 C 
BRANCH   6   8
HETATM    8  C           1     -23.557  -3.016 -11.596  0.00  0.00     0.002 C 
HETATM    9  C           1     -22.889  -3.028 -12.965  0.00  0.00     0.005 C 
ENDBRANCH   6   8
ENDBRANCH   5   6
BRANCH   5  10
HETATM   10  N           1     -24.519  -3.354  -9.054  0.00  0.00    -0.066 N 
HETATM   11  H           1     -24.957  -3.007  -9.937  0.00  0.00     0.275 HD
HETATM   12  H           1     -25.184  -3.992  -8.562  0.00  0.00     0.275 HD
HETATM   13  H           1     -24.292  -2.542  -8.436  0.00  0.00     0.275 HD
ENDBRANCH   5  10
ENDBRANCH   4   5
BRANCH   2  14
HETATM   14  C           1     -21.198  -5.333  -6.395  0.00  0.00     0.209 C 
BRANCH  14  15
HETATM   15  C           1     -21.746  -6.324  -5.375  0.00  0.00     0.200 C 
BRANCH  15  16
HETATM   16  O           1     -23.109  -6.073  -5.164  0.00  0.00    -0.398 OA
HETATM   17  H           1     -23.556  -6.896  -5.262  0.00  0.00     0.209 HD
ENDBRANCH  15  16
ENDBRANCH  14  15
BRANCH  14  18
HETATM   18  C           1     -19.808  -5.751  -6.805  0.00  0.00     0.198 C 
HETATM   19  O           1     -19.490  -6.960  -6.799  0.00  0.00    -0.646 OA
HETATM   20  O           1     -18.971  -4.888  -7.150  0.00  0.00    -0.646 OA
ENDBRANCH  14  18
ENDBRANCH   2  14
TORSDOF 8
ENDMDL
