MODEL 1
REMARK VINA RESULT:      -6.5      0.000      0.000
REMARK  7 active torsions:
REMARK  status: ('A' for Active; 'I' for Inactive)
REMARK       I    between atoms: C_4  and  N_20 
REMARK    1  A    between atoms: C_4  and  C_17 
REMARK    2  A    between atoms: C_5  and  C_6 
REMARK       I    between atoms: C_5  and  N_12 
REMARK    3  A    between atoms: C_6  and  C_7 
REMARK    4  A    between atoms: C_7  and  C_17 
REMARK    5  A    between atoms: N_8  and  C_17 
REMARK    6  A    between atoms: C_14  and  C_19 
REMARK    7  A    between atoms: C_14  and  N_20 
ROOT
HETATM    1  C           1     -22.802  -2.857 -12.426  0.00  0.00     0.275 C 
ENDROOT
BRANCH   1   2
HETATM    2  C           1     -23.616  -3.249 -11.218  0.00  0.00     0.248 C 
HETATM    3  N           1     -22.989  -3.684 -10.081  0.00  0.00    -0.349 N 
HETATM    4  H           1     -21.979  -3.742 -10.052  0.00  0.00     0.163 HD
HETATM    5  O           1     -24.822  -3.180 -11.253  0.00  0.00    -0.271 OA
BRANCH   3   6
HETATM    6  C           1     -23.771  -4.060  -8.921  0.00  0.00     0.235 C 
BRANCH   6   7
HETATM    7  C           1     -22.865  -4.178  -7.719  0.00  0.00     0.191 C 
HETATM    8  O           1     -23.291  -4.691  -6.663  0.00  0.00    -0.647 OA
HETATM    9  O           1     -21.687  -3.761  -7.782  0.00  0.00    -0.647 OA
ENDBRANCH   6   7
ENDBRANCH   3   6
ENDBRANCH   1   2
BRANCH   1  10
HETATM   10  C           1     -23.651  -3.011 -13.682  0.00  0.00     0.052 C 
BRANCH  10  11
HETATM   11  C           1     -23.028  -2.211 -14.818  0.00  0.00     0.105 C 
BRANCH  11  12
HETATM   12  C           1     -23.880  -1.001 -15.111  0.00  0.00     0.215 C 
HETATM   13  N           1     -23.415  -0.021 -15.946  0.00  0.00    -0.370 N 
HETATM   14  H           1     -23.987   0.790 -16.142  0.00  0.00     0.159 HD
HETATM   15  H           1     -22.499  -0.109 -16.368  0.00  0.00     0.159 HD
HETATM   16  O           1     -24.973  -0.897 -14.608  0.00  0.00    -0.274 OA
ENDBRANCH  11  12
ENDBRANCH  10  11
ENDBRANCH   1  10
BRANCH   1  17
HETATM   17  N           1     -21.597  -3.745 -12.526  0.00  0.00    -0.066 N 
HETATM   18  H           1     -21.686  -4.360 -13.366  0.00  0.00     0.275 HD
HETATM   19  H           1     -20.738  -3.156 -12.616  0.00  0.00     0.275 HD
HETATM   20  H           1     -21.528  -4.336 -11.668  0.00  0.00     0.275 HD
ENDBRANCH   1  17
TORSDOF 7
ENDMDL
MODEL 2
REMARK VINA RESULT:      -6.5      7.907      9.299
REMARK  7 active torsions:
REMARK  status: ('A' for Active; 'I' for Inactive)
REMARK       I    between atoms: C_4  and  N_20 
REMARK    1  A    between atoms: C_4  and  C_17 
REMARK    2  A    between atoms: C_5  and  C_6 
REMARK       I    between atoms: C_5  and  N_12 
REMARK    3  A    between atoms: C_6  and  C_7 
REMARK    4  A    between atoms: C_7  and  C_17 
REMARK    5  A    between atoms: N_8  and  C_17 
REMARK    6  A    between atoms: C_14  and  C_19 
REMARK    7  A    between atoms: C_14  and  N_20 
ROOT
HETATM    1  C           1     -30.056  -6.926 -18.339  0.00  0.00     0.275 C 
ENDROOT
BRANCH   1   2
HETATM    2  C           1     -28.677  -6.318 -18.271  0.00  0.00     0.248 C 
HETATM    3  N           1     -27.725  -6.871 -17.456  0.00  0.00    -0.349 N 
HETATM    4  H           1     -27.947  -7.687 -16.900  0.00  0.00     0.163 HD
HETATM    5  O           1     -28.412  -5.344 -18.934  0.00  0.00    -0.271 OA
BRANCH   3   6
HETATM    6  C           1     -26.400  -6.286 -17.390  0.00  0.00     0.235 C 
BRANCH   6   7
HETATM    7  C           1     -25.844  -6.456 -15.997  0.00  0.00     0.191 C 
HETATM    8  O           1     -26.060  -7.511 -15.362  0.00  0.00    -0.647 OA
HETATM    9  O           1     -25.168  -5.541 -15.478  0.00  0.00    -0.647 OA
ENDBRANCH   6   7
ENDBRANCH   3   6
ENDBRANCH   1   2
BRANCH   1  10
HETATM   10  C           1     -30.729  -6.815 -16.977  0.00  0.00     0.052 C 
BRANCH  10  11
HETATM   11  C           1     -30.557  -5.402 -16.439  0.00  0.00     0.105 C 
BRANCH  11  12
HETATM   12  C           1     -31.722  -4.549 -16.878  0.00  0.00     0.215 C 
HETATM   13  N           1     -33.003  -5.001 -16.713  0.00  0.00    -0.370 N 
HETATM   14  H           1     -33.784  -4.428 -17.007  0.00  0.00     0.159 HD
HETATM   15  H           1     -33.169  -5.908 -16.295  0.00  0.00     0.159 HD
HETATM   16  O           1     -31.523  -3.466 -17.376  0.00  0.00    -0.274 OA
ENDBRANCH  11  12
ENDBRANCH  10  11
ENDBRANCH   1  10
BRANCH   1  17
HETATM   17  N           1     -29.946  -8.371 -18.725  0.00  0.00    -0.066 N 
HETATM   18  H           1     -30.184  -8.971 -17.904  0.00  0.00     0.275 HD
HETATM   19  H           1     -30.610  -8.573 -19.507  0.00  0.00     0.275 HD
HETATM   20  H           1     -28.970  -8.576 -19.034  0.00  0.00     0.275 HD
ENDBRANCH   1  17
TORSDOF 7
ENDMDL
MODEL 3
REMARK VINA RESULT:      -6.4      1.772      6.164
REMARK  7 active torsions:
REMARK  status: ('A' for Active; 'I' for Inactive)
REMARK       I    between atoms: C_4  and  N_20 
REMARK    1  A    between atoms: C_4  and  C_17 
REMARK    2  A    between atoms: C_5  and  C_6 
REMARK       I    between atoms: C_5  and  N_12 
REMARK    3  A    between atoms: C_6  and  C_7 
REMARK    4  A    between atoms: C_7  and  C_17 
REMARK    5  A    between atoms: N_8  and  C_17 
REMARK    6  A    between atoms: C_14  and  C_19 
REMARK    7  A    between atoms: C_14  and  N_20 
ROOT
HETATM    1  C           1     -21.379  -4.316 -10.839  0.00  0.00     0.275 C 
ENDROOT
BRANCH   1   2
HETATM    2  C           1     -22.651  -3.993 -11.583  0.00  0.00     0.248 C 
HETATM    3  N           1     -22.664  -2.990 -12.514  0.00  0.00    -0.349 N 
HETATM    4  H           1     -21.820  -2.465 -12.704  0.00  0.00     0.163 HD
HETATM    5  O           1     -23.659  -4.620 -11.356  0.00  0.00    -0.271 OA
BRANCH   3   6
HETATM    6  C           1     -23.887  -2.680 -13.228  0.00  0.00     0.235 C 
BRANCH   6   7
HETATM    7  C           1     -23.547  -2.081 -14.572  0.00  0.00     0.191 C 
HETATM    8  O           1     -22.650  -2.592 -15.275  0.00  0.00    -0.647 OA
HETATM    9  O           1     -24.164  -1.073 -14.981  0.00  0.00    -0.647 OA
ENDBRANCH   6   7
ENDBRANCH   3   6
ENDBRANCH   1   2
BRANCH   1  10
HETATM   10  C           1     -21.451  -3.736  -9.433  0.00  0.00     0.052 C 
BRANCH  10  11
HETATM   11  C           1     -21.822  -4.836  -8.447  0.00  0.00     0.105 C 
BRANCH  11  12
HETATM   12  C           1     -23.087  -4.456  -7.718  0.00  0.00     0.215 C 
HETATM   13  N           1     -24.104  -3.833  -8.389  0.00  0.00    -0.370 N 
HETATM   14  H           1     -24.953  -3.578  -7.900  0.00  0.00     0.159 HD
HETATM   15  H           1     -24.008  -3.628  -9.376  0.00  0.00     0.159 HD
HETATM   16  O           1     -23.202  -4.701  -6.541  0.00  0.00    -0.274 OA
ENDBRANCH  11  12
ENDBRANCH  10  11
ENDBRANCH   1  10
BRANCH   1  17
HETATM   17  N           1     -20.211  -3.718 -11.566  0.00  0.00    -0.066 N 
HETATM   18  H           1     -19.474  -3.445 -10.878  0.00  0.00     0.275 HD
HETATM   19  H           1     -19.820  -4.422 -12.233  0.00  0.00     0.275 HD
HETATM   20  H           1     -20.524  -2.874 -12.094  0.00  0.00     0.275 HD
ENDBRANCH   1  17
TORSDOF 7
ENDMDL
MODEL 4
REMARK VINA RESULT:      -6.4      2.165      2.873
REMARK  7 active torsions:
REMARK  status: ('A' for Active; 'I' for Inactive)
REMARK       I    between atoms: C_4  and  N_20 
REMARK    1  A    between atoms: C_4  and  C_17 
REMARK    2  A    between atoms: C_5  and  C_6 
REMARK       I    between atoms: C_5  and  N_12 
REMARK    3  A    between atoms: C_6  and  C_7 
REMARK    4  A    between atoms: C_7  and  C_17 
REMARK    5  A    between atoms: N_8  and  C_17 
REMARK    6  A    between atoms: C_14  and  C_19 
REMARK    7  A    between atoms: C_14  and  N_20 
ROOT
HETATM    1  C           1     -24.169  -4.012 -10.417  0.00  0.00     0.275 C 
ENDROOT
BRANCH   1   2
HETATM    2  C           1     -22.913  -4.063  -9.583  0.00  0.00     0.248 C 
HETATM    3  N           1     -22.989  -3.940  -8.222  0.00  0.00    -0.349 N 
HETATM    4  H           1     -23.889  -3.815  -7.775  0.00  0.00     0.163 HD
HETATM    5  O           1     -21.839  -4.212 -10.117  0.00  0.00    -0.271 OA
BRANCH   3   6
HETATM    6  C           1     -21.782  -3.989  -7.421  0.00  0.00     0.235 C 
BRANCH   6   7
HETATM    7  C           1     -21.668  -5.344  -6.765  0.00  0.00     0.191 C 
HETATM    8  O           1     -22.266  -5.571  -5.691  0.00  0.00    -0.647 OA
HETATM    9  O           1     -20.976  -6.240  -7.296  0.00  0.00    -0.647 OA
ENDBRANCH   6   7
ENDBRANCH   3   6
ENDBRANCH   1   2
BRANCH   1  10
HETATM   10  C           1     -24.069  -2.868 -11.418  0.00  0.00     0.052 C 
BRANCH  10  11
HETATM   11  C           1     -24.404  -3.380 -12.811  0.00  0.00     0.105 C 
BRANCH  11  12
HETATM   12  C           1     -23.216  -3.187 -13.721  0.00  0.00     0.215 C 
HETATM   13  N           1     -21.950  -3.413 -13.252  0.00  0.00    -0.370 N 
HETATM   14  H           1     -21.153  -3.284 -13.862  0.00  0.00     0.159 HD
HETATM   15  H           1     -21.811  -3.711 -12.294  0.00  0.00     0.159 HD
HETATM   16  O           1     -23.381  -2.832 -14.863  0.00  0.00    -0.274 OA
ENDBRANCH  11  12
ENDBRANCH  10  11
ENDBRANCH   1  10
BRANCH   1  17
HETATM   17  N           1     -25.353  -3.790  -9.523  0.00  0.00    -0.066 N 
HETATM   18  H           1     -25.626  -2.782  -9.549  0.00  0.00     0.275 HD
HETATM   19  H           1     -26.153  -4.376  -9.854  0.00  0.00     0.275 HD
HETATM   20  H           1     -25.106  -4.058  -8.544  0.00  0.00     0.275 HD
ENDBRANCH   1  17
TORSDOF 7
ENDMDL
MODEL 5
REMARK VINA RESULT:      -6.3      2.202      6.340
REMARK  7 active torsions:
REMARK  status: ('A' for Active; 'I' for Inactive)
REMARK       I    between atoms: C_4  and  N_20 
REMARK    1  A    between atoms: C_4  and  C_17 
REMARK    2  A    between atoms: C_5  and  C_6 
REMARK       I    between atoms: C_5  and  N_12 
REMARK    3  A    between atoms: C_6  and  C_7 
REMARK    4  A    between atoms: C_7  and  C_17 
REMARK    5  A    between atoms: N_8  and  C_17 
REMARK    6  A    between atoms: C_14  and  C_19 
REMARK    7  A    between atoms: C_14  and  N_20 
ROOT
HETATM    1  C           1     -23.123  -3.628  -9.308  0.00  0.00     0.275 C 
ENDROOT
BRANCH   1   2
HETATM    2  C           1     -24.072  -3.319 -10.439  0.00  0.00     0.248 C 
HETATM    3  N           1     -23.597  -3.197 -11.718  0.00  0.00    -0.349 N 
HETATM    4  H           1     -22.609  -3.314 -11.903  0.00  0.00     0.163 HD
HETATM    5  O           1     -25.251  -3.180 -10.218  0.00  0.00    -0.271 OA
BRANCH   3   6
HETATM    6  C           1     -24.510  -2.901 -12.805  0.00  0.00     0.235 C 
BRANCH   6   7
HETATM    7  C           1     -23.733  -2.358 -13.980  0.00  0.00     0.191 C 
HETATM    8  O           1     -22.626  -2.855 -14.281  0.00  0.00    -0.647 OA
HETATM    9  O           1     -24.197  -1.411 -14.652  0.00  0.00    -0.647 OA
ENDBRANCH   6   7
ENDBRANCH   3   6
ENDBRANCH   1   2
BRANCH   1  10
HETATM   10  C           1     -22.167  -4.735  -9.735  0.00  0.00     0.052 C 
BRANCH  10  11
HETATM   11  C           1     -20.747  -4.365  -9.331  0.00  0.00     0.105 C 
BRANCH  11  12
HETATM   12  C           1     -20.413  -5.011  -8.009  0.00  0.00     0.215 C 
HETATM   13  N           1     -19.275  -4.652  -7.338  0.00  0.00    -0.370 N 
HETATM   14  H           1     -19.051  -5.086  -6.452  0.00  0.00     0.159 HD
HETATM   15  H           1     -18.657  -3.952  -7.730  0.00  0.00     0.159 HD
HETATM   16  O           1     -21.150  -5.847  -7.542  0.00  0.00    -0.274 OA
ENDBRANCH  11  12
ENDBRANCH  10  11
ENDBRANCH   1  10
BRANCH   1  17
HETATM   17  N           1     -23.904  -4.078  -8.109  0.00  0.00    -0.066 N 
HETATM   18  H           1     -23.746  -3.412  -7.320  0.00  0.00     0.275 HD
HETATM   19  H           1     -24.922  -4.100  -8.347  0.00  0.00     0.275 HD
HETATM   20  H           1     -23.590  -5.033  -7.827  0.00  0.00     0.275 HD
ENDBRANCH   1  17
TORSDOF 7
ENDMDL
MODEL 6
REMARK VINA RESULT:      -6.2     11.211     13.131
REMARK  7 active torsions:
REMARK  status: ('A' for Active; 'I' for Inactive)
REMARK       I    between atoms: C_4  and  N_20 
REMARK    1  A    between atoms: C_4  and  C_17 
REMARK    2  A    between atoms: C_5  and  C_6 
REMARK       I    between atoms: C_5  and  N_12 
REMARK    3  A    between atoms: C_6  and  C_7 
REMARK    4  A    between atoms: C_7  and  C_17 
REMARK    5  A    between atoms: N_8  and  C_17 
REMARK    6  A    between atoms: C_14  and  C_19 
REMARK    7  A    between atoms: C_14  and  N_20 
ROOT
HETATM    1  C           1     -33.989  -1.886 -11.634  0.00  0.00     0.275 C 
ENDROOT
BRANCH   1   2
HETATM    2  C           1     -35.117  -1.484 -12.550  0.00  0.00     0.248 C 
HETATM    3  N           1     -34.856  -0.755 -13.680  0.00  0.00    -0.349 N 
HETATM    4  H           1     -33.905  -0.488 -13.900  0.00  0.00     0.163 HD
HETATM    5  O           1     -36.253  -1.804 -12.288  0.00  0.00    -0.271 OA
BRANCH   3   6
HETATM    6  C           1     -35.941  -0.369 -14.560  0.00  0.00     0.235 C 
BRANCH   6   7
HETATM    7  C           1     -35.741  -1.005 -15.915  0.00  0.00     0.191 C 
HETATM    8  O           1     -36.288  -0.511 -16.924  0.00  0.00    -0.647 OA
HETATM    9  O           1     -35.027  -2.026 -16.027  0.00  0.00    -0.647 OA
ENDBRANCH   6   7
ENDBRANCH   3   6
ENDBRANCH   1   2
BRANCH   1  10
HETATM   10  C           1     -33.620  -3.342 -11.892  0.00  0.00     0.052 C 
BRANCH  10  11
HETATM   11  C           1     -33.861  -4.159 -10.630  0.00  0.00     0.105 C 
BRANCH  11  12
HETATM   12  C           1     -34.366  -5.530 -11.005  0.00  0.00     0.215 C 
HETATM   13  N           1     -34.675  -5.814 -12.308  0.00  0.00    -0.370 N 
HETATM   14  H           1     -35.014  -6.734 -12.559  0.00  0.00     0.159 HD
HETATM   15  H           1     -34.564  -5.104 -13.020  0.00  0.00     0.159 HD
HETATM   16  O           1     -34.499  -6.378 -10.154  0.00  0.00    -0.274 OA
ENDBRANCH  11  12
ENDBRANCH  10  11
ENDBRANCH   1  10
BRANCH   1  17
HETATM   17  N           1     -34.423  -1.726 -10.207  0.00  0.00    -0.066 N 
HETATM   18  H           1     -35.364  -1.273 -10.177  0.00  0.00     0.275 HD
HETATM   19  H           1     -34.475  -2.666  -9.753  0.00  0.00     0.275 HD
HETATM   20  H           1     -33.733  -1.130  -9.698  0.00  0.00     0.275 HD
ENDBRANCH   1  17
TORSDOF 7
ENDMDL
MODEL 7
REMARK VINA RESULT:      -5.9      2.115      2.494
REMARK  7 active torsions:
REMARK  status: ('A' for Active; 'I' for Inactive)
REMARK       I    between atoms: C_4  and  N_20 
REMARK    1  A    between atoms: C_4  and  C_17 
REMARK    2  A    between atoms: C_5  and  C_6 
REMARK       I    between atoms: C_5  and  N_12 
REMARK    3  A    between atoms: C_6  and  C_7 
REMARK    4  A    between atoms: C_7  and  C_17 
REMARK    5  A    between atoms: N_8  and  C_17 
REMARK    6  A    between atoms: C_14  and  C_19 
REMARK    7  A    between atoms: C_14  and  N_20 
ROOT
HETATM    1  C           1     -21.929  -2.998 -11.293  0.00  0.00     0.275 C 
ENDROOT
BRANCH   1   2
HETATM    2  C           1     -22.159  -3.660  -9.957  0.00  0.00     0.248 C 
HETATM    3  N           1     -21.198  -4.476  -9.422  0.00  0.00    -0.349 N 
HETATM    4  H           1     -20.334  -4.635  -9.924  0.00  0.00     0.163 HD
HETATM    5  O           1     -23.192  -3.471  -9.359  0.00  0.00    -0.271 OA
BRANCH   3   6
HETATM    6  C           1     -21.420  -5.113  -8.139  0.00  0.00     0.235 C 
BRANCH   6   7
HETATM    7  C           1     -20.091  -5.446  -7.506  0.00  0.00     0.191 C 
HETATM    8  O           1     -19.178  -4.593  -7.484  0.00  0.00    -0.647 OA
HETATM    9  O           1     -19.903  -6.575  -7.004  0.00  0.00    -0.647 OA
ENDBRANCH   6   7
ENDBRANCH   3   6
ENDBRANCH   1   2
BRANCH   1  10
HETATM   10  C           1     -22.755  -3.704 -12.359  0.00  0.00     0.052 C 
BRANCH  10  11
HETATM   11  C           1     -23.891  -2.795 -12.808  0.00  0.00     0.105 C 
BRANCH  11  12
HETATM   12  C           1     -23.557  -2.193 -14.150  0.00  0.00     0.215 C 
HETATM   13  N           1     -24.030  -0.953 -14.483  0.00  0.00    -0.370 N 
HETATM   14  H           1     -23.806  -0.550 -15.384  0.00  0.00     0.159 HD
HETATM   15  H           1     -24.605  -0.438 -13.827  0.00  0.00     0.159 HD
HETATM   16  O           1     -22.871  -2.807 -14.933  0.00  0.00    -0.274 OA
ENDBRANCH  11  12
ENDBRANCH  10  11
ENDBRANCH   1  10
BRANCH   1  17
HETATM   17  N           1     -20.474  -3.086 -11.649  0.00  0.00    -0.066 N 
HETATM   18  H           1     -20.338  -2.774 -12.636  0.00  0.00     0.275 HD
HETATM   19  H           1     -19.922  -2.469 -11.010  0.00  0.00     0.275 HD
HETATM   20  H           1     -20.150  -4.073 -11.548  0.00  0.00     0.275 HD
ENDBRANCH   1  17
TORSDOF 7
ENDMDL
MODEL 8
REMARK VINA RESULT:      -5.9      2.790      4.381
REMARK  7 active torsions:
REMARK  status: ('A' for Active; 'I' for Inactive)
REMARK       I    between atoms: C_4  and  N_20 
REMARK    1  A    between atoms: C_4  and  C_17 
REMARK    2  A    between atoms: C_5  and  C_6 
REMARK       I    between atoms: C_5  and  N_12 
REMARK    3  A    between atoms: C_6  and  C_7 
REMARK    4  A    between atoms: C_7  and  C_17 
REMARK    5  A    between atoms: N_8  and  C_17 
REMARK    6  A    between atoms: C_14  and  C_19 
REMARK    7  A    between atoms: C_14  and  N_20 
ROOT
HETATM    1  C           1     -22.689  -4.588  -8.881  0.00  0.00     0.275 C 
ENDROOT
BRANCH   1   2
HETATM    2  C           1     -21.542  -4.683  -7.905  0.00  0.00     0.248 C 
HETATM    3  N           1     -21.020  -5.906  -7.579  0.00  0.00    -0.349 N 
HETATM    4  H           1     -21.404  -6.746  -7.993  0.00  0.00     0.163 HD
HETATM    5  O           1     -21.084  -3.680  -7.412  0.00  0.00    -0.271 OA
BRANCH   3   6
HETATM    6  C           1     -19.918  -5.997  -6.641  0.00  0.00     0.235 C 
BRANCH   6   7
HETATM    7  C           1     -20.213  -7.069  -5.621  0.00  0.00     0.191 C 
HETATM    8  O           1     -21.017  -6.843  -4.690  0.00  0.00    -0.647 OA
HETATM    9  O           1     -19.654  -8.184  -5.706  0.00  0.00    -0.647 OA
ENDBRANCH   6   7
ENDBRANCH   3   6
ENDBRANCH   1   2
BRANCH   1  10
HETATM   10  C           1     -22.279  -3.721 -10.064  0.00  0.00     0.052 C 
BRANCH  10  11
HETATM   11  C           1     -22.987  -4.208 -11.321  0.00  0.00     0.105 C 
BRANCH  11  12
HETATM   12  C           1     -24.079  -3.236 -11.694  0.00  0.00     0.215 C 
HETATM   13  N           1     -23.944  -2.445 -12.803  0.00  0.00    -0.370 N 
HETATM   14  H           1     -24.677  -1.794 -13.053  0.00  0.00     0.159 HD
HETATM   15  H           1     -23.111  -2.513 -13.374  0.00  0.00     0.159 HD
HETATM   16  O           1     -25.074  -3.155 -11.013  0.00  0.00    -0.274 OA
ENDBRANCH  11  12
ENDBRANCH  10  11
ENDBRANCH   1  10
BRANCH   1  17
HETATM   17  N           1     -23.875  -3.973  -8.199  0.00  0.00    -0.066 N 
HETATM   18  H           1     -24.720  -4.081  -8.803  0.00  0.00     0.275 HD
HETATM   19  H           1     -24.038  -4.453  -7.284  0.00  0.00     0.275 HD
HETATM   20  H           1     -23.694  -2.958  -8.033  0.00  0.00     0.275 HD
ENDBRANCH   1  17
TORSDOF 7
ENDMDL
MODEL 9
REMARK VINA RESULT:      -5.8      1.749      6.489
REMARK  7 active torsions:
REMARK  status: ('A' for Active; 'I' for Inactive)
REMARK       I    between atoms: C_4  and  N_20 
REMARK    1  A    between atoms: C_4  and  C_17 
REMARK    2  A    between atoms: C_5  and  C_6 
REMARK       I    between atoms: C_5  and  N_12 
REMARK    3  A    between atoms: C_6  and  C_7 
REMARK    4  A    between atoms: C_7  and  C_17 
REMARK    5  A    between atoms: N_8  and  C_17 
REMARK    6  A    between atoms: C_14  and  C_19 
REMARK    7  A    between atoms: C_14  and  N_20 
ROOT
HETATM    1  C           1     -23.817  -3.377 -10.593  0.00  0.00     0.275 C 
ENDROOT
BRANCH   1   2
HETATM    2  C           1     -23.728  -3.503 -12.094  0.00  0.00     0.248 C 
HETATM    3  N           1     -23.386  -2.415 -12.853  0.00  0.00    -0.349 N 
HETATM    4  H           1     -23.193  -1.528 -12.407  0.00  0.00     0.163 HD
HETATM    5  O           1     -23.959  -4.562 -12.627  0.00  0.00    -0.271 OA
BRANCH   3   6
HETATM    6  C           1     -23.301  -2.536 -14.295  0.00  0.00     0.235 C 
BRANCH   6   7
HETATM    7  C           1     -23.716  -1.233 -14.934  0.00  0.00     0.191 C 
HETATM    8  O           1     -22.925  -0.626 -15.688  0.00  0.00    -0.647 OA
HETATM    9  O           1     -24.852  -0.761 -14.710  0.00  0.00    -0.647 OA
ENDBRANCH   6   7
ENDBRANCH   3   6
ENDBRANCH   1   2
BRANCH   1  10
HETATM   10  C           1     -23.028  -4.506  -9.942  0.00  0.00     0.052 C 
BRANCH  10  11
HETATM   11  C           1     -21.835  -3.927  -9.195  0.00  0.00     0.105 C 
BRANCH  11  12
HETATM   12  C           1     -22.047  -4.079  -7.709  0.00  0.00     0.215 C 
HETATM   13  N           1     -21.011  -3.860  -6.842  0.00  0.00    -0.370 N 
HETATM   14  H           1     -21.153  -3.962  -5.845  0.00  0.00     0.159 HD
HETATM   15  H           1     -20.101  -3.594  -7.199  0.00  0.00     0.159 HD
HETATM   16  O           1     -23.132  -4.396  -7.283  0.00  0.00    -0.274 OA
ENDBRANCH  11  12
ENDBRANCH  10  11
ENDBRANCH   1  10
BRANCH   1  17
HETATM   17  N           1     -25.254  -3.464 -10.169  0.00  0.00    -0.066 N 
HETATM   18  H           1     -25.359  -4.209  -9.445  0.00  0.00     0.275 HD
HETATM   19  H           1     -25.553  -2.545  -9.770  0.00  0.00     0.275 HD
HETATM   20  H           1     -25.848  -3.696 -10.996  0.00  0.00     0.275 HD
ENDBRANCH   1  17
TORSDOF 7
ENDMDL
