MODEL 1
REMARK VINA RESULT:      -5.9      0.000      0.000
REMARK  6 active torsions:
REMARK  status: ('A' for Active; 'I' for Inactive)
REMARK    1  A    between atoms: C_2  and  C_14 
REMARK    2  A    between atoms: N_5  and  C_7 
REMARK    3  A    between atoms: C_7  and  C_8 
REMARK       I    between atoms: C_8  and  N_9 
REMARK    4  A    between atoms: N_9  and  C_13 
REMARK    5  A    between atoms: C_12  and  C_13 
REMARK    6  A    between atoms: C_13  and  C_14 
ROOT
HETATM    1  O           1     -34.523  -3.128 -13.305  0.00  0.00    -0.271 OA
HETATM    2  H           1     -34.869  -0.571 -11.521  0.00  0.00     0.163 HD
HETATM    3  C           1     -34.370  -2.398 -12.354  0.00  0.00     0.248 C 
HETATM    4  N           1     -34.997  -1.182 -12.317  0.00  0.00    -0.344 N 
ENDROOT
BRANCH   4   5
HETATM    5  C           1     -35.844  -0.769 -13.419  0.00  0.00     0.195 C 
BRANCH   5   6
HETATM    6  C           1     -35.081   0.177 -14.313  0.00  0.00     0.197 C 
HETATM    7  O           1     -34.711  -0.196 -15.448  0.00  0.00    -0.646 OA
HETATM    8  O           1     -34.817   1.333 -13.920  0.00  0.00    -0.646 OA
ENDBRANCH   5   6
BRANCH   5   9
HETATM    9  C           1     -37.080  -0.067 -12.874  0.00  0.00     0.149 C 
BRANCH   9  10
HETATM   10  C           1     -37.130  -0.229 -11.374  0.00  0.00     0.175 C 
HETATM   11  O           1     -37.806  -1.150 -10.866  0.00  0.00    -0.648 OA
HETATM   12  O           1     -36.496   0.559 -10.639  0.00  0.00    -0.648 OA
ENDBRANCH   9  10
ENDBRANCH   5   9
ENDBRANCH   4   5
BRANCH   3  13
HETATM   13  C           1     -33.489  -2.828 -11.208  0.00  0.00     0.270 C 
HETATM   14  C           1     -33.903  -4.216 -10.740  0.00  0.00     0.050 C 
BRANCH  13  15
HETATM   15  N           1     -33.633  -1.856 -10.074  0.00  0.00    -0.067 N 
HETATM   16  H           1     -33.615  -2.373  -9.167  0.00  0.00     0.275 HD
HETATM   17  H           1     -32.843  -1.172 -10.101  0.00  0.00     0.275 HD
HETATM   18  H           1     -34.541  -1.346 -10.166  0.00  0.00     0.275 HD
ENDBRANCH  13  15
ENDBRANCH   3  13
TORSDOF 6
ENDMDL
MODEL 2
REMARK VINA RESULT:      -5.9      1.577      3.350
REMARK  6 active torsions:
REMARK  status: ('A' for Active; 'I' for Inactive)
REMARK    1  A    between atoms: C_2  and  C_14 
REMARK    2  A    between atoms: N_5  and  C_7 
REMARK    3  A    between atoms: C_7  and  C_8 
REMARK       I    between atoms: C_8  and  N_9 
REMARK    4  A    between atoms: N_9  and  C_13 
REMARK    5  A    between atoms: C_12  and  C_13 
REMARK    6  A    between atoms: C_13  and  C_14 
ROOT
HETATM    1  O           1     -33.613  -2.147 -11.114  0.00  0.00    -0.271 OA
HETATM    2  H           1     -35.605  -2.084 -13.536  0.00  0.00     0.163 HD
HETATM    3  C           1     -34.246  -2.568 -12.053  0.00  0.00     0.248 C 
HETATM    4  N           1     -35.075  -1.731 -12.750  0.00  0.00    -0.344 N 
ENDROOT
BRANCH   4   5
HETATM    5  C           1     -35.195  -0.340 -12.360  0.00  0.00     0.195 C 
BRANCH   5   6
HETATM    6  C           1     -36.389  -0.172 -11.454  0.00  0.00     0.197 C 
HETATM    7  O           1     -36.325   0.596 -10.470  0.00  0.00    -0.646 OA
HETATM    8  O           1     -37.444  -0.801 -11.687  0.00  0.00    -0.646 OA
ENDBRANCH   5   6
BRANCH   5   9
HETATM    9  C           1     -35.375   0.522 -13.603  0.00  0.00     0.149 C 
BRANCH   9  10
HETATM   10  C           1     -35.732  -0.357 -14.777  0.00  0.00     0.175 C 
HETATM   11  O           1     -34.843  -0.725 -15.576  0.00  0.00    -0.648 OA
HETATM   12  O           1     -36.917  -0.718 -14.951  0.00  0.00    -0.648 OA
ENDBRANCH   9  10
ENDBRANCH   5   9
ENDBRANCH   4   5
BRANCH   3  13
HETATM   13  C           1     -34.120  -4.015 -12.458  0.00  0.00     0.270 C 
HETATM   14  C           1     -33.049  -4.690 -11.613  0.00  0.00     0.050 C 
BRANCH  13  15
HETATM   15  N           1     -33.739  -4.098 -13.907  0.00  0.00    -0.067 N 
HETATM   16  H           1     -34.381  -4.759 -14.399  0.00  0.00     0.275 HD
HETATM   17  H           1     -33.816  -3.151 -14.341  0.00  0.00     0.275 HD
HETATM   18  H           1     -32.756  -4.443 -13.989  0.00  0.00     0.275 HD
ENDBRANCH  13  15
ENDBRANCH   3  13
TORSDOF 6
ENDMDL
MODEL 3
REMARK VINA RESULT:      -5.6      2.163      4.604
REMARK  6 active torsions:
REMARK  status: ('A' for Active; 'I' for Inactive)
REMARK    1  A    between atoms: C_2  and  C_14 
REMARK    2  A    between atoms: N_5  and  C_7 
REMARK    3  A    between atoms: C_7  and  C_8 
REMARK       I    between atoms: C_8  and  N_9 
REMARK    4  A    between atoms: N_9  and  C_13 
REMARK    5  A    between atoms: C_12  and  C_13 
REMARK    6  A    between atoms: C_13  and  C_14 
ROOT
HETATM    1  O           1     -37.840  -0.685 -13.684  0.00  0.00    -0.271 OA
HETATM    2  H           1     -35.272   0.235 -12.135  0.00  0.00     0.163 HD
HETATM    3  C           1     -36.741  -0.211 -13.524  0.00  0.00     0.248 C 
HETATM    4  N           1     -36.193  -0.162 -12.270  0.00  0.00    -0.344 N 
ENDROOT
BRANCH   4   5
HETATM    5  C           1     -36.933  -0.678 -11.135  0.00  0.00     0.195 C 
BRANCH   5   6
HETATM    6  C           1     -37.085   0.408 -10.099  0.00  0.00     0.197 C 
HETATM    7  O           1     -36.220   0.546  -9.207  0.00  0.00    -0.646 OA
HETATM    8  O           1     -38.075   1.170 -10.131  0.00  0.00    -0.646 OA
ENDBRANCH   5   6
BRANCH   5   9
HETATM    9  C           1     -36.181  -1.856 -10.531  0.00  0.00     0.149 C 
BRANCH   9  10
HETATM   10  C           1     -34.881  -2.055 -11.272  0.00  0.00     0.175 C 
HETATM   11  O           1     -33.849  -1.456 -10.898  0.00  0.00    -0.648 OA
HETATM   12  O           1     -34.835  -2.821 -12.260  0.00  0.00    -0.648 OA
ENDBRANCH   9  10
ENDBRANCH   5   9
ENDBRANCH   4   5
BRANCH   3  13
HETATM   13  C           1     -35.971   0.325 -14.705  0.00  0.00     0.270 C 
HETATM   14  C           1     -34.804   1.170 -14.212  0.00  0.00     0.050 C 
BRANCH  13  15
HETATM   15  N           1     -36.877   1.171 -15.550  0.00  0.00    -0.067 N 
HETATM   16  H           1     -36.304   1.745 -16.209  0.00  0.00     0.275 HD
HETATM   17  H           1     -37.520   0.554 -16.095  0.00  0.00     0.275 HD
HETATM   18  H           1     -37.437   1.803 -14.934  0.00  0.00     0.275 HD
ENDBRANCH  13  15
ENDBRANCH   3  13
TORSDOF 6
ENDMDL
MODEL 4
REMARK VINA RESULT:      -5.5     12.662     14.522
REMARK  6 active torsions:
REMARK  status: ('A' for Active; 'I' for Inactive)
REMARK    1  A    between atoms: C_2  and  C_14 
REMARK    2  A    between atoms: N_5  and  C_7 
REMARK    3  A    between atoms: C_7  and  C_8 
REMARK       I    between atoms: C_8  and  N_9 
REMARK    4  A    between atoms: N_9  and  C_13 
REMARK    5  A    between atoms: C_12  and  C_13 
REMARK    6  A    between atoms: C_13  and  C_14 
ROOT
HETATM    1  O           1     -21.518  -3.242  -7.296  0.00  0.00    -0.271 OA
HETATM    2  H           1     -22.330  -5.745  -9.003  0.00  0.00     0.163 HD
HETATM    3  C           1     -21.622  -4.409  -7.590  0.00  0.00     0.248 C 
HETATM    4  N           1     -22.242  -4.767  -8.757  0.00  0.00    -0.344 N 
ENDROOT
BRANCH   4   5
HETATM    5  C           1     -22.775  -3.747  -9.638  0.00  0.00     0.195 C 
BRANCH   5   6
HETATM    6  C           1     -24.280  -3.841  -9.665  0.00  0.00     0.197 C 
HETATM    7  O           1     -24.834  -4.947  -9.849  0.00  0.00    -0.646 OA
HETATM    8  O           1     -24.975  -2.815  -9.502  0.00  0.00    -0.646 OA
ENDBRANCH   5   6
BRANCH   5   9
HETATM    9  C           1     -22.227  -3.954 -11.044  0.00  0.00     0.149 C 
BRANCH   9  10
HETATM   10  C           1     -20.728  -3.783 -11.030  0.00  0.00     0.175 C 
HETATM   11  O           1     -20.222  -2.675 -11.308  0.00  0.00    -0.648 OA
HETATM   12  O           1     -19.991  -4.751 -10.740  0.00  0.00    -0.648 OA
ENDBRANCH   9  10
ENDBRANCH   5   9
ENDBRANCH   4   5
BRANCH   3  13
HETATM   13  C           1     -21.068  -5.471  -6.673  0.00  0.00     0.270 C 
HETATM   14  C           1     -20.380  -4.810  -5.486  0.00  0.00     0.050 C 
BRANCH  13  15
HETATM   15  N           1     -20.075  -6.310  -7.422  0.00  0.00    -0.067 N 
HETATM   16  H           1     -20.524  -6.698  -8.281  0.00  0.00     0.275 HD
HETATM   17  H           1     -19.256  -5.720  -7.694  0.00  0.00     0.275 HD
HETATM   18  H           1     -19.753  -7.095  -6.812  0.00  0.00     0.275 HD
ENDBRANCH  13  15
ENDBRANCH   3  13
TORSDOF 6
ENDMDL
MODEL 5
REMARK VINA RESULT:      -5.4      1.784      4.171
REMARK  6 active torsions:
REMARK  status: ('A' for Active; 'I' for Inactive)
REMARK    1  A    between atoms: C_2  and  C_14 
REMARK    2  A    between atoms: N_5  and  C_7 
REMARK    3  A    between atoms: C_7  and  C_8 
REMARK       I    between atoms: C_8  and  N_9 
REMARK    4  A    between atoms: N_9  and  C_13 
REMARK    5  A    between atoms: C_12  and  C_13 
REMARK    6  A    between atoms: C_13  and  C_14 
ROOT
HETATM    1  O           1     -34.500   0.471 -14.113  0.00  0.00    -0.271 OA
HETATM    2  H           1     -36.811  -1.514 -13.365  0.00  0.00     0.163 HD
HETATM    3  C           1     -35.582  -0.062 -14.180  0.00  0.00     0.248 C 
HETATM    4  N           1     -35.904  -1.068 -13.309  0.00  0.00    -0.344 N 
ENDROOT
BRANCH   4   5
HETATM    5  C           1     -34.946  -1.495 -12.308  0.00  0.00     0.195 C 
BRANCH   5   6
HETATM    6  C           1     -34.370  -2.833 -12.702  0.00  0.00     0.197 C 
HETATM    7  O           1     -33.786  -3.538 -11.850  0.00  0.00    -0.646 OA
HETATM    8  O           1     -34.477  -3.238 -13.880  0.00  0.00    -0.646 OA
ENDBRANCH   5   6
BRANCH   5   9
HETATM    9  C           1     -35.642  -1.619 -10.960  0.00  0.00     0.149 C 
BRANCH   9  10
HETATM   10  C           1     -36.752  -0.599 -10.870  0.00  0.00     0.175 C 
HETATM   11  O           1     -36.488   0.588 -10.579  0.00  0.00    -0.648 OA
HETATM   12  O           1     -37.934  -0.942 -11.088  0.00  0.00    -0.648 OA
ENDBRANCH   9  10
ENDBRANCH   5   9
ENDBRANCH   4   5
BRANCH   3  13
HETATM   13  C           1     -36.579   0.383 -15.221  0.00  0.00     0.270 C 
HETATM   14  C           1     -36.659  -0.659 -16.327  0.00  0.00     0.050 C 
BRANCH  13  15
HETATM   15  N           1     -36.142   1.696 -15.802  0.00  0.00    -0.067 N 
HETATM   16  H           1     -35.110   1.802 -15.686  0.00  0.00     0.275 HD
HETATM   17  H           1     -36.383   1.723 -16.819  0.00  0.00     0.275 HD
HETATM   18  H           1     -36.630   2.475 -15.306  0.00  0.00     0.275 HD
ENDBRANCH  13  15
ENDBRANCH   3  13
TORSDOF 6
ENDMDL
MODEL 6
REMARK VINA RESULT:      -5.3     12.203     13.753
REMARK  6 active torsions:
REMARK  status: ('A' for Active; 'I' for Inactive)
REMARK    1  A    between atoms: C_2  and  C_14 
REMARK    2  A    between atoms: N_5  and  C_7 
REMARK    3  A    between atoms: C_7  and  C_8 
REMARK       I    between atoms: C_8  and  N_9 
REMARK    4  A    between atoms: N_9  and  C_13 
REMARK    5  A    between atoms: C_12  and  C_13 
REMARK    6  A    between atoms: C_13  and  C_14 
ROOT
HETATM    1  O           1     -19.931  -5.061  -9.835  0.00  0.00    -0.271 OA
HETATM    2  H           1     -22.419  -3.249  -9.232  0.00  0.00     0.163 HD
HETATM    3  C           1     -20.638  -4.302  -9.216  0.00  0.00     0.248 C 
HETATM    4  N           1     -21.827  -3.884  -9.750  0.00  0.00    -0.344 N 
ENDROOT
BRANCH   4   5
HETATM    5  C           1     -22.236  -4.351 -11.061  0.00  0.00     0.195 C 
BRANCH   5   6
HETATM    6  C           1     -22.161  -3.212 -12.046  0.00  0.00     0.197 C 
HETATM    7  O           1     -22.783  -3.280 -13.129  0.00  0.00    -0.646 OA
HETATM    8  O           1     -21.479  -2.199 -11.782  0.00  0.00    -0.646 OA
ENDBRANCH   5   6
BRANCH   5   9
HETATM    9  C           1     -23.666  -4.870 -10.990  0.00  0.00     0.149 C 
BRANCH   9  10
HETATM   10  C           1     -24.455  -4.039 -10.008  0.00  0.00     0.175 C 
HETATM   11  O           1     -24.268  -4.177  -8.780  0.00  0.00    -0.648 OA
HETATM   12  O           1     -25.296  -3.212 -10.423  0.00  0.00    -0.648 OA
ENDBRANCH   9  10
ENDBRANCH   5   9
ENDBRANCH   4   5
BRANCH   3  13
HETATM   13  C           1     -20.212  -3.817  -7.852  0.00  0.00     0.270 C 
HETATM   14  C           1     -19.482  -4.934  -7.119  0.00  0.00     0.050 C 
BRANCH  13  15
HETATM   15  N           1     -21.423  -3.410  -7.065  0.00  0.00    -0.067 N 
HETATM   16  H           1     -21.126  -3.050  -6.130  0.00  0.00     0.275 HD
HETATM   17  H           1     -21.936  -2.660  -7.580  0.00  0.00     0.275 HD
HETATM   18  H           1     -22.048  -4.238  -6.936  0.00  0.00     0.275 HD
ENDBRANCH  13  15
ENDBRANCH   3  13
TORSDOF 6
ENDMDL
MODEL 7
REMARK VINA RESULT:      -5.1     12.503     14.148
REMARK  6 active torsions:
REMARK  status: ('A' for Active; 'I' for Inactive)
REMARK    1  A    between atoms: C_2  and  C_14 
REMARK    2  A    between atoms: N_5  and  C_7 
REMARK    3  A    between atoms: C_7  and  C_8 
REMARK       I    between atoms: C_8  and  N_9 
REMARK    4  A    between atoms: N_9  and  C_13 
REMARK    5  A    between atoms: C_12  and  C_13 
REMARK    6  A    between atoms: C_13  and  C_14 
ROOT
HETATM    1  O           1     -21.315  -6.049  -8.246  0.00  0.00    -0.271 OA
HETATM    2  H           1     -22.073  -3.007  -8.347  0.00  0.00     0.163 HD
HETATM    3  C           1     -21.532  -4.936  -7.829  0.00  0.00     0.248 C 
HETATM    4  N           1     -21.891  -3.939  -8.696  0.00  0.00    -0.344 N 
ENDROOT
BRANCH   4   5
HETATM    5  C           1     -22.009  -4.218 -10.114  0.00  0.00     0.195 C 
BRANCH   5   6
HETATM    6  C           1     -20.707  -3.891 -10.800  0.00  0.00     0.197 C 
HETATM    7  O           1     -19.818  -4.765 -10.903  0.00  0.00    -0.646 OA
HETATM    8  O           1     -20.515  -2.748 -11.268  0.00  0.00    -0.646 OA
ENDBRANCH   5   6
BRANCH   5   9
HETATM    9  C           1     -23.124  -3.367 -10.707  0.00  0.00     0.149 C 
BRANCH   9  10
HETATM   10  C           1     -24.455  -3.838 -10.173  0.00  0.00     0.175 C 
HETATM   11  O           1     -24.622  -5.042  -9.883  0.00  0.00    -0.648 OA
HETATM   12  O           1     -25.391  -3.023 -10.020  0.00  0.00    -0.648 OA
ENDBRANCH   9  10
ENDBRANCH   5   9
ENDBRANCH   4   5
BRANCH   3  13
HETATM   13  C           1     -21.409  -4.646  -6.354  0.00  0.00     0.270 C 
HETATM   14  C           1     -19.946  -4.714  -5.942  0.00  0.00     0.050 C 
BRANCH  13  15
HETATM   15  N           1     -22.195  -5.662  -5.578  0.00  0.00    -0.067 N 
HETATM   16  H           1     -21.839  -6.619  -5.798  0.00  0.00     0.275 HD
HETATM   17  H           1     -22.087  -5.477  -4.555  0.00  0.00     0.275 HD
HETATM   18  H           1     -23.204  -5.597  -5.841  0.00  0.00     0.275 HD
ENDBRANCH  13  15
ENDBRANCH   3  13
TORSDOF 6
ENDMDL
MODEL 8
REMARK VINA RESULT:      -4.6     15.650     17.911
REMARK  6 active torsions:
REMARK  status: ('A' for Active; 'I' for Inactive)
REMARK    1  A    between atoms: C_2  and  C_14 
REMARK    2  A    between atoms: N_5  and  C_7 
REMARK    3  A    between atoms: C_7  and  C_8 
REMARK       I    between atoms: C_8  and  N_9 
REMARK    4  A    between atoms: N_9  and  C_13 
REMARK    5  A    between atoms: C_12  and  C_13 
REMARK    6  A    between atoms: C_13  and  C_14 
ROOT
HETATM    1  O           1     -22.537  -5.630  -5.644  0.00  0.00    -0.271 OA
HETATM    2  H           1     -19.824  -6.895  -4.706  0.00  0.00     0.163 HD
HETATM    3  C           1     -21.345  -5.818  -5.607  0.00  0.00     0.248 C 
HETATM    4  N           1     -20.824  -6.738  -4.737  0.00  0.00    -0.344 N 
ENDROOT
BRANCH   4   5
HETATM    5  C           1     -21.703  -7.486  -3.860  0.00  0.00     0.195 C 
BRANCH   5   6
HETATM    6  C           1     -21.643  -6.902  -2.471  0.00  0.00     0.197 C 
HETATM    7  O           1     -22.335  -5.900  -2.183  0.00  0.00    -0.646 OA
HETATM    8  O           1     -20.904  -7.419  -1.606  0.00  0.00    -0.646 OA
ENDBRANCH   5   6
BRANCH   5   9
HETATM    9  C           1     -21.259  -8.942  -3.819  0.00  0.00     0.149 C 
BRANCH   9  10
HETATM   10  C           1     -19.953  -9.091  -4.560  0.00  0.00     0.175 C 
HETATM   11  O           1     -18.870  -8.911  -3.962  0.00  0.00    -0.648 OA
HETATM   12  O           1     -19.953  -9.395  -5.773  0.00  0.00    -0.648 OA
ENDBRANCH   9  10
ENDBRANCH   5   9
ENDBRANCH   4   5
BRANCH   3  13
HETATM   13  C           1     -20.430  -5.039  -6.519  0.00  0.00     0.270 C 
HETATM   14  C           1     -21.179  -3.844  -7.093  0.00  0.00     0.050 C 
BRANCH  13  15
HETATM   15  N           1     -19.970  -5.924  -7.640  0.00  0.00    -0.067 N 
HETATM   16  H           1     -19.747  -6.873  -7.265  0.00  0.00     0.275 HD
HETATM   17  H           1     -20.727  -6.001  -8.356  0.00  0.00     0.275 HD
HETATM   18  H           1     -19.114  -5.513  -8.078  0.00  0.00     0.275 HD
ENDBRANCH  13  15
ENDBRANCH   3  13
TORSDOF 6
ENDMDL
MODEL 9
REMARK VINA RESULT:      -4.6     24.657     25.955
REMARK  6 active torsions:
REMARK  status: ('A' for Active; 'I' for Inactive)
REMARK    1  A    between atoms: C_2  and  C_14 
REMARK    2  A    between atoms: N_5  and  C_7 
REMARK    3  A    between atoms: C_7  and  C_8 
REMARK       I    between atoms: C_8  and  N_9 
REMARK    4  A    between atoms: N_9  and  C_13 
REMARK    5  A    between atoms: C_12  and  C_13 
REMARK    6  A    between atoms: C_13  and  C_14 
ROOT
HETATM    1  O           1     -11.098   3.819 -22.633  0.00  0.00    -0.271 OA
HETATM    2  H           1     -12.987   5.707 -20.988  0.00  0.00     0.163 HD
HETATM    3  C           1     -12.134   4.257 -22.193  0.00  0.00     0.248 C 
HETATM    4  N           1     -12.119   5.340 -21.356  0.00  0.00    -0.344 N 
ENDROOT
BRANCH   4   5
HETATM    5  C           1     -10.859   5.961 -20.996  0.00  0.00     0.195 C 
BRANCH   5   6
HETATM    6  C           1     -10.515   5.610 -19.570  0.00  0.00     0.197 C 
HETATM    7  O           1     -11.408   5.207 -18.792  0.00  0.00    -0.646 OA
HETATM    8  O           1      -9.338   5.720 -19.165  0.00  0.00    -0.646 OA
ENDBRANCH   5   6
BRANCH   5   9
HETATM    9  C           1     -10.982   7.473 -21.132  0.00  0.00     0.149 C 
BRANCH   9  10
HETATM   10  C           1     -12.424   7.880 -20.949  0.00  0.00     0.175 C 
HETATM   11  O           1     -13.143   8.099 -21.947  0.00  0.00    -0.648 OA
HETATM   12  O           1     -12.898   7.998 -19.798  0.00  0.00    -0.648 OA
ENDBRANCH   9  10
ENDBRANCH   5   9
ENDBRANCH   4   5
BRANCH   3  13
HETATM   13  C           1     -13.445   3.611 -22.568  0.00  0.00     0.270 C 
HETATM   14  C           1     -14.576   4.614 -22.390  0.00  0.00     0.050 C 
BRANCH  13  15
HETATM   15  N           1     -13.687   2.422 -21.685  0.00  0.00    -0.067 N 
HETATM   16  H           1     -13.321   1.562 -22.151  0.00  0.00     0.275 HD
HETATM   17  H           1     -13.196   2.561 -20.773  0.00  0.00     0.275 HD
HETATM   18  H           1     -14.714   2.317 -21.518  0.00  0.00     0.275 HD
ENDBRANCH  13  15
ENDBRANCH   3  13
TORSDOF 6
ENDMDL
