MODEL 1
REMARK VINA RESULT:      -6.2      0.000      0.000
REMARK  10 active torsions:
REMARK  status: ('A' for Active; 'I' for Inactive)
REMARK    1  A    between atoms: N_8  and  C_15 
REMARK    2  A    between atoms: O_11  and  P_12 
REMARK    3  A    between atoms: P_12  and  O_13 
REMARK    4  A    between atoms: O_13  and  C_14 
REMARK    5  A    between atoms: C_14  and  C_15 
REMARK    6  A    between atoms: C_15  and  C_16 
REMARK       I    between atoms: C_16  and  N_17 
REMARK    7  A    between atoms: N_17  and  C_21 
REMARK    8  A    between atoms: C_20  and  C_21 
REMARK    9  A    between atoms: C_21  and  C_23 
REMARK   10  A    between atoms: O_22  and  C_23 
ROOT
HETATM    1  C           1     -36.651  -0.775 -11.251  0.00  0.00     0.298 C 
ENDROOT
BRANCH   1   2
HETATM    2  N           1     -36.375   0.151 -10.105  0.00  0.00    -0.064 N 
HETATM    3  H           1     -36.602   1.132 -10.387  0.00  0.00     0.275 HD
HETATM    4  H           1     -35.365   0.089  -9.844  0.00  0.00     0.275 HD
HETATM    5  H           1     -36.963  -0.121  -9.286  0.00  0.00     0.275 HD
ENDBRANCH   1   2
BRANCH   1   6
HETATM    6  C           1     -37.404  -0.024 -12.341  0.00  0.00     0.224 C 
BRANCH   6   7
HETATM    7  O           1     -37.411  -0.788 -13.517  0.00  0.00    -0.287 OA
BRANCH   7   8
HETATM    8  P           1     -36.670  -0.131 -14.792  0.00  0.00     0.406 P 
HETATM    9  O           1     -35.799  -1.141 -15.432  0.00  0.00    -0.624 OA
HETATM   10  O           1     -37.685   0.334 -15.764  0.00  0.00    -0.624 OA
BRANCH   8  11
HETATM   11  O           1     -35.775   1.124 -14.309  0.00  0.00    -0.300 OA
HETATM   12  H           1     -34.924   0.975 -14.683  0.00  0.00     0.223 HD
ENDBRANCH   8  11
ENDBRANCH   7   8
ENDBRANCH   6   7
ENDBRANCH   1   6
BRANCH   1  13
HETATM   13  C           1     -35.347  -1.294 -11.805  0.00  0.00     0.251 C 
HETATM   14  O           1     -34.442  -0.527 -12.037  0.00  0.00    -0.271 OA
HETATM   15  N           1     -35.187  -2.632 -12.042  0.00  0.00    -0.342 N 
HETATM   16  H           1     -35.945  -3.274 -11.846  0.00  0.00     0.163 HD
BRANCH  15  17
HETATM   17  C           1     -33.934  -3.131 -12.572  0.00  0.00     0.214 C 
BRANCH  17  18
HETATM   18  C           1     -34.215  -4.095 -13.700  0.00  0.00     0.199 C 
HETATM   19  O           1     -35.006  -5.047 -13.526  0.00  0.00    -0.646 OA
HETATM   20  O           1     -33.656  -3.941 -14.807  0.00  0.00    -0.646 OA
ENDBRANCH  17  18
BRANCH  17  21
HETATM   21  C           1     -33.166  -3.849 -11.470  0.00  0.00     0.147 C 
HETATM   22  C           1     -34.148  -4.420 -10.456  0.00  0.00     0.042 C 
BRANCH  21  23
HETATM   23  O           1     -32.413  -4.890 -12.029  0.00  0.00    -0.393 OA
HETATM   24  H           1     -31.772  -5.143 -11.386  0.00  0.00     0.210 HD
ENDBRANCH  21  23
ENDBRANCH  17  21
ENDBRANCH  15  17
ENDBRANCH   1  13
TORSDOF 10
ENDMDL
MODEL 2
REMARK VINA RESULT:      -5.8     12.653     15.454
REMARK  10 active torsions:
REMARK  status: ('A' for Active; 'I' for Inactive)
REMARK    1  A    between atoms: N_8  and  C_15 
REMARK    2  A    between atoms: O_11  and  P_12 
REMARK    3  A    between atoms: P_12  and  O_13 
REMARK    4  A    between atoms: O_13  and  C_14 
REMARK    5  A    between atoms: C_14  and  C_15 
REMARK    6  A    between atoms: C_15  and  C_16 
REMARK       I    between atoms: C_16  and  N_17 
REMARK    7  A    between atoms: N_17  and  C_21 
REMARK    8  A    between atoms: C_20  and  C_21 
REMARK    9  A    between atoms: C_21  and  C_23 
REMARK   10  A    between atoms: O_22  and  C_23 
ROOT
HETATM    1  C           1     -21.067  -5.543  -7.219  0.00  0.00     0.298 C 
ENDROOT
BRANCH   1   2
HETATM    2  N           1     -19.827  -6.010  -7.921  0.00  0.00    -0.064 N 
HETATM    3  H           1     -19.019  -5.412  -7.635  0.00  0.00     0.275 HD
HETATM    4  H           1     -19.965  -5.939  -8.955  0.00  0.00     0.275 HD
HETATM    5  H           1     -19.634  -7.004  -7.664  0.00  0.00     0.275 HD
ENDBRANCH   1   2
BRANCH   1   6
HETATM    6  C           1     -20.702  -5.023  -5.836  0.00  0.00     0.224 C 
BRANCH   6   7
HETATM    7  O           1     -20.482  -6.106  -4.971  0.00  0.00    -0.287 OA
BRANCH   7   8
HETATM    8  P           1     -21.751  -6.576  -4.090  0.00  0.00     0.406 P 
HETATM    9  O           1     -21.677  -8.036  -3.861  0.00  0.00    -0.624 OA
HETATM   10  O           1     -21.735  -5.870  -2.790  0.00  0.00    -0.624 OA
BRANCH   8  11
HETATM   11  O           1     -23.115  -6.222  -4.878  0.00  0.00    -0.300 OA
HETATM   12  H           1     -23.575  -7.041  -4.949  0.00  0.00     0.223 HD
ENDBRANCH   8  11
ENDBRANCH   7   8
ENDBRANCH   6   7
ENDBRANCH   1   6
BRANCH   1  13
HETATM   13  C           1     -21.712  -4.438  -8.019  0.00  0.00     0.251 C 
HETATM   14  O           1     -21.875  -3.349  -7.522  0.00  0.00    -0.271 OA
HETATM   15  N           1     -22.111  -4.668  -9.308  0.00  0.00    -0.342 N 
HETATM   16  H           1     -21.974  -5.580  -9.724  0.00  0.00     0.163 HD
BRANCH  15  17
HETATM   17  C           1     -22.729  -3.606 -10.076  0.00  0.00     0.214 C 
BRANCH  17  18
HETATM   18  C           1     -24.183  -3.939 -10.313  0.00  0.00     0.199 C 
HETATM   19  O           1     -24.618  -5.077 -10.030  0.00  0.00    -0.646 OA
HETATM   20  O           1     -24.952  -3.078 -10.793  0.00  0.00    -0.646 OA
ENDBRANCH  17  18
BRANCH  17  21
HETATM   21  C           1     -22.016  -3.466 -11.415  0.00  0.00     0.147 C 
HETATM   22  C           1     -20.552  -3.853 -11.252  0.00  0.00     0.042 C 
BRANCH  21  23
HETATM   23  O           1     -22.621  -4.310 -12.356  0.00  0.00    -0.393 OA
HETATM   24  H           1     -23.552  -4.187 -12.277  0.00  0.00     0.210 HD
ENDBRANCH  21  23
ENDBRANCH  17  21
ENDBRANCH  15  17
ENDBRANCH   1  13
TORSDOF 10
ENDMDL
MODEL 3
REMARK VINA RESULT:      -5.8     11.567     13.663
REMARK  10 active torsions:
REMARK  status: ('A' for Active; 'I' for Inactive)
REMARK    1  A    between atoms: N_8  and  C_15 
REMARK    2  A    between atoms: O_11  and  P_12 
REMARK    3  A    between atoms: P_12  and  O_13 
REMARK    4  A    between atoms: O_13  and  C_14 
REMARK    5  A    between atoms: C_14  and  C_15 
REMARK    6  A    between atoms: C_15  and  C_16 
REMARK       I    between atoms: C_16  and  N_17 
REMARK    7  A    between atoms: N_17  and  C_21 
REMARK    8  A    between atoms: C_20  and  C_21 
REMARK    9  A    between atoms: C_21  and  C_23 
REMARK   10  A    between atoms: O_22  and  C_23 
ROOT
HETATM    1  C           1     -24.029  -3.996 -10.139  0.00  0.00     0.298 C 
ENDROOT
BRANCH   1   2
HETATM    2  N           1     -24.858  -3.371  -9.057  0.00  0.00    -0.064 N 
HETATM    3  H           1     -24.733  -2.334  -9.077  0.00  0.00     0.275 HD
HETATM    4  H           1     -24.553  -3.741  -8.128  0.00  0.00     0.275 HD
HETATM    5  H           1     -25.865  -3.604  -9.211  0.00  0.00     0.275 HD
ENDBRANCH   1   2
BRANCH   1   6
HETATM    6  C           1     -23.703  -2.949 -11.196  0.00  0.00     0.224 C 
BRANCH   6   7
HETATM    7  O           1     -24.433  -3.220 -12.363  0.00  0.00    -0.287 OA
BRANCH   7   8
HETATM    8  P           1     -23.617  -3.105 -13.751  0.00  0.00     0.406 P 
HETATM    9  O           1     -24.090  -4.146 -14.690  0.00  0.00    -0.624 OA
HETATM   10  O           1     -23.840  -1.766 -14.343  0.00  0.00    -0.624 OA
BRANCH   8  11
HETATM   11  O           1     -22.040  -3.311 -13.468  0.00  0.00    -0.300 OA
HETATM   12  H           1     -21.724  -3.813 -14.199  0.00  0.00     0.223 HD
ENDBRANCH   8  11
ENDBRANCH   7   8
ENDBRANCH   6   7
ENDBRANCH   1   6
BRANCH   1  13
HETATM   13  C           1     -22.748  -4.529  -9.547  0.00  0.00     0.251 C 
HETATM   14  O           1     -21.816  -4.798 -10.267  0.00  0.00    -0.271 OA
HETATM   15  N           1     -22.641  -4.708  -8.194  0.00  0.00    -0.342 N 
HETATM   16  H           1     -23.422  -4.483  -7.591  0.00  0.00     0.163 HD
BRANCH  15  17
HETATM   17  C           1     -21.410  -5.220  -7.625  0.00  0.00     0.214 C 
BRANCH  17  18
HETATM   18  C           1     -21.735  -6.159  -6.488  0.00  0.00     0.199 C 
HETATM   19  O           1     -22.504  -5.790  -5.574  0.00  0.00    -0.646 OA
HETATM   20  O           1     -21.234  -7.303  -6.460  0.00  0.00    -0.646 OA
ENDBRANCH  17  18
BRANCH  17  21
HETATM   21  C           1     -20.571  -4.060  -7.102  0.00  0.00     0.147 C 
HETATM   22  C           1     -19.449  -3.762  -8.088  0.00  0.00     0.042 C 
BRANCH  21  23
HETATM   23  O           1     -21.382  -2.926  -6.959  0.00  0.00    -0.393 OA
HETATM   24  H           1     -20.868  -2.276  -6.511  0.00  0.00     0.210 HD
ENDBRANCH  21  23
ENDBRANCH  17  21
ENDBRANCH  15  17
ENDBRANCH   1  13
TORSDOF 10
ENDMDL
MODEL 4
REMARK VINA RESULT:      -5.6     11.531     13.662
REMARK  10 active torsions:
REMARK  status: ('A' for Active; 'I' for Inactive)
REMARK    1  A    between atoms: N_8  and  C_15 
REMARK    2  A    between atoms: O_11  and  P_12 
REMARK    3  A    between atoms: P_12  and  O_13 
REMARK    4  A    between atoms: O_13  and  C_14 
REMARK    5  A    between atoms: C_14  and  C_15 
REMARK    6  A    between atoms: C_15  and  C_16 
REMARK       I    between atoms: C_16  and  N_17 
REMARK    7  A    between atoms: N_17  and  C_21 
REMARK    8  A    between atoms: C_20  and  C_21 
REMARK    9  A    between atoms: C_21  and  C_23 
REMARK   10  A    between atoms: O_22  and  C_23 
ROOT
HETATM    1  C           1     -24.208  -4.617  -9.887  0.00  0.00     0.298 C 
ENDROOT
BRANCH   1   2
HETATM    2  N           1     -25.363  -3.667  -9.782  0.00  0.00    -0.064 N 
HETATM    3  H           1     -25.451  -3.333  -8.795  0.00  0.00     0.275 HD
HETATM    4  H           1     -26.243  -4.157 -10.063  0.00  0.00     0.275 HD
HETATM    5  H           1     -25.202  -2.851 -10.414  0.00  0.00     0.275 HD
ENDBRANCH   1   2
BRANCH   1   6
HETATM    6  C           1     -23.719  -4.663 -11.328  0.00  0.00     0.224 C 
BRANCH   6   7
HETATM    7  O           1     -24.528  -3.839 -12.124  0.00  0.00    -0.287 OA
BRANCH   7   8
HETATM    8  P           1     -23.802  -3.137 -13.383  0.00  0.00     0.406 P 
HETATM    9  O           1     -22.348  -3.045 -13.126  0.00  0.00    -0.624 OA
HETATM   10  O           1     -24.039  -3.945 -14.601  0.00  0.00    -0.624 OA
BRANCH   8  11
HETATM   11  O           1     -24.407  -1.655 -13.597  0.00  0.00    -0.300 OA
HETATM   12  H           1     -24.117  -1.394 -14.454  0.00  0.00     0.223 HD
ENDBRANCH   8  11
ENDBRANCH   7   8
ENDBRANCH   6   7
ENDBRANCH   1   6
BRANCH   1  13
HETATM   13  C           1     -23.089  -4.148  -8.990  0.00  0.00     0.251 C 
HETATM   14  O           1     -22.949  -2.969  -8.763  0.00  0.00    -0.271 OA
HETATM   15  N           1     -22.232  -5.057  -8.430  0.00  0.00    -0.342 N 
HETATM   16  H           1     -22.350  -6.045  -8.620  0.00  0.00     0.163 HD
BRANCH  15  17
HETATM   17  C           1     -21.158  -4.608  -7.568  0.00  0.00     0.214 C 
BRANCH  17  18
HETATM   18  C           1     -19.873  -4.546  -8.357  0.00  0.00     0.199 C 
HETATM   19  O           1     -19.870  -4.849  -9.571  0.00  0.00    -0.646 OA
HETATM   20  O           1     -18.812  -4.194  -7.798  0.00  0.00    -0.646 OA
ENDBRANCH  17  18
BRANCH  17  21
HETATM   21  C           1     -20.996  -5.583  -6.408  0.00  0.00     0.147 C 
HETATM   22  C           1     -22.368  -5.944  -5.854  0.00  0.00     0.042 C 
BRANCH  21  23
HETATM   23  O           1     -20.354  -6.743  -6.861  0.00  0.00    -0.393 OA
HETATM   24  H           1     -20.073  -7.218  -6.098  0.00  0.00     0.210 HD
ENDBRANCH  21  23
ENDBRANCH  17  21
ENDBRANCH  15  17
ENDBRANCH   1  13
TORSDOF 10
ENDMDL
MODEL 5
REMARK VINA RESULT:      -5.3     12.948     15.312
REMARK  10 active torsions:
REMARK  status: ('A' for Active; 'I' for Inactive)
REMARK    1  A    between atoms: N_8  and  C_15 
REMARK    2  A    between atoms: O_11  and  P_12 
REMARK    3  A    between atoms: P_12  and  O_13 
REMARK    4  A    between atoms: O_13  and  C_14 
REMARK    5  A    between atoms: C_14  and  C_15 
REMARK    6  A    between atoms: C_15  and  C_16 
REMARK       I    between atoms: C_16  and  N_17 
REMARK    7  A    between atoms: N_17  and  C_21 
REMARK    8  A    between atoms: C_20  and  C_21 
REMARK    9  A    between atoms: C_21  and  C_23 
REMARK   10  A    between atoms: O_22  and  C_23 
ROOT
HETATM    1  C           1     -21.025  -4.184  -8.017  0.00  0.00     0.298 C 
ENDROOT
BRANCH   1   2
HETATM    2  N           1     -20.229  -4.692  -9.181  0.00  0.00    -0.064 N 
HETATM    3  H           1     -20.643  -4.332 -10.070  0.00  0.00     0.275 HD
HETATM    4  H           1     -20.247  -5.737  -9.185  0.00  0.00     0.275 HD
HETATM    5  H           1     -19.241  -4.362  -9.098  0.00  0.00     0.275 HD
ENDBRANCH   1   2
BRANCH   1   6
HETATM    6  C           1     -22.507  -4.425  -8.272  0.00  0.00     0.224 C 
BRANCH   6   7
HETATM    7  O           1     -23.047  -3.332  -8.966  0.00  0.00    -0.287 OA
BRANCH   7   8
HETATM    8  P           1     -23.966  -3.689 -10.244  0.00  0.00     0.406 P 
HETATM    9  O           1     -25.364  -3.288  -9.973  0.00  0.00    -0.624 OA
HETATM   10  O           1     -23.464  -2.961 -11.431  0.00  0.00    -0.624 OA
BRANCH   8  11
HETATM   11  O           1     -23.906  -5.278 -10.524  0.00  0.00    -0.300 OA
HETATM   12  H           1     -24.628  -5.639 -10.040  0.00  0.00     0.223 HD
ENDBRANCH   8  11
ENDBRANCH   7   8
ENDBRANCH   6   7
ENDBRANCH   1   6
BRANCH   1  13
HETATM   13  C           1     -20.605  -4.911  -6.763  0.00  0.00     0.251 C 
HETATM   14  O           1     -19.763  -4.432  -6.041  0.00  0.00    -0.271 OA
HETATM   15  N           1     -21.178  -6.112  -6.443  0.00  0.00    -0.342 N 
HETATM   16  H           1     -21.884  -6.512  -7.048  0.00  0.00     0.163 HD
BRANCH  15  17
HETATM   17  C           1     -20.775  -6.810  -5.238  0.00  0.00     0.214 C 
BRANCH  17  18
HETATM   18  C           1     -20.370  -8.222  -5.588  0.00  0.00     0.199 C 
HETATM   19  O           1     -19.159  -8.535  -5.615  0.00  0.00    -0.646 OA
HETATM   20  O           1     -21.243  -9.075  -5.853  0.00  0.00    -0.646 OA
ENDBRANCH  17  18
BRANCH  17  21
HETATM   21  C           1     -21.940  -6.844  -4.257  0.00  0.00     0.147 C 
HETATM   22  C           1     -21.521  -6.186  -2.949  0.00  0.00     0.042 C 
BRANCH  21  23
HETATM   23  O           1     -23.029  -6.151  -4.803  0.00  0.00    -0.393 OA
HETATM   24  H           1     -23.698  -6.789  -4.984  0.00  0.00     0.210 HD
ENDBRANCH  21  23
ENDBRANCH  17  21
ENDBRANCH  15  17
ENDBRANCH   1  13
TORSDOF 10
ENDMDL
MODEL 6
REMARK VINA RESULT:      -5.2      1.423      2.346
REMARK  10 active torsions:
REMARK  status: ('A' for Active; 'I' for Inactive)
REMARK    1  A    between atoms: N_8  and  C_15 
REMARK    2  A    between atoms: O_11  and  P_12 
REMARK    3  A    between atoms: P_12  and  O_13 
REMARK    4  A    between atoms: O_13  and  C_14 
REMARK    5  A    between atoms: C_14  and  C_15 
REMARK    6  A    between atoms: C_15  and  C_16 
REMARK       I    between atoms: C_16  and  N_17 
REMARK    7  A    between atoms: N_17  and  C_21 
REMARK    8  A    between atoms: C_20  and  C_21 
REMARK    9  A    between atoms: C_21  and  C_23 
REMARK   10  A    between atoms: O_22  and  C_23 
ROOT
HETATM    1  C           1     -37.014  -0.382 -11.541  0.00  0.00     0.298 C 
ENDROOT
BRANCH   1   2
HETATM    2  N           1     -36.184   0.777 -11.076  0.00  0.00    -0.064 N 
HETATM    3  H           1     -35.820   1.299 -11.904  0.00  0.00     0.275 HD
HETATM    4  H           1     -35.382   0.424 -10.506  0.00  0.00     0.275 HD
HETATM    5  H           1     -36.771   1.414 -10.492  0.00  0.00     0.275 HD
ENDBRANCH   1   2
BRANCH   1   6
HETATM    6  C           1     -37.338  -0.212 -13.019  0.00  0.00     0.224 C 
BRANCH   6   7
HETATM    7  O           1     -36.287   0.464 -13.654  0.00  0.00    -0.287 OA
BRANCH   7   8
HETATM    8  P           1     -36.139   0.210 -15.242  0.00  0.00     0.406 P 
HETATM    9  O           1     -34.807  -0.366 -15.527  0.00  0.00    -0.624 OA
HETATM   10  O           1     -37.191  -0.731 -15.690  0.00  0.00    -0.624 OA
BRANCH   8  11
HETATM   11  O           1     -36.301   1.611 -16.030  0.00  0.00    -0.300 OA
HETATM   12  H           1     -37.187   1.883 -15.864  0.00  0.00     0.223 HD
ENDBRANCH   8  11
ENDBRANCH   7   8
ENDBRANCH   6   7
ENDBRANCH   1   6
BRANCH   1  13
HETATM   13  C           1     -36.245  -1.665 -11.337  0.00  0.00     0.251 C 
HETATM   14  O           1     -36.568  -2.428 -10.458  0.00  0.00    -0.271 OA
HETATM   15  N           1     -35.185  -1.965 -12.149  0.00  0.00    -0.342 N 
HETATM   16  H           1     -34.916  -1.325 -12.886  0.00  0.00     0.163 HD
BRANCH  15  17
HETATM   17  C           1     -34.448  -3.197 -11.954  0.00  0.00     0.214 C 
BRANCH  17  18
HETATM   18  C           1     -33.142  -2.897 -11.258  0.00  0.00     0.199 C 
HETATM   19  O           1     -32.143  -3.619 -11.466  0.00  0.00    -0.646 OA
HETATM   20  O           1     -33.061  -1.927 -10.474  0.00  0.00    -0.646 OA
ENDBRANCH  17  18
BRANCH  17  21
HETATM   21  C           1     -34.167  -3.840 -13.307  0.00  0.00     0.147 C 
HETATM   22  C           1     -34.832  -5.209 -13.366  0.00  0.00     0.042 C 
BRANCH  21  23
HETATM   23  O           1     -34.681  -3.026 -14.325  0.00  0.00    -0.393 OA
HETATM   24  H           1     -33.959  -2.800 -14.887  0.00  0.00     0.210 HD
ENDBRANCH  21  23
ENDBRANCH  17  21
ENDBRANCH  15  17
ENDBRANCH   1  13
TORSDOF 10
ENDMDL
MODEL 7
REMARK VINA RESULT:      -5.1     14.853     17.776
REMARK  10 active torsions:
REMARK  status: ('A' for Active; 'I' for Inactive)
REMARK    1  A    between atoms: N_8  and  C_15 
REMARK    2  A    between atoms: O_11  and  P_12 
REMARK    3  A    between atoms: P_12  and  O_13 
REMARK    4  A    between atoms: O_13  and  C_14 
REMARK    5  A    between atoms: C_14  and  C_15 
REMARK    6  A    between atoms: C_15  and  C_16 
REMARK       I    between atoms: C_16  and  N_17 
REMARK    7  A    between atoms: N_17  and  C_21 
REMARK    8  A    between atoms: C_20  and  C_21 
REMARK    9  A    between atoms: C_21  and  C_23 
REMARK   10  A    between atoms: O_22  and  C_23 
ROOT
HETATM    1  C           1     -21.418  -6.664  -2.988  0.00  0.00     0.298 C 
ENDROOT
BRANCH   1   2
HETATM    2  N           1     -22.530  -5.815  -2.452  0.00  0.00    -0.064 N 
HETATM    3  H           1     -22.892  -5.194  -3.211  0.00  0.00     0.275 HD
HETATM    4  H           1     -22.173  -5.229  -1.663  0.00  0.00     0.275 HD
HETATM    5  H           1     -23.303  -6.428  -2.107  0.00  0.00     0.275 HD
ENDBRANCH   1   2
BRANCH   1   6
HETATM    6  C           1     -21.555  -8.081  -2.447  0.00  0.00     0.224 C 
BRANCH   6   7
HETATM    7  O           1     -21.004  -8.146  -1.159  0.00  0.00    -0.287 OA
BRANCH   7   8
HETATM    8  P           1     -22.038  -8.468   0.038  0.00  0.00     0.406 P 
HETATM    9  O           1     -23.143  -7.484   0.014  0.00  0.00    -0.624 OA
HETATM   10  O           1     -22.586  -9.832  -0.140  0.00  0.00    -0.624 OA
BRANCH   8  11
HETATM   11  O           1     -21.268  -8.380   1.455  0.00  0.00    -0.300 OA
HETATM   12  H           1     -20.988  -7.483   1.525  0.00  0.00     0.223 HD
ENDBRANCH   8  11
ENDBRANCH   7   8
ENDBRANCH   6   7
ENDBRANCH   1   6
BRANCH   1  13
HETATM   13  C           1     -21.486  -6.691  -4.495  0.00  0.00     0.251 C 
HETATM   14  O           1     -21.433  -7.745  -5.083  0.00  0.00    -0.271 OA
HETATM   15  N           1     -21.611  -5.523  -5.196  0.00  0.00    -0.342 N 
HETATM   16  H           1     -21.656  -4.639  -4.703  0.00  0.00     0.163 HD
BRANCH  15  17
HETATM   17  C           1     -21.679  -5.548  -6.644  0.00  0.00     0.214 C 
BRANCH  17  18
HETATM   18  C           1     -20.287  -5.411  -7.214  0.00  0.00     0.199 C 
HETATM   19  O           1     -19.732  -4.291  -7.243  0.00  0.00    -0.646 OA
HETATM   20  O           1     -19.691  -6.415  -7.657  0.00  0.00    -0.646 OA
ENDBRANCH  17  18
BRANCH  17  21
HETATM   21  C           1     -22.544  -4.394  -7.133  0.00  0.00     0.147 C 
HETATM   22  C           1     -22.629  -4.432  -8.653  0.00  0.00     0.042 C 
BRANCH  21  23
HETATM   23  O           1     -23.831  -4.513  -6.589  0.00  0.00    -0.393 OA
HETATM   24  H           1     -24.285  -3.710  -6.779  0.00  0.00     0.210 HD
ENDBRANCH  21  23
ENDBRANCH  17  21
ENDBRANCH  15  17
ENDBRANCH   1  13
TORSDOF 10
ENDMDL
MODEL 8
REMARK VINA RESULT:      -5.0     15.334     17.541
REMARK  10 active torsions:
REMARK  status: ('A' for Active; 'I' for Inactive)
REMARK    1  A    between atoms: N_8  and  C_15 
REMARK    2  A    between atoms: O_11  and  P_12 
REMARK    3  A    between atoms: P_12  and  O_13 
REMARK    4  A    between atoms: O_13  and  C_14 
REMARK    5  A    between atoms: C_14  and  C_15 
REMARK    6  A    between atoms: C_15  and  C_16 
REMARK       I    between atoms: C_16  and  N_17 
REMARK    7  A    between atoms: N_17  and  C_21 
REMARK    8  A    between atoms: C_20  and  C_21 
REMARK    9  A    between atoms: C_21  and  C_23 
REMARK   10  A    between atoms: O_22  and  C_23 
ROOT
HETATM    1  C           1     -21.600  -7.114  -5.380  0.00  0.00     0.298 C 
ENDROOT
BRANCH   1   2
HETATM    2  N           1     -22.661  -6.220  -4.814  0.00  0.00    -0.064 N 
HETATM    3  H           1     -22.215  -5.382  -4.377  0.00  0.00     0.275 HD
HETATM    4  H           1     -23.206  -6.741  -4.089  0.00  0.00     0.275 HD
HETATM    5  H           1     -23.304  -5.914  -5.578  0.00  0.00     0.275 HD
ENDBRANCH   1   2
BRANCH   1   6
HETATM    6  C           1     -20.605  -6.280  -6.176  0.00  0.00     0.224 C 
BRANCH   6   7
HETATM    7  O           1     -21.064  -6.135  -7.493  0.00  0.00    -0.287 OA
BRANCH   7   8
HETATM    8  P           1     -21.472  -4.638  -7.940  0.00  0.00     0.406 P 
HETATM    9  O           1     -20.410  -3.694  -7.529  0.00  0.00    -0.624 OA
HETATM   10  O           1     -21.633  -4.591  -9.411  0.00  0.00    -0.624 OA
BRANCH   8  11
HETATM   11  O           1     -22.864  -4.225  -7.234  0.00  0.00    -0.300 OA
HETATM   12  H           1     -23.375  -3.825  -7.916  0.00  0.00     0.223 HD
ENDBRANCH   8  11
ENDBRANCH   7   8
ENDBRANCH   6   7
ENDBRANCH   1   6
BRANCH   1  13
HETATM   13  C           1     -20.881  -7.817  -4.255  0.00  0.00     0.251 C 
HETATM   14  O           1     -19.749  -8.209  -4.413  0.00  0.00    -0.271 OA
HETATM   15  N           1     -21.510  -8.010  -3.054  0.00  0.00    -0.342 N 
HETATM   16  H           1     -22.458  -7.681  -2.922  0.00  0.00     0.163 HD
BRANCH  15  17
HETATM   17  C           1     -20.820  -8.684  -1.973  0.00  0.00     0.214 C 
BRANCH  17  18
HETATM   18  C           1     -21.245 -10.132  -1.932  0.00  0.00     0.199 C 
HETATM   19  O           1     -20.419 -11.017  -1.616  0.00  0.00    -0.646 OA
HETATM   20  O           1     -22.421 -10.447  -2.214  0.00  0.00    -0.646 OA
ENDBRANCH  17  18
BRANCH  17  21
HETATM   21  C           1     -21.170  -8.013  -0.651  0.00  0.00     0.147 C 
HETATM   22  C           1     -22.305  -7.022  -0.870  0.00  0.00     0.042 C 
BRANCH  21  23
HETATM   23  O           1     -21.571  -8.987   0.274  0.00  0.00    -0.393 OA
HETATM   24  H           1     -21.258  -9.816  -0.047  0.00  0.00     0.210 HD
ENDBRANCH  21  23
ENDBRANCH  17  21
ENDBRANCH  15  17
ENDBRANCH   1  13
TORSDOF 10
ENDMDL
MODEL 9
REMARK VINA RESULT:      -4.9     16.249     18.335
REMARK  10 active torsions:
REMARK  status: ('A' for Active; 'I' for Inactive)
REMARK    1  A    between atoms: N_8  and  C_15 
REMARK    2  A    between atoms: O_11  and  P_12 
REMARK    3  A    between atoms: P_12  and  O_13 
REMARK    4  A    between atoms: O_13  and  C_14 
REMARK    5  A    between atoms: C_14  and  C_15 
REMARK    6  A    between atoms: C_15  and  C_16 
REMARK       I    between atoms: C_16  and  N_17 
REMARK    7  A    between atoms: N_17  and  C_21 
REMARK    8  A    between atoms: C_20  and  C_21 
REMARK    9  A    between atoms: C_21  and  C_23 
REMARK   10  A    between atoms: O_22  and  C_23 
ROOT
HETATM    1  C           1     -20.175  -8.613  -4.774  0.00  0.00     0.298 C 
ENDROOT
BRANCH   1   2
HETATM    2  N           1     -20.027  -9.939  -5.457  0.00  0.00    -0.064 N 
HETATM    3  H           1     -19.680  -9.792  -6.432  0.00  0.00     0.275 HD
HETATM    4  H           1     -20.954 -10.421  -5.486  0.00  0.00     0.275 HD
HETATM    5  H           1     -19.346 -10.529  -4.929  0.00  0.00     0.275 HD
ENDBRANCH   1   2
BRANCH   1   6
HETATM    6  C           1     -21.489  -7.969  -5.196  0.00  0.00     0.224 C 
BRANCH   6   7
HETATM    7  O           1     -21.470  -6.606  -4.863  0.00  0.00    -0.287 OA
BRANCH   7   8
HETATM    8  P           1     -21.308  -5.579  -6.098  0.00  0.00     0.406 P 
HETATM    9  O           1     -20.856  -6.317  -7.298  0.00  0.00    -0.624 OA
HETATM   10  O           1     -22.611  -4.934  -6.376  0.00  0.00    -0.624 OA
BRANCH   8  11
HETATM   11  O           1     -20.219  -4.448  -5.719  0.00  0.00    -0.300 OA
HETATM   12  H           1     -19.551  -4.904  -5.238  0.00  0.00     0.223 HD
ENDBRANCH   8  11
ENDBRANCH   7   8
ENDBRANCH   6   7
ENDBRANCH   1   6
BRANCH   1  13
HETATM   13  C           1     -20.170  -8.814  -3.278  0.00  0.00     0.251 C 
HETATM   14  O           1     -19.164  -9.191  -2.724  0.00  0.00    -0.271 OA
HETATM   15  N           1     -21.302  -8.568  -2.550  0.00  0.00    -0.342 N 
HETATM   16  H           1     -22.144  -8.252  -3.015  0.00  0.00     0.163 HD
BRANCH  15  17
HETATM   17  C           1     -21.296  -8.760  -1.113  0.00  0.00     0.214 C 
BRANCH  17  18
HETATM   18  C           1     -22.072 -10.010  -0.771  0.00  0.00     0.199 C 
HETATM   19  O           1     -22.956 -10.429  -1.549  0.00  0.00    -0.646 OA
HETATM   20  O           1     -21.830 -10.625   0.290  0.00  0.00    -0.646 OA
ENDBRANCH  17  18
BRANCH  17  21
HETATM   21  C           1     -21.945  -7.559  -0.437  0.00  0.00     0.147 C 
HETATM   22  C           1     -22.291  -6.512  -1.488  0.00  0.00     0.042 C 
BRANCH  21  23
HETATM   23  O           1     -23.115  -7.968   0.217  0.00  0.00    -0.393 OA
HETATM   24  H           1     -23.551  -8.577  -0.354  0.00  0.00     0.210 HD
ENDBRANCH  21  23
ENDBRANCH  17  21
ENDBRANCH  15  17
ENDBRANCH   1  13
TORSDOF 10
ENDMDL
