MODEL 1
REMARK VINA RESULT:      -6.1      0.000      0.000
REMARK  6 active torsions:
REMARK  status: ('A' for Active; 'I' for Inactive)
REMARK       I    between atoms: C_3  and  N_11 
REMARK    1  A    between atoms: C_3  and  C_7 
REMARK    2  A    between atoms: C_7  and  C_8 
REMARK    3  A    between atoms: C_7  and  N_14 
REMARK    4  A    between atoms: C_8  and  C_16 
REMARK    5  A    between atoms: C_10  and  C_13 
REMARK    6  A    between atoms: C_10  and  N_11 
ROOT
HETATM    1  C           1     -22.963  -2.883 -12.292  0.00  0.00     0.284 C 
ENDROOT
BRANCH   1   2
HETATM    2  C           1     -23.666  -3.262 -11.011  0.00  0.00     0.249 C 
HETATM    3  N           1     -22.940  -3.684  -9.931  0.00  0.00    -0.349 N 
HETATM    4  H           1     -21.931  -3.743  -9.990  0.00  0.00     0.163 HD
HETATM    5  O           1     -24.870  -3.192 -10.940  0.00  0.00    -0.271 OA
BRANCH   3   6
HETATM    6  C           1     -23.616  -4.048  -8.700  0.00  0.00     0.235 C 
BRANCH   6   7
HETATM    7  C           1     -22.598  -4.230  -7.601  0.00  0.00     0.191 C 
HETATM    8  O           1     -22.919  -4.813  -6.543  0.00  0.00    -0.647 OA
HETATM    9  O           1     -21.435  -3.797  -7.749  0.00  0.00    -0.647 OA
ENDBRANCH   6   7
ENDBRANCH   3   6
ENDBRANCH   1   2
BRANCH   1  10
HETATM   10  C           1     -23.891  -3.132 -13.474  0.00  0.00     0.155 C 
BRANCH  10  11
HETATM   11  C           1     -23.434  -2.309 -14.654  0.00  0.00     0.175 C 
HETATM   12  O           1     -22.506  -2.723 -15.383  0.00  0.00    -0.648 OA
HETATM   13  O           1     -23.985  -1.216 -14.904  0.00  0.00    -0.648 OA
ENDBRANCH  10  11
ENDBRANCH   1  10
BRANCH   1  14
HETATM   14  N           1     -21.724  -3.713 -12.446  0.00  0.00    -0.066 N 
HETATM   15  H           1     -20.981  -3.354 -11.805  0.00  0.00     0.275 HD
HETATM   16  H           1     -21.940  -4.708 -12.206  0.00  0.00     0.275 HD
HETATM   17  H           1     -21.388  -3.658 -13.434  0.00  0.00     0.275 HD
ENDBRANCH   1  14
TORSDOF 6
ENDMDL
MODEL 2
REMARK VINA RESULT:      -6.0      1.407      5.631
REMARK  6 active torsions:
REMARK  status: ('A' for Active; 'I' for Inactive)
REMARK       I    between atoms: C_3  and  N_11 
REMARK    1  A    between atoms: C_3  and  C_7 
REMARK    2  A    between atoms: C_7  and  C_8 
REMARK    3  A    between atoms: C_7  and  N_14 
REMARK    4  A    between atoms: C_8  and  C_16 
REMARK    5  A    between atoms: C_10  and  C_13 
REMARK    6  A    between atoms: C_10  and  N_11 
ROOT
HETATM    1  C           1     -23.226  -3.496  -9.237  0.00  0.00     0.284 C 
ENDROOT
BRANCH   1   2
HETATM    2  C           1     -24.137  -3.288 -10.423  0.00  0.00     0.249 C 
HETATM    3  N           1     -23.605  -3.106 -11.671  0.00  0.00    -0.349 N 
HETATM    4  H           1     -22.602  -3.111 -11.800  0.00  0.00     0.163 HD
HETATM    5  O           1     -25.335  -3.282 -10.270  0.00  0.00    -0.271 OA
BRANCH   3   6
HETATM    6  C           1     -24.481  -2.907 -12.810  0.00  0.00     0.235 C 
BRANCH   6   7
HETATM    7  C           1     -23.680  -2.382 -13.976  0.00  0.00     0.191 C 
HETATM    8  O           1     -22.573  -2.891 -14.253  0.00  0.00    -0.647 OA
HETATM    9  O           1     -24.125  -1.439 -14.665  0.00  0.00    -0.647 OA
ENDBRANCH   6   7
ENDBRANCH   3   6
ENDBRANCH   1   2
BRANCH   1  10
HETATM   10  C           1     -22.132  -4.490  -9.605  0.00  0.00     0.155 C 
BRANCH  10  11
HETATM   11  C           1     -20.944  -4.290  -8.696  0.00  0.00     0.175 C 
HETATM   12  O           1     -19.814  -4.697  -9.047  0.00  0.00    -0.648 OA
HETATM   13  O           1     -21.088  -3.717  -7.596  0.00  0.00    -0.648 OA
ENDBRANCH  10  11
ENDBRANCH   1  10
BRANCH   1  14
HETATM   14  N           1     -24.021  -4.032  -8.085  0.00  0.00    -0.066 N 
HETATM   15  H           1     -25.034  -4.049  -8.338  0.00  0.00     0.275 HD
HETATM   16  H           1     -23.701  -5.002  -7.862  0.00  0.00     0.275 HD
HETATM   17  H           1     -23.881  -3.418  -7.250  0.00  0.00     0.275 HD
ENDBRANCH   1  14
TORSDOF 6
ENDMDL
MODEL 3
REMARK VINA RESULT:      -5.8      1.963      2.850
REMARK  6 active torsions:
REMARK  status: ('A' for Active; 'I' for Inactive)
REMARK       I    between atoms: C_3  and  N_11 
REMARK    1  A    between atoms: C_3  and  C_7 
REMARK    2  A    between atoms: C_7  and  C_8 
REMARK    3  A    between atoms: C_7  and  N_14 
REMARK    4  A    between atoms: C_8  and  C_16 
REMARK    5  A    between atoms: C_10  and  C_13 
REMARK    6  A    between atoms: C_10  and  N_11 
ROOT
HETATM    1  C           1     -22.112  -4.072 -11.965  0.00  0.00     0.284 C 
ENDROOT
BRANCH   1   2
HETATM    2  C           1     -21.237  -4.220 -10.744  0.00  0.00     0.249 C 
HETATM    3  N           1     -21.744  -3.951  -9.502  0.00  0.00    -0.349 N 
HETATM    4  H           1     -22.705  -3.652  -9.400  0.00  0.00     0.163 HD
HETATM    5  O           1     -20.089  -4.576 -10.864  0.00  0.00    -0.271 OA
BRANCH   3   6
HETATM    6  C           1     -20.902  -4.093  -8.329  0.00  0.00     0.235 C 
BRANCH   6   7
HETATM    7  C           1     -21.475  -5.154  -7.423  0.00  0.00     0.191 C 
HETATM    8  O           1     -20.942  -6.283  -7.367  0.00  0.00    -0.647 OA
HETATM    9  O           1     -22.483  -4.904  -6.727  0.00  0.00    -0.647 OA
ENDBRANCH   6   7
ENDBRANCH   3   6
ENDBRANCH   1   2
BRANCH   1  10
HETATM   10  C           1     -22.851  -2.741 -11.902  0.00  0.00     0.155 C 
BRANCH  10  11
HETATM   11  C           1     -24.338  -2.986 -11.966  0.00  0.00     0.175 C 
HETATM   12  O           1     -24.985  -3.182 -10.914  0.00  0.00    -0.648 OA
HETATM   13  O           1     -24.923  -2.993 -13.070  0.00  0.00    -0.648 OA
ENDBRANCH  10  11
ENDBRANCH   1  10
BRANCH   1  14
HETATM   14  N           1     -23.107  -5.193 -12.004  0.00  0.00    -0.066 N 
HETATM   15  H           1     -23.041  -5.686 -12.922  0.00  0.00     0.275 HD
HETATM   16  H           1     -22.903  -5.866 -11.231  0.00  0.00     0.275 HD
HETATM   17  H           1     -24.072  -4.807 -11.885  0.00  0.00     0.275 HD
ENDBRANCH   1  14
TORSDOF 6
ENDMDL
MODEL 4
REMARK VINA RESULT:      -5.8      2.014      2.655
REMARK  6 active torsions:
REMARK  status: ('A' for Active; 'I' for Inactive)
REMARK       I    between atoms: C_3  and  N_11 
REMARK    1  A    between atoms: C_3  and  C_7 
REMARK    2  A    between atoms: C_7  and  C_8 
REMARK    3  A    between atoms: C_7  and  N_14 
REMARK    4  A    between atoms: C_8  and  C_16 
REMARK    5  A    between atoms: C_10  and  C_13 
REMARK    6  A    between atoms: C_10  and  N_11 
ROOT
HETATM    1  C           1     -23.797  -4.013 -10.529  0.00  0.00     0.284 C 
ENDROOT
BRANCH   1   2
HETATM    2  C           1     -22.646  -4.107  -9.557  0.00  0.00     0.249 C 
HETATM    3  N           1     -22.859  -3.902  -8.221  0.00  0.00    -0.349 N 
HETATM    4  H           1     -23.789  -3.687  -7.884  0.00  0.00     0.163 HD
HETATM    5  O           1     -21.536  -4.364  -9.959  0.00  0.00    -0.271 OA
BRANCH   3   6
HETATM    6  C           1     -21.753  -3.992  -7.288  0.00  0.00     0.235 C 
BRANCH   6   7
HETATM    7  C           1     -21.708  -5.378  -6.691  0.00  0.00     0.191 C 
HETATM    8  O           1     -21.008  -6.265  -7.223  0.00  0.00    -0.647 OA
HETATM    9  O           1     -22.372  -5.637  -5.664  0.00  0.00    -0.647 OA
ENDBRANCH   6   7
ENDBRANCH   3   6
ENDBRANCH   1   2
BRANCH   1  10
HETATM   10  C           1     -23.507  -2.928 -11.558  0.00  0.00     0.155 C 
BRANCH  10  11
HETATM   11  C           1     -24.424  -3.101 -12.744  0.00  0.00     0.175 C 
HETATM   12  O           1     -23.957  -3.465 -13.845  0.00  0.00    -0.648 OA
HETATM   13  O           1     -25.648  -2.881 -12.625  0.00  0.00    -0.648 OA
ENDBRANCH  10  11
ENDBRANCH   1  10
BRANCH   1  14
HETATM   14  N           1     -25.052  -3.672  -9.783  0.00  0.00    -0.066 N 
HETATM   15  H           1     -25.185  -4.346  -8.996  0.00  0.00     0.275 HD
HETATM   16  H           1     -24.978  -2.702  -9.402  0.00  0.00     0.275 HD
HETATM   17  H           1     -25.870  -3.730 -10.433  0.00  0.00     0.275 HD
ENDBRANCH   1  14
TORSDOF 6
ENDMDL
MODEL 5
REMARK VINA RESULT:      -5.7      1.600      1.979
REMARK  6 active torsions:
REMARK  status: ('A' for Active; 'I' for Inactive)
REMARK       I    between atoms: C_3  and  N_11 
REMARK    1  A    between atoms: C_3  and  C_7 
REMARK    2  A    between atoms: C_7  and  C_8 
REMARK    3  A    between atoms: C_7  and  N_14 
REMARK    4  A    between atoms: C_8  and  C_16 
REMARK    5  A    between atoms: C_10  and  C_13 
REMARK    6  A    between atoms: C_10  and  N_11 
ROOT
HETATM    1  C           1     -22.497  -4.063 -11.654  0.00  0.00     0.284 C 
ENDROOT
BRANCH   1   2
HETATM    2  C           1     -22.779  -3.893 -10.181  0.00  0.00     0.249 C 
HETATM    3  N           1     -21.872  -4.332  -9.255  0.00  0.00    -0.349 N 
HETATM    4  H           1     -21.012  -4.771  -9.557  0.00  0.00     0.163 HD
HETATM    5  O           1     -23.806  -3.368  -9.820  0.00  0.00    -0.271 OA
BRANCH   3   6
HETATM    6  C           1     -22.144  -4.167  -7.840  0.00  0.00     0.235 C 
BRANCH   6   7
HETATM    7  C           1     -21.193  -5.024  -7.041  0.00  0.00     0.191 C 
HETATM    8  O           1     -20.672  -4.574  -5.998  0.00  0.00    -0.647 OA
HETATM    9  O           1     -20.926  -6.184  -7.423  0.00  0.00    -0.647 OA
ENDBRANCH   6   7
ENDBRANCH   3   6
ENDBRANCH   1   2
BRANCH   1  10
HETATM   10  C           1     -22.697  -2.732 -12.368  0.00  0.00     0.155 C 
BRANCH  10  11
HETATM   11  C           1     -23.801  -2.869 -13.388  0.00  0.00     0.175 C 
HETATM   12  O           1     -24.995  -2.755 -13.035  0.00  0.00    -0.648 OA
HETATM   13  O           1     -23.521  -3.095 -14.584  0.00  0.00    -0.648 OA
ENDBRANCH  10  11
ENDBRANCH   1  10
BRANCH   1  14
HETATM   14  N           1     -23.435  -5.083 -12.227  0.00  0.00    -0.066 N 
HETATM   15  H           1     -23.235  -6.017 -11.804  0.00  0.00     0.275 HD
HETATM   16  H           1     -24.420  -4.808 -12.014  0.00  0.00     0.275 HD
HETATM   17  H           1     -23.303  -5.134 -13.263  0.00  0.00     0.275 HD
ENDBRANCH   1  14
TORSDOF 6
ENDMDL
MODEL 6
REMARK VINA RESULT:      -5.7      1.751      5.965
REMARK  6 active torsions:
REMARK  status: ('A' for Active; 'I' for Inactive)
REMARK       I    between atoms: C_3  and  N_11 
REMARK    1  A    between atoms: C_3  and  C_7 
REMARK    2  A    between atoms: C_7  and  C_8 
REMARK    3  A    between atoms: C_7  and  N_14 
REMARK    4  A    between atoms: C_8  and  C_16 
REMARK    5  A    between atoms: C_10  and  C_13 
REMARK    6  A    between atoms: C_10  and  N_11 
ROOT
HETATM    1  C           1     -21.267  -4.368 -10.778  0.00  0.00     0.284 C 
ENDROOT
BRANCH   1   2
HETATM    2  C           1     -22.530  -4.160 -11.578  0.00  0.00     0.249 C 
HETATM    3  N           1     -22.628  -3.100 -12.438  0.00  0.00    -0.349 N 
HETATM    4  H           1     -21.855  -2.455 -12.538  0.00  0.00     0.163 HD
HETATM    5  O           1     -23.454  -4.929 -11.459  0.00  0.00    -0.271 OA
BRANCH   3   6
HETATM    6  C           1     -23.842  -2.900 -13.207  0.00  0.00     0.235 C 
BRANCH   6   7
HETATM    7  C           1     -23.500  -2.266 -14.533  0.00  0.00     0.191 C 
HETATM    8  O           1     -22.620  -2.774 -15.259  0.00  0.00    -0.647 OA
HETATM    9  O           1     -24.099  -1.234 -14.904  0.00  0.00    -0.647 OA
ENDBRANCH   6   7
ENDBRANCH   3   6
ENDBRANCH   1   2
BRANCH   1  10
HETATM   10  C           1     -21.572  -4.203  -9.294  0.00  0.00     0.155 C 
BRANCH  10  11
HETATM   11  C           1     -20.392  -4.677  -8.482  0.00  0.00     0.175 C 
HETATM   12  O           1     -20.384  -5.835  -8.009  0.00  0.00    -0.648 OA
HETATM   13  O           1     -19.422  -3.914  -8.284  0.00  0.00    -0.648 OA
ENDBRANCH  10  11
ENDBRANCH   1  10
BRANCH   1  14
HETATM   14  N           1     -20.241  -3.356 -11.192  0.00  0.00    -0.066 N 
HETATM   15  H           1     -20.564  -2.401 -10.918  0.00  0.00     0.275 HD
HETATM   16  H           1     -19.334  -3.566 -10.718  0.00  0.00     0.275 HD
HETATM   17  H           1     -20.111  -3.396 -12.229  0.00  0.00     0.275 HD
ENDBRANCH   1  14
TORSDOF 6
ENDMDL
MODEL 7
REMARK VINA RESULT:      -5.6      1.844      6.370
REMARK  6 active torsions:
REMARK  status: ('A' for Active; 'I' for Inactive)
REMARK       I    between atoms: C_3  and  N_11 
REMARK    1  A    between atoms: C_3  and  C_7 
REMARK    2  A    between atoms: C_7  and  C_8 
REMARK    3  A    between atoms: C_7  and  N_14 
REMARK    4  A    between atoms: C_8  and  C_16 
REMARK    5  A    between atoms: C_10  and  C_13 
REMARK    6  A    between atoms: C_10  and  N_11 
ROOT
HETATM    1  C           1     -22.125  -3.693  -7.862  0.00  0.00     0.284 C 
ENDROOT
BRANCH   1   2
HETATM    2  C           1     -21.967  -3.990  -9.333  0.00  0.00     0.249 C 
HETATM    3  N           1     -23.013  -3.780 -10.190  0.00  0.00    -0.349 N 
HETATM    4  H           1     -23.893  -3.425  -9.838  0.00  0.00     0.163 HD
HETATM    5  O           1     -20.917  -4.414  -9.755  0.00  0.00    -0.271 OA
BRANCH   3   6
HETATM    6  C           1     -22.861  -4.066 -11.604  0.00  0.00     0.235 C 
BRANCH   6   7
HETATM    7  C           1     -24.049  -3.523 -12.359  0.00  0.00     0.191 C 
HETATM    8  O           1     -24.055  -3.536 -13.609  0.00  0.00    -0.647 OA
HETATM    9  O           1     -25.027  -3.059 -11.735  0.00  0.00    -0.647 OA
ENDBRANCH   6   7
ENDBRANCH   3   6
ENDBRANCH   1   2
BRANCH   1  10
HETATM   10  C           1     -20.923  -4.238  -7.101  0.00  0.00     0.155 C 
BRANCH  10  11
HETATM   11  C           1     -21.298  -5.538  -6.433  0.00  0.00     0.175 C 
HETATM   12  O           1     -21.106  -6.623  -7.025  0.00  0.00    -0.648 OA
HETATM   13  O           1     -21.798  -5.531  -5.288  0.00  0.00    -0.648 OA
ENDBRANCH  10  11
ENDBRANCH   1  10
BRANCH   1  14
HETATM   14  N           1     -23.376  -4.345  -7.353  0.00  0.00    -0.066 N 
HETATM   15  H           1     -23.482  -5.287  -7.792  0.00  0.00     0.275 HD
HETATM   16  H           1     -23.315  -4.450  -6.315  0.00  0.00     0.275 HD
HETATM   17  H           1     -24.202  -3.752  -7.596  0.00  0.00     0.275 HD
ENDBRANCH   1  14
TORSDOF 6
ENDMDL
MODEL 8
REMARK VINA RESULT:      -5.4      1.689      2.328
REMARK  6 active torsions:
REMARK  status: ('A' for Active; 'I' for Inactive)
REMARK       I    between atoms: C_3  and  N_11 
REMARK    1  A    between atoms: C_3  and  C_7 
REMARK    2  A    between atoms: C_7  and  C_8 
REMARK    3  A    between atoms: C_7  and  N_14 
REMARK    4  A    between atoms: C_8  and  C_16 
REMARK    5  A    between atoms: C_10  and  C_13 
REMARK    6  A    between atoms: C_10  and  N_11 
ROOT
HETATM    1  C           1     -23.264  -2.333 -13.649  0.00  0.00     0.284 C 
ENDROOT
BRANCH   1   2
HETATM    2  C           1     -24.013  -3.124 -12.604  0.00  0.00     0.249 C 
HETATM    3  N           1     -23.324  -3.832 -11.657  0.00  0.00    -0.349 N 
HETATM    4  H           1     -22.311  -3.825 -11.657  0.00  0.00     0.163 HD
HETATM    5  O           1     -25.221  -3.133 -12.604  0.00  0.00    -0.271 OA
BRANCH   3   6
HETATM    6  C           1     -24.043  -4.592 -10.653  0.00  0.00     0.235 C 
BRANCH   6   7
HETATM    7  C           1     -24.189  -3.763  -9.401  0.00  0.00     0.191 C 
HETATM    8  O           1     -23.414  -3.944  -8.438  0.00  0.00    -0.647 OA
HETATM    9  O           1     -25.085  -2.894  -9.328  0.00  0.00    -0.647 OA
ENDBRANCH   6   7
ENDBRANCH   3   6
ENDBRANCH   1   2
BRANCH   1  10
HETATM   10  C           1     -24.258  -1.656 -14.583  0.00  0.00     0.155 C 
BRANCH  10  11
HETATM   11  C           1     -23.540  -0.631 -15.426  0.00  0.00     0.175 C 
HETATM   12  O           1     -24.016   0.518 -15.553  0.00  0.00    -0.648 OA
HETATM   13  O           1     -22.468  -0.930 -15.996  0.00  0.00    -0.648 OA
ENDBRANCH  10  11
ENDBRANCH   1  10
BRANCH   1  14
HETATM   14  N           1     -22.385  -3.256 -14.439  0.00  0.00    -0.066 N 
HETATM   15  H           1     -21.579  -2.720 -14.831  0.00  0.00     0.275 HD
HETATM   16  H           1     -22.028  -4.015 -13.815  0.00  0.00     0.275 HD
HETATM   17  H           1     -22.937  -3.678 -15.221  0.00  0.00     0.275 HD
ENDBRANCH   1  14
TORSDOF 6
ENDMDL
MODEL 9
REMARK VINA RESULT:      -5.3      1.693      5.847
REMARK  6 active torsions:
REMARK  status: ('A' for Active; 'I' for Inactive)
REMARK       I    between atoms: C_3  and  N_11 
REMARK    1  A    between atoms: C_3  and  C_7 
REMARK    2  A    between atoms: C_7  and  C_8 
REMARK    3  A    between atoms: C_7  and  N_14 
REMARK    4  A    between atoms: C_8  and  C_16 
REMARK    5  A    between atoms: C_10  and  C_13 
REMARK    6  A    between atoms: C_10  and  N_11 
ROOT
HETATM    1  C           1     -23.434  -4.213 -11.486  0.00  0.00     0.284 C 
ENDROOT
BRANCH   1   2
HETATM    2  C           1     -22.888  -3.273 -12.534  0.00  0.00     0.249 C 
HETATM    3  N           1     -23.455  -3.232 -13.779  0.00  0.00    -0.349 N 
HETATM    4  H           1     -24.240  -3.832 -13.998  0.00  0.00     0.163 HD
HETATM    5  O           1     -21.951  -2.557 -12.273  0.00  0.00    -0.271 OA
BRANCH   3   6
HETATM    6  C           1     -22.930  -2.329 -14.785  0.00  0.00     0.235 C 
BRANCH   6   7
HETATM    7  C           1     -23.830  -1.123 -14.899  0.00  0.00     0.191 C 
HETATM    8  O           1     -24.963  -1.138 -14.374  0.00  0.00    -0.647 OA
HETATM    9  O           1     -23.441  -0.110 -15.519  0.00  0.00    -0.647 OA
ENDBRANCH   6   7
ENDBRANCH   3   6
ENDBRANCH   1   2
BRANCH   1  10
HETATM   10  C           1     -22.462  -4.292 -10.317  0.00  0.00     0.155 C 
BRANCH  10  11
HETATM   11  C           1     -23.179  -3.929  -9.039  0.00  0.00     0.175 C 
HETATM   12  O           1     -22.620  -4.109  -7.936  0.00  0.00    -0.648 OA
HETATM   13  O           1     -24.332  -3.449  -9.085  0.00  0.00    -0.648 OA
ENDBRANCH  10  11
ENDBRANCH   1  10
BRANCH   1  14
HETATM   14  N           1     -23.609  -5.578 -12.083  0.00  0.00    -0.066 N 
HETATM   15  H           1     -24.604  -5.880 -11.977  0.00  0.00     0.275 HD
HETATM   16  H           1     -23.360  -5.548 -13.097  0.00  0.00     0.275 HD
HETATM   17  H           1     -22.985  -6.256 -11.589  0.00  0.00     0.275 HD
ENDBRANCH   1  14
TORSDOF 6
ENDMDL
