MODEL 1
REMARK VINA RESULT:      -6.5      0.000      0.000
REMARK  6 active torsions:
REMARK  status: ('A' for Active; 'I' for Inactive)
REMARK    1  A    between atoms: N_2  and  C_12 
REMARK    2  A    between atoms: C_8  and  C_12 
REMARK    3  A    between atoms: C_8  and  C_13 
REMARK    4  A    between atoms: C_9  and  C_17 
REMARK       I    between atoms: N_10  and  C_11 
REMARK    5  A    between atoms: C_11  and  C_12 
REMARK    6  A    between atoms: C_13  and  C_14 
REMARK       I    between atoms: C_14  and  N_15 
ROOT
HETATM    1  C           1     -23.679  -3.927 -11.692  0.00  0.00     0.275 C 
ENDROOT
BRANCH   1   2
HETATM    2  N           1     -24.876  -3.213 -11.136  0.00  0.00    -0.066 N 
HETATM    3  H           1     -25.748  -3.655 -11.507  0.00  0.00     0.275 HD
HETATM    4  H           1     -24.868  -3.280 -10.093  0.00  0.00     0.275 HD
HETATM    5  H           1     -24.846  -2.209 -11.422  0.00  0.00     0.275 HD
ENDBRANCH   1   2
BRANCH   1   6
HETATM    6  C           1     -23.530  -3.594 -13.169  0.00  0.00     0.052 C 
BRANCH   6   7
HETATM    7  C           1     -24.268  -2.297 -13.476  0.00  0.00     0.105 C 
BRANCH   7   8
HETATM    8  C           1     -23.672  -1.656 -14.704  0.00  0.00     0.215 C 
HETATM    9  O           1     -22.796  -2.219 -15.315  0.00  0.00    -0.274 OA
HETATM   10  N           1     -24.126  -0.436 -15.128  0.00  0.00    -0.370 N 
HETATM   11  H           1     -23.726  -0.006 -15.952  0.00  0.00     0.159 HD
HETATM   12  H           1     -24.860   0.037 -14.616  0.00  0.00     0.159 HD
ENDBRANCH   7   8
ENDBRANCH   6   7
ENDBRANCH   1   6
BRANCH   1  13
HETATM   13  C           1     -22.442  -3.485 -10.948  0.00  0.00     0.251 C 
HETATM   14  O           1     -21.683  -2.694 -11.455  0.00  0.00    -0.271 OA
HETATM   15  N           1     -22.181  -3.980  -9.699  0.00  0.00    -0.336 N 
HETATM   16  C           1     -21.042  -3.669  -8.839  0.00  0.00     0.188 C 
HETATM   17  C           1     -22.979  -4.936  -8.936  0.00  0.00     0.127 C 
HETATM   18  C           1     -21.654  -3.563  -7.453  0.00  0.00     0.038 C 
HETATM   19  C           1     -22.926  -4.401  -7.515  0.00  0.00     0.022 C 
BRANCH  16  20
HETATM   20  C           1     -20.012  -4.771  -8.889  0.00  0.00     0.196 C 
HETATM   21  O           1     -19.585  -5.275  -7.828  0.00  0.00    -0.646 OA
HETATM   22  O           1     -19.586  -5.180  -9.991  0.00  0.00    -0.646 OA
ENDBRANCH  16  20
ENDBRANCH   1  13
TORSDOF 6
ENDMDL
MODEL 2
REMARK VINA RESULT:      -6.4      3.097      6.861
REMARK  6 active torsions:
REMARK  status: ('A' for Active; 'I' for Inactive)
REMARK    1  A    between atoms: N_2  and  C_12 
REMARK    2  A    between atoms: C_8  and  C_12 
REMARK    3  A    between atoms: C_8  and  C_13 
REMARK    4  A    between atoms: C_9  and  C_17 
REMARK       I    between atoms: N_10  and  C_11 
REMARK    5  A    between atoms: C_11  and  C_12 
REMARK    6  A    between atoms: C_13  and  C_14 
REMARK       I    between atoms: C_14  and  N_15 
ROOT
HETATM    1  C           1     -20.369  -5.409  -7.571  0.00  0.00     0.275 C 
ENDROOT
BRANCH   1   2
HETATM    2  N           1     -19.568  -4.522  -6.664  0.00  0.00    -0.066 N 
HETATM    3  H           1     -18.733  -4.161  -7.178  0.00  0.00     0.275 HD
HETATM    4  H           1     -20.160  -3.718  -6.353  0.00  0.00     0.275 HD
HETATM    5  H           1     -19.255  -5.068  -5.831  0.00  0.00     0.275 HD
ENDBRANCH   1   2
BRANCH   1   6
HETATM    6  C           1     -20.934  -6.575  -6.772  0.00  0.00     0.052 C 
BRANCH   6   7
HETATM    7  C           1     -20.552  -6.418  -5.305  0.00  0.00     0.105 C 
BRANCH   7   8
HETATM    8  C           1     -21.793  -6.157  -4.487  0.00  0.00     0.215 C 
HETATM    9  O           1     -21.706  -5.982  -3.295  0.00  0.00    -0.274 OA
HETATM   10  N           1     -23.018  -6.116  -5.097  0.00  0.00    -0.370 N 
HETATM   11  H           1     -23.851  -5.941  -4.549  0.00  0.00     0.159 HD
HETATM   12  H           1     -23.092  -6.263  -6.096  0.00  0.00     0.159 HD
ENDBRANCH   7   8
ENDBRANCH   6   7
ENDBRANCH   1   6
BRANCH   1  13
HETATM   13  C           1     -21.502  -4.617  -8.176  0.00  0.00     0.251 C 
HETATM   14  O           1     -22.394  -4.207  -7.474  0.00  0.00    -0.271 OA
HETATM   15  N           1     -21.517  -4.363  -9.522  0.00  0.00    -0.336 N 
HETATM   16  C           1     -22.524  -3.621 -10.275  0.00  0.00     0.188 C 
HETATM   17  C           1     -20.531  -4.776 -10.516  0.00  0.00     0.127 C 
HETATM   18  C           1     -21.708  -2.800 -11.259  0.00  0.00     0.038 C 
HETATM   19  C           1     -20.398  -3.563 -11.422  0.00  0.00     0.022 C 
BRANCH  16  20
HETATM   20  C           1     -23.454  -4.561 -11.001  0.00  0.00     0.196 C 
HETATM   21  O           1     -24.013  -5.491 -10.380  0.00  0.00    -0.646 OA
HETATM   22  O           1     -23.666  -4.411 -12.224  0.00  0.00    -0.646 OA
ENDBRANCH  16  20
ENDBRANCH   1  13
TORSDOF 6
ENDMDL
MODEL 3
REMARK VINA RESULT:      -6.3      2.629      6.582
REMARK  6 active torsions:
REMARK  status: ('A' for Active; 'I' for Inactive)
REMARK    1  A    between atoms: N_2  and  C_12 
REMARK    2  A    between atoms: C_8  and  C_12 
REMARK    3  A    between atoms: C_8  and  C_13 
REMARK    4  A    between atoms: C_9  and  C_17 
REMARK       I    between atoms: N_10  and  C_11 
REMARK    5  A    between atoms: C_11  and  C_12 
REMARK    6  A    between atoms: C_13  and  C_14 
REMARK       I    between atoms: C_14  and  N_15 
ROOT
HETATM    1  C           1     -21.581  -4.146  -7.019  0.00  0.00     0.275 C 
ENDROOT
BRANCH   1   2
HETATM    2  N           1     -22.825  -4.821  -6.522  0.00  0.00    -0.066 N 
HETATM    3  H           1     -23.288  -5.324  -7.313  0.00  0.00     0.275 HD
HETATM    4  H           1     -22.574  -5.505  -5.773  0.00  0.00     0.275 HD
HETATM    5  H           1     -23.479  -4.104  -6.135  0.00  0.00     0.275 HD
ENDBRANCH   1   2
BRANCH   1   6
HETATM    6  C           1     -20.399  -4.561  -6.154  0.00  0.00     0.052 C 
BRANCH   6   7
HETATM    7  C           1     -20.868  -5.542  -5.087  0.00  0.00     0.105 C 
BRANCH   7   8
HETATM    8  C           1     -20.310  -6.912  -5.383  0.00  0.00     0.215 C 
HETATM    9  O           1     -20.488  -7.818  -4.605  0.00  0.00    -0.274 OA
HETATM   10  N           1     -19.604  -7.128  -6.536  0.00  0.00    -0.370 N 
HETATM   11  H           1     -19.229  -8.047  -6.734  0.00  0.00     0.159 HD
HETATM   12  H           1     -19.454  -6.370  -7.188  0.00  0.00     0.159 HD
ENDBRANCH   7   8
ENDBRANCH   6   7
ENDBRANCH   1   6
BRANCH   1  13
HETATM   13  C           1     -21.326  -4.553  -8.449  0.00  0.00     0.251 C 
HETATM   14  O           1     -20.337  -5.187  -8.730  0.00  0.00    -0.271 OA
HETATM   15  N           1     -22.216  -4.205  -9.429  0.00  0.00    -0.336 N 
HETATM   16  C           1     -22.133  -4.509 -10.855  0.00  0.00     0.188 C 
HETATM   17  C           1     -23.455  -3.448  -9.277  0.00  0.00     0.127 C 
HETATM   18  C           1     -23.562  -4.862 -11.233  0.00  0.00     0.038 C 
HETATM   19  C           1     -24.432  -4.159 -10.197  0.00  0.00     0.022 C 
BRANCH  16  20
HETATM   20  C           1     -21.652  -3.310 -11.634  0.00  0.00     0.196 C 
HETATM   21  O           1     -20.585  -2.744 -11.312  0.00  0.00    -0.646 OA
HETATM   22  O           1     -22.319  -2.883 -12.601  0.00  0.00    -0.646 OA
ENDBRANCH  16  20
ENDBRANCH   1  13
TORSDOF 6
ENDMDL
MODEL 4
REMARK VINA RESULT:      -6.0      4.122      6.178
REMARK  6 active torsions:
REMARK  status: ('A' for Active; 'I' for Inactive)
REMARK    1  A    between atoms: N_2  and  C_12 
REMARK    2  A    between atoms: C_8  and  C_12 
REMARK    3  A    between atoms: C_8  and  C_13 
REMARK    4  A    between atoms: C_9  and  C_17 
REMARK       I    between atoms: N_10  and  C_11 
REMARK    5  A    between atoms: C_11  and  C_12 
REMARK    6  A    between atoms: C_13  and  C_14 
REMARK       I    between atoms: C_14  and  N_15 
ROOT
HETATM    1  C           1     -20.769  -4.962  -6.879  0.00  0.00     0.275 C 
ENDROOT
BRANCH   1   2
HETATM    2  N           1     -20.382  -5.882  -8.000  0.00  0.00    -0.066 N 
HETATM    3  H           1     -20.125  -6.817  -7.611  0.00  0.00     0.275 HD
HETATM    4  H           1     -21.189  -5.988  -8.657  0.00  0.00     0.275 HD
HETATM    5  H           1     -19.565  -5.481  -8.513  0.00  0.00     0.275 HD
ENDBRANCH   1   2
BRANCH   1   6
HETATM    6  C           1     -21.443  -3.722  -7.449  0.00  0.00     0.052 C 
BRANCH   6   7
HETATM    7  C           1     -21.691  -3.918  -8.940  0.00  0.00     0.105 C 
BRANCH   7   8
HETATM    8  C           1     -23.161  -3.745  -9.232  0.00  0.00     0.215 C 
HETATM    9  O           1     -23.521  -3.384 -10.327  0.00  0.00    -0.274 OA
HETATM   10  N           1     -24.087  -4.000  -8.257  0.00  0.00    -0.370 N 
HETATM   11  H           1     -25.073  -3.884  -8.452  0.00  0.00     0.159 HD
HETATM   12  H           1     -23.786  -4.303  -7.339  0.00  0.00     0.159 HD
ENDBRANCH   7   8
ENDBRANCH   6   7
ENDBRANCH   1   6
BRANCH   1  13
HETATM   13  C           1     -21.725  -5.674  -5.954  0.00  0.00     0.251 C 
HETATM   14  O           1     -22.885  -5.342  -5.911  0.00  0.00    -0.271 OA
HETATM   15  N           1     -21.277  -6.698  -5.163  0.00  0.00    -0.336 N 
HETATM   16  C           1     -22.052  -7.494  -4.214  0.00  0.00     0.188 C 
HETATM   17  C           1     -19.921  -7.233  -5.083  0.00  0.00     0.127 C 
HETATM   18  C           1     -21.531  -8.906  -4.417  0.00  0.00     0.038 C 
HETATM   19  C           1     -20.126  -8.735  -4.984  0.00  0.00     0.022 C 
BRANCH  16  20
HETATM   20  C           1     -21.810  -7.030  -2.799  0.00  0.00     0.196 C 
HETATM   21  O           1     -22.049  -5.845  -2.481  0.00  0.00    -0.646 OA
HETATM   22  O           1     -21.371  -7.830  -1.945  0.00  0.00    -0.646 OA
ENDBRANCH  16  20
ENDBRANCH   1  13
TORSDOF 6
ENDMDL
MODEL 5
REMARK VINA RESULT:      -5.9      3.948      5.714
REMARK  6 active torsions:
REMARK  status: ('A' for Active; 'I' for Inactive)
REMARK    1  A    between atoms: N_2  and  C_12 
REMARK    2  A    between atoms: C_8  and  C_12 
REMARK    3  A    between atoms: C_8  and  C_13 
REMARK    4  A    between atoms: C_9  and  C_17 
REMARK       I    between atoms: N_10  and  C_11 
REMARK    5  A    between atoms: C_11  and  C_12 
REMARK    6  A    between atoms: C_13  and  C_14 
REMARK       I    between atoms: C_14  and  N_15 
ROOT
HETATM    1  C           1     -21.576  -5.070  -7.165  0.00  0.00     0.275 C 
ENDROOT
BRANCH   1   2
HETATM    2  N           1     -20.985  -3.740  -6.797  0.00  0.00    -0.066 N 
HETATM    3  H           1     -21.699  -2.990  -6.943  0.00  0.00     0.275 HD
HETATM    4  H           1     -20.696  -3.755  -5.792  0.00  0.00     0.275 HD
HETATM    5  H           1     -20.152  -3.551  -7.398  0.00  0.00     0.275 HD
ENDBRANCH   1   2
BRANCH   1   6
HETATM    6  C           1     -21.600  -5.213  -8.680  0.00  0.00     0.052 C 
BRANCH   6   7
HETATM    7  C           1     -22.164  -3.941  -9.302  0.00  0.00     0.105 C 
BRANCH   7   8
HETATM    8  C           1     -23.631  -4.134  -9.599  0.00  0.00     0.215 C 
HETATM    9  O           1     -23.987  -5.026 -10.330  0.00  0.00    -0.274 OA
HETATM   10  N           1     -24.558  -3.298  -9.036  0.00  0.00    -0.370 N 
HETATM   11  H           1     -25.541  -3.428  -9.235  0.00  0.00     0.159 HD
HETATM   12  H           1     -24.260  -2.550  -8.423  0.00  0.00     0.159 HD
ENDBRANCH   7   8
ENDBRANCH   6   7
ENDBRANCH   1   6
BRANCH   1  13
HETATM   13  C           1     -20.737  -6.174  -6.568  0.00  0.00     0.251 C 
HETATM   14  O           1     -19.718  -6.521  -7.115  0.00  0.00    -0.271 OA
HETATM   15  N           1     -21.131  -6.781  -5.406  0.00  0.00    -0.336 N 
HETATM   16  C           1     -20.452  -7.858  -4.691  0.00  0.00     0.188 C 
HETATM   17  C           1     -22.323  -6.495  -4.613  0.00  0.00     0.127 C 
HETATM   18  C           1     -20.597  -7.469  -3.230  0.00  0.00     0.038 C 
HETATM   19  C           1     -21.832  -6.577  -3.177  0.00  0.00     0.022 C 
BRANCH  16  20
HETATM   20  C           1     -21.114  -9.187  -4.962  0.00  0.00     0.196 C 
HETATM   21  O           1     -21.144  -9.643  -6.126  0.00  0.00    -0.646 OA
HETATM   22  O           1     -21.632  -9.831  -4.025  0.00  0.00    -0.646 OA
ENDBRANCH  16  20
ENDBRANCH   1  13
TORSDOF 6
ENDMDL
MODEL 6
REMARK VINA RESULT:      -5.7      5.533      7.851
REMARK  6 active torsions:
REMARK  status: ('A' for Active; 'I' for Inactive)
REMARK    1  A    between atoms: N_2  and  C_12 
REMARK    2  A    between atoms: C_8  and  C_12 
REMARK    3  A    between atoms: C_8  and  C_13 
REMARK    4  A    between atoms: C_9  and  C_17 
REMARK       I    between atoms: N_10  and  C_11 
REMARK    5  A    between atoms: C_11  and  C_12 
REMARK    6  A    between atoms: C_13  and  C_14 
REMARK       I    between atoms: C_14  and  N_15 
ROOT
HETATM    1  C           1     -20.464  -6.153  -5.377  0.00  0.00     0.275 C 
ENDROOT
BRANCH   1   2
HETATM    2  N           1     -20.378  -7.051  -6.577  0.00  0.00    -0.066 N 
HETATM    3  H           1     -19.392  -7.076  -6.923  0.00  0.00     0.275 HD
HETATM    4  H           1     -20.678  -8.016  -6.310  0.00  0.00     0.275 HD
HETATM    5  H           1     -21.002  -6.686  -7.330  0.00  0.00     0.275 HD
ENDBRANCH   1   2
BRANCH   1   6
HETATM    6  C           1     -20.803  -4.739  -5.826  0.00  0.00     0.052 C 
BRANCH   6   7
HETATM    7  C           1     -20.984  -4.714  -7.339  0.00  0.00     0.105 C 
BRANCH   7   8
HETATM    8  C           1     -22.363  -4.202  -7.674  0.00  0.00     0.215 C 
HETATM    9  O           1     -22.537  -3.539  -8.668  0.00  0.00    -0.274 OA
HETATM   10  N           1     -23.418  -4.491  -6.850  0.00  0.00    -0.370 N 
HETATM   11  H           1     -24.343  -4.148  -7.074  0.00  0.00     0.159 HD
HETATM   12  H           1     -23.273  -5.047  -6.017  0.00  0.00     0.159 HD
ENDBRANCH   7   8
ENDBRANCH   6   7
ENDBRANCH   1   6
BRANCH   1  13
HETATM   13  C           1     -21.540  -6.658  -4.449  0.00  0.00     0.251 C 
HETATM   14  O           1     -22.683  -6.296  -4.594  0.00  0.00    -0.271 OA
HETATM   15  N           1     -21.222  -7.528  -3.441  0.00  0.00    -0.336 N 
HETATM   16  C           1     -22.124  -8.115  -2.454  0.00  0.00     0.188 C 
HETATM   17  C           1     -19.905  -8.070  -3.116  0.00  0.00     0.127 C 
HETATM   18  C           1     -21.647  -9.553  -2.338  0.00  0.00     0.038 C 
HETATM   19  C           1     -20.185  -9.522  -2.769  0.00  0.00     0.022 C 
BRANCH  16  20
HETATM   20  C           1     -22.010  -7.403  -1.129  0.00  0.00     0.196 C 
HETATM   21  O           1     -21.556  -8.006  -0.133  0.00  0.00    -0.646 OA
HETATM   22  O           1     -22.372  -6.211  -1.026  0.00  0.00    -0.646 OA
ENDBRANCH  16  20
ENDBRANCH   1  13
TORSDOF 6
ENDMDL
MODEL 7
REMARK VINA RESULT:      -5.5      7.380     10.017
REMARK  6 active torsions:
REMARK  status: ('A' for Active; 'I' for Inactive)
REMARK    1  A    between atoms: N_2  and  C_12 
REMARK    2  A    between atoms: C_8  and  C_12 
REMARK    3  A    between atoms: C_8  and  C_13 
REMARK    4  A    between atoms: C_9  and  C_17 
REMARK       I    between atoms: N_10  and  C_11 
REMARK    5  A    between atoms: C_11  and  C_12 
REMARK    6  A    between atoms: C_13  and  C_14 
REMARK       I    between atoms: C_14  and  N_15 
ROOT
HETATM    1  C           1     -22.025  -6.765  -3.062  0.00  0.00     0.275 C 
ENDROOT
BRANCH   1   2
HETATM    2  N           1     -21.225  -5.523  -2.796  0.00  0.00    -0.066 N 
HETATM    3  H           1     -20.276  -5.788  -2.448  0.00  0.00     0.275 HD
HETATM    4  H           1     -21.131  -4.975  -3.681  0.00  0.00     0.275 HD
HETATM    5  H           1     -21.712  -4.944  -2.076  0.00  0.00     0.275 HD
ENDBRANCH   1   2
BRANCH   1   6
HETATM    6  C           1     -22.160  -6.970  -4.565  0.00  0.00     0.052 C 
BRANCH   6   7
HETATM    7  C           1     -21.310  -5.938  -5.297  0.00  0.00     0.105 C 
BRANCH   7   8
HETATM    8  C           1     -20.337  -6.644  -6.209  0.00  0.00     0.215 C 
HETATM    9  O           1     -20.075  -6.176  -7.291  0.00  0.00    -0.274 OA
HETATM   10  N           1     -19.748  -7.813  -5.807  0.00  0.00    -0.370 N 
HETATM   11  H           1     -19.095  -8.286  -6.418  0.00  0.00     0.159 HD
HETATM   12  H           1     -19.967  -8.205  -4.900  0.00  0.00     0.159 HD
ENDBRANCH   7   8
ENDBRANCH   6   7
ENDBRANCH   1   6
BRANCH   1  13
HETATM   13  C           1     -21.323  -7.954  -2.453  0.00  0.00     0.251 C 
HETATM   14  O           1     -20.439  -8.509  -3.060  0.00  0.00    -0.271 OA
HETATM   15  N           1     -21.688  -8.402  -1.212  0.00  0.00    -0.336 N 
HETATM   16  C           1     -21.125  -9.529  -0.473  0.00  0.00     0.188 C 
HETATM   17  C           1     -22.726  -7.860  -0.340  0.00  0.00     0.127 C 
HETATM   18  C           1     -21.050  -9.022   0.957  0.00  0.00     0.038 C 
HETATM   19  C           1     -22.108  -7.926   1.046  0.00  0.00     0.022 C 
BRANCH  16  20
HETATM   20  C           1     -22.024 -10.738  -0.568  0.00  0.00     0.196 C 
HETATM   21  O           1     -22.254 -11.426   0.450  0.00  0.00    -0.646 OA
HETATM   22  O           1     -22.536 -11.052  -1.664  0.00  0.00    -0.646 OA
ENDBRANCH  16  20
ENDBRANCH   1  13
TORSDOF 6
ENDMDL
MODEL 8
REMARK VINA RESULT:      -5.4      4.886      7.054
REMARK  6 active torsions:
REMARK  status: ('A' for Active; 'I' for Inactive)
REMARK    1  A    between atoms: N_2  and  C_12 
REMARK    2  A    between atoms: C_8  and  C_12 
REMARK    3  A    between atoms: C_8  and  C_13 
REMARK    4  A    between atoms: C_9  and  C_17 
REMARK       I    between atoms: N_10  and  C_11 
REMARK    5  A    between atoms: C_11  and  C_12 
REMARK    6  A    between atoms: C_13  and  C_14 
REMARK       I    between atoms: C_14  and  N_15 
ROOT
HETATM    1  C           1     -21.021  -5.650  -5.397  0.00  0.00     0.275 C 
ENDROOT
BRANCH   1   2
HETATM    2  N           1     -20.088  -4.488  -5.219  0.00  0.00    -0.066 N 
HETATM    3  H           1     -19.333  -4.748  -4.544  0.00  0.00     0.275 HD
HETATM    4  H           1     -19.661  -4.242  -6.141  0.00  0.00     0.275 HD
HETATM    5  H           1     -20.619  -3.668  -4.850  0.00  0.00     0.275 HD
ENDBRANCH   1   2
BRANCH   1   6
HETATM    6  C           1     -21.966  -5.369  -6.557  0.00  0.00     0.052 C 
BRANCH   6   7
HETATM    7  C           1     -21.601  -4.036  -7.199  0.00  0.00     0.105 C 
BRANCH   7   8
HETATM    8  C           1     -21.216  -4.261  -8.640  0.00  0.00     0.215 C 
HETATM    9  O           1     -21.956  -3.904  -9.526  0.00  0.00    -0.274 OA
HETATM   10  N           1     -20.026  -4.866  -8.944  0.00  0.00    -0.370 N 
HETATM   11  H           1     -19.768  -5.017  -9.911  0.00  0.00     0.159 HD
HETATM   12  H           1     -19.406  -5.165  -8.202  0.00  0.00     0.159 HD
ENDBRANCH   7   8
ENDBRANCH   6   7
ENDBRANCH   1   6
BRANCH   1  13
HETATM   13  C           1     -20.222  -6.896  -5.689  0.00  0.00     0.251 C 
HETATM   14  O           1     -19.632  -7.004  -6.737  0.00  0.00    -0.271 OA
HETATM   15  N           1     -20.165  -7.905  -4.765  0.00  0.00    -0.336 N 
HETATM   16  C           1     -19.448  -9.172  -4.875  0.00  0.00     0.188 C 
HETATM   17  C           1     -20.808  -7.949  -3.455  0.00  0.00     0.127 C 
HETATM   18  C           1     -18.859  -9.377  -3.490  0.00  0.00     0.038 C 
HETATM   19  C           1     -19.758  -8.575  -2.554  0.00  0.00     0.022 C 
BRANCH  16  20
HETATM   20  C           1     -20.392 -10.296  -5.229  0.00  0.00     0.196 C 
HETATM   21  O           1     -21.150 -10.187  -6.217  0.00  0.00    -0.646 OA
HETATM   22  O           1     -20.416 -11.335  -4.534  0.00  0.00    -0.646 OA
ENDBRANCH  16  20
ENDBRANCH   1  13
TORSDOF 6
ENDMDL
MODEL 9
REMARK VINA RESULT:      -5.4      8.222     10.995
REMARK  6 active torsions:
REMARK  status: ('A' for Active; 'I' for Inactive)
REMARK    1  A    between atoms: N_2  and  C_12 
REMARK    2  A    between atoms: C_8  and  C_12 
REMARK    3  A    between atoms: C_8  and  C_13 
REMARK    4  A    between atoms: C_9  and  C_17 
REMARK       I    between atoms: N_10  and  C_11 
REMARK    5  A    between atoms: C_11  and  C_12 
REMARK    6  A    between atoms: C_13  and  C_14 
REMARK       I    between atoms: C_14  and  N_15 
ROOT
HETATM    1  C           1     -22.025  -7.428  -2.188  0.00  0.00     0.275 C 
ENDROOT
BRANCH   1   2
HETATM    2  N           1     -22.374  -5.985  -1.967  0.00  0.00    -0.066 N 
HETATM    3  H           1     -22.945  -5.638  -2.771  0.00  0.00     0.275 HD
HETATM    4  H           1     -22.924  -5.892  -1.083  0.00  0.00     0.275 HD
HETATM    5  H           1     -21.497  -5.422  -1.894  0.00  0.00     0.275 HD
ENDBRANCH   1   2
BRANCH   1   6
HETATM    6  C           1     -20.608  -7.529  -2.736  0.00  0.00     0.052 C 
BRANCH   6   7
HETATM    7  C           1     -20.654  -8.015  -4.179  0.00  0.00     0.105 C 
BRANCH   7   8
HETATM    8  C           1     -20.738  -6.828  -5.107  0.00  0.00     0.215 C 
HETATM    9  O           1     -20.812  -5.711  -4.655  0.00  0.00    -0.274 OA
HETATM   10  N           1     -20.727  -7.019  -6.463  0.00  0.00    -0.370 N 
HETATM   11  H           1     -20.783  -6.223  -7.086  0.00  0.00     0.159 HD
HETATM   12  H           1     -20.665  -7.955  -6.843  0.00  0.00     0.159 HD
ENDBRANCH   7   8
ENDBRANCH   6   7
ENDBRANCH   1   6
BRANCH   1  13
HETATM   13  C           1     -22.113  -8.171  -0.878  0.00  0.00     0.251 C 
HETATM   14  O           1     -21.936  -7.585   0.163  0.00  0.00    -0.271 OA
HETATM   15  N           1     -22.393  -9.511  -0.869  0.00  0.00    -0.336 N 
HETATM   16  C           1     -22.515 -10.387   0.293  0.00  0.00     0.188 C 
HETATM   17  C           1     -22.635 -10.377  -2.019  0.00  0.00     0.127 C 
HETATM   18  C           1     -23.701 -11.275  -0.046  0.00  0.00     0.038 C 
HETATM   19  C           1     -23.776 -11.273  -1.569  0.00  0.00     0.022 C 
BRANCH  16  20
HETATM   20  C           1     -21.264 -11.209   0.482  0.00  0.00     0.196 C 
HETATM   21  O           1     -20.141 -10.670   0.378  0.00  0.00    -0.646 OA
HETATM   22  O           1     -21.351 -12.429   0.741  0.00  0.00    -0.646 OA
ENDBRANCH  16  20
ENDBRANCH   1  13
TORSDOF 6
ENDMDL
