MODEL 1
REMARK VINA RESULT:      -6.8      0.000      0.000
REMARK  9 active torsions:
REMARK  status: ('A' for Active; 'I' for Inactive)
REMARK    1  A    between atoms: C_1  and  C_4 
REMARK       I    between atoms: N_2  and  C_16 
REMARK    2  A    between atoms: C_3  and  C_16 
REMARK    3  A    between atoms: C_3  and  C_4 
REMARK    4  A    between atoms: C_4  and  N_23 
REMARK    5  A    between atoms: N_5  and  C_17 
REMARK    6  A    between atoms: C_12  and  C_17 
REMARK    7  A    between atoms: C_12  and  C_22 
REMARK       I    between atoms: C_14  and  N_23 
REMARK    8  A    between atoms: C_14  and  C_17 
REMARK    9  A    between atoms: C_21  and  C_22 
ROOT
HETATM    1  O           1     -36.786  -1.091 -12.762  0.00  0.00    -0.271 OA
HETATM    2  H           1     -34.012  -0.797 -14.197  0.00  0.00     0.163 HD
HETATM    3  C           1     -35.591  -1.176 -12.914  0.00  0.00     0.249 C 
HETATM    4  N           1     -35.014  -0.726 -14.071  0.00  0.00    -0.344 N 
ENDROOT
BRANCH   3   5
HETATM    5  C           1     -34.735  -1.778 -11.828  0.00  0.00     0.275 C 
BRANCH   5   6
HETATM    6  N           1     -35.594  -2.121 -10.647  0.00  0.00    -0.066 N 
HETATM    7  H           1     -36.163  -2.969 -10.865  0.00  0.00     0.275 HD
HETATM    8  H           1     -34.987  -2.311  -9.818  0.00  0.00     0.275 HD
HETATM    9  H           1     -36.231  -1.319 -10.436  0.00  0.00     0.275 HD
ENDBRANCH   5   6
BRANCH   5  10
HETATM   10  C           1     -34.063  -3.040 -12.349  0.00  0.00     0.053 C 
BRANCH  10  11
HETATM   11  C           1     -33.254  -3.685 -11.231  0.00  0.00     0.115 C 
BRANCH  11  12
HETATM   12  C           1     -33.802  -5.061 -10.941  0.00  0.00     0.172 C 
HETATM   13  O           1     -34.971  -5.192 -10.518  0.00  0.00    -0.648 OA
HETATM   14  O           1     -33.088  -6.070 -11.125  0.00  0.00    -0.648 OA
ENDBRANCH  11  12
ENDBRANCH  10  11
ENDBRANCH   5  10
ENDBRANCH   3   5
BRANCH   4  15
HETATM   15  C           1     -35.837  -0.148 -15.115  0.00  0.00     0.194 C 
BRANCH  15  16
HETATM   16  C           1     -35.705  -0.971 -16.373  0.00  0.00     0.197 C 
HETATM   17  O           1     -36.621  -0.964 -17.224  0.00  0.00    -0.646 OA
HETATM   18  O           1     -34.679  -1.659 -16.564  0.00  0.00    -0.646 OA
ENDBRANCH  15  16
BRANCH  15  19
HETATM   19  C           1     -35.380   1.278 -15.390  0.00  0.00     0.138 C 
BRANCH  19  20
HETATM   20  C           1     -36.469   2.024 -16.122  0.00  0.00     0.217 C 
HETATM   21  N           1     -37.770   1.614 -16.013  0.00  0.00    -0.370 N 
HETATM   22  H           1     -38.002   0.811 -15.442  0.00  0.00     0.159 HD
HETATM   23  H           1     -38.501   2.114 -16.504  0.00  0.00     0.159 HD
HETATM   24  O           1     -36.192   2.983 -16.803  0.00  0.00    -0.274 OA
ENDBRANCH  19  20
ENDBRANCH  15  19
ENDBRANCH   4  15
TORSDOF 9
ENDMDL
MODEL 2
REMARK VINA RESULT:      -6.6      2.282      3.378
REMARK  9 active torsions:
REMARK  status: ('A' for Active; 'I' for Inactive)
REMARK    1  A    between atoms: C_1  and  C_4 
REMARK       I    between atoms: N_2  and  C_16 
REMARK    2  A    between atoms: C_3  and  C_16 
REMARK    3  A    between atoms: C_3  and  C_4 
REMARK    4  A    between atoms: C_4  and  N_23 
REMARK    5  A    between atoms: N_5  and  C_17 
REMARK    6  A    between atoms: C_12  and  C_17 
REMARK    7  A    between atoms: C_12  and  C_22 
REMARK       I    between atoms: C_14  and  N_23 
REMARK    8  A    between atoms: C_14  and  C_17 
REMARK    9  A    between atoms: C_21  and  C_22 
ROOT
HETATM    1  O           1     -34.567  -3.050 -13.362  0.00  0.00    -0.271 OA
HETATM    2  H           1     -34.867  -0.554 -11.485  0.00  0.00     0.163 HD
HETATM    3  C           1     -34.387  -2.350 -12.393  0.00  0.00     0.249 C 
HETATM    4  N           1     -35.018  -1.139 -12.297  0.00  0.00    -0.344 N 
ENDROOT
BRANCH   3   5
HETATM    5  C           1     -33.467  -2.813 -11.291  0.00  0.00     0.275 C 
BRANCH   5   6
HETATM    6  N           1     -33.250  -1.692 -10.318  0.00  0.00    -0.066 N 
HETATM    7  H           1     -34.028  -1.680  -9.621  0.00  0.00     0.275 HD
HETATM    8  H           1     -32.341  -1.832  -9.823  0.00  0.00     0.275 HD
HETATM    9  H           1     -33.231  -0.783 -10.834  0.00  0.00     0.275 HD
ENDBRANCH   5   6
BRANCH   5  10
HETATM   10  C           1     -34.094  -3.997 -10.568  0.00  0.00     0.053 C 
BRANCH  10  11
HETATM   11  C           1     -33.477  -5.292 -11.082  0.00  0.00     0.115 C 
BRANCH  11  12
HETATM   12  C           1     -34.572  -6.281 -11.400  0.00  0.00     0.172 C 
HETATM   13  O           1     -35.257  -6.142 -12.436  0.00  0.00    -0.648 OA
HETATM   14  O           1     -34.792  -7.238 -10.628  0.00  0.00    -0.648 OA
ENDBRANCH  11  12
ENDBRANCH  10  11
ENDBRANCH   5  10
ENDBRANCH   3   5
BRANCH   4  15
HETATM   15  C           1     -35.902  -0.695 -13.356  0.00  0.00     0.194 C 
BRANCH  15  16
HETATM   16  C           1     -35.152   0.235 -14.279  0.00  0.00     0.197 C 
HETATM   17  O           1     -34.872   1.394 -13.904  0.00  0.00    -0.646 OA
HETATM   18  O           1     -34.812  -0.154 -15.417  0.00  0.00    -0.646 OA
ENDBRANCH  15  16
BRANCH  15  19
HETATM   19  C           1     -37.091   0.039 -12.750  0.00  0.00     0.138 C 
BRANCH  19  20
HETATM   20  C           1     -37.178  -0.274 -11.276  0.00  0.00     0.217 C 
HETATM   21  N           1     -36.754   0.646 -10.356  0.00  0.00    -0.370 N 
HETATM   22  H           1     -36.382   1.536 -10.664  0.00  0.00     0.159 HD
HETATM   23  H           1     -36.812   0.437  -9.367  0.00  0.00     0.159 HD
HETATM   24  O           1     -37.621  -1.336 -10.909  0.00  0.00    -0.274 OA
ENDBRANCH  19  20
ENDBRANCH  15  19
ENDBRANCH   4  15
TORSDOF 9
ENDMDL
MODEL 3
REMARK VINA RESULT:      -6.6     11.963     14.445
REMARK  9 active torsions:
REMARK  status: ('A' for Active; 'I' for Inactive)
REMARK    1  A    between atoms: C_1  and  C_4 
REMARK       I    between atoms: N_2  and  C_16 
REMARK    2  A    between atoms: C_3  and  C_16 
REMARK    3  A    between atoms: C_3  and  C_4 
REMARK    4  A    between atoms: C_4  and  N_23 
REMARK    5  A    between atoms: N_5  and  C_17 
REMARK    6  A    between atoms: C_12  and  C_17 
REMARK    7  A    between atoms: C_12  and  C_22 
REMARK       I    between atoms: C_14  and  N_23 
REMARK    8  A    between atoms: C_14  and  C_17 
REMARK    9  A    between atoms: C_21  and  C_22 
ROOT
HETATM    1  O           1     -21.277  -3.753  -8.320  0.00  0.00    -0.271 OA
HETATM    2  H           1     -24.344  -4.407  -8.384  0.00  0.00     0.163 HD
HETATM    3  C           1     -22.349  -4.133  -7.912  0.00  0.00     0.249 C 
HETATM    4  N           1     -23.447  -4.087  -8.727  0.00  0.00    -0.344 N 
ENDROOT
BRANCH   3   5
HETATM    5  C           1     -22.475  -4.658  -6.503  0.00  0.00     0.275 C 
BRANCH   5   6
HETATM    6  N           1     -23.890  -5.090  -6.256  0.00  0.00    -0.066 N 
HETATM    7  H           1     -24.545  -4.379  -6.651  0.00  0.00     0.275 HD
HETATM    8  H           1     -24.058  -6.013  -6.716  0.00  0.00     0.275 HD
HETATM    9  H           1     -24.052  -5.178  -5.227  0.00  0.00     0.275 HD
ENDBRANCH   5   6
BRANCH   5  10
HETATM   10  C           1     -21.543  -5.847  -6.318  0.00  0.00     0.053 C 
BRANCH  10  11
HETATM   11  C           1     -20.871  -5.759  -4.953  0.00  0.00     0.115 C 
BRANCH  11  12
HETATM   12  C           1     -21.647  -6.585  -3.955  0.00  0.00     0.172 C 
HETATM   13  O           1     -22.290  -6.021  -3.043  0.00  0.00    -0.648 OA
HETATM   14  O           1     -21.647  -7.831  -4.042  0.00  0.00    -0.648 OA
ENDBRANCH  11  12
ENDBRANCH  10  11
ENDBRANCH   5  10
ENDBRANCH   3   5
BRANCH   4  15
HETATM   15  C           1     -23.326  -3.582 -10.080  0.00  0.00     0.194 C 
BRANCH  15  16
HETATM   16  C           1     -24.695  -3.241 -10.614  0.00  0.00     0.197 C 
HETATM   17  O           1     -25.661  -3.124  -9.828  0.00  0.00    -0.646 OA
HETATM   18  O           1     -24.864  -3.076 -11.841  0.00  0.00    -0.646 OA
ENDBRANCH  15  16
BRANCH  15  19
HETATM   19  C           1     -22.687  -4.647 -10.963  0.00  0.00     0.138 C 
BRANCH  19  20
HETATM   20  C           1     -21.614  -4.015 -11.816  0.00  0.00     0.217 C 
HETATM   21  N           1     -21.938  -3.468 -13.028  0.00  0.00    -0.370 N 
HETATM   22  H           1     -22.897  -3.486 -13.352  0.00  0.00     0.159 HD
HETATM   23  H           1     -21.218  -3.044 -13.601  0.00  0.00     0.159 HD
HETATM   24  O           1     -20.469  -3.993 -11.430  0.00  0.00    -0.274 OA
ENDBRANCH  19  20
ENDBRANCH  15  19
ENDBRANCH   4  15
TORSDOF 9
ENDMDL
MODEL 4
REMARK VINA RESULT:      -6.6      1.780      2.901
REMARK  9 active torsions:
REMARK  status: ('A' for Active; 'I' for Inactive)
REMARK    1  A    between atoms: C_1  and  C_4 
REMARK       I    between atoms: N_2  and  C_16 
REMARK    2  A    between atoms: C_3  and  C_16 
REMARK    3  A    between atoms: C_3  and  C_4 
REMARK    4  A    between atoms: C_4  and  N_23 
REMARK    5  A    between atoms: N_5  and  C_17 
REMARK    6  A    between atoms: C_12  and  C_17 
REMARK    7  A    between atoms: C_12  and  C_22 
REMARK       I    between atoms: C_14  and  N_23 
REMARK    8  A    between atoms: C_14  and  C_17 
REMARK    9  A    between atoms: C_21  and  C_22 
ROOT
HETATM    1  O           1     -34.342  -1.545 -11.709  0.00  0.00    -0.271 OA
HETATM    2  H           1     -35.486  -2.178 -14.561  0.00  0.00     0.163 HD
HETATM    3  C           1     -34.633  -2.209 -12.675  0.00  0.00     0.249 C 
HETATM    4  N           1     -35.242  -1.621 -13.751  0.00  0.00    -0.344 N 
ENDROOT
BRANCH   3   5
HETATM    5  C           1     -34.325  -3.685 -12.696  0.00  0.00     0.275 C 
BRANCH   5   6
HETATM    6  N           1     -33.689  -4.045 -14.006  0.00  0.00    -0.066 N 
HETATM    7  H           1     -33.937  -3.327 -14.723  0.00  0.00     0.275 HD
HETATM    8  H           1     -32.651  -4.079 -13.891  0.00  0.00     0.275 HD
HETATM    9  H           1     -34.037  -4.981 -14.316  0.00  0.00     0.275 HD
ENDBRANCH   5   6
BRANCH   5  10
HETATM   10  C           1     -33.370  -4.022 -11.559  0.00  0.00     0.053 C 
BRANCH  10  11
HETATM   11  C           1     -34.138  -4.707 -10.436  0.00  0.00     0.115 C 
BRANCH  11  12
HETATM   12  C           1     -34.000  -6.204 -10.572  0.00  0.00     0.172 C 
HETATM   13  O           1     -32.935  -6.697 -11.001  0.00  0.00    -0.648 OA
HETATM   14  O           1     -34.951  -6.950 -10.254  0.00  0.00    -0.648 OA
ENDBRANCH  11  12
ENDBRANCH  10  11
ENDBRANCH   5  10
ENDBRANCH   3   5
BRANCH   4  15
HETATM   15  C           1     -35.538  -0.202 -13.732  0.00  0.00     0.194 C 
BRANCH  15  16
HETATM   16  C           1     -36.957   0.009 -13.263  0.00  0.00     0.197 C 
HETATM   17  O           1     -37.206   0.090 -12.041  0.00  0.00    -0.646 OA
HETATM   18  O           1     -37.883   0.102 -14.097  0.00  0.00    -0.646 OA
ENDBRANCH  15  16
BRANCH  15  19
HETATM   19  C           1     -35.376   0.369 -15.134  0.00  0.00     0.138 C 
BRANCH  19  20
HETATM   20  C           1     -35.638  -0.713 -16.152  0.00  0.00     0.217 C 
HETATM   21  N           1     -36.877  -0.830 -16.721  0.00  0.00    -0.370 N 
HETATM   22  H           1     -37.617  -0.191 -16.460  0.00  0.00     0.159 HD
HETATM   23  H           1     -37.054  -1.556 -17.405  0.00  0.00     0.159 HD
HETATM   24  O           1     -34.755  -1.476 -16.465  0.00  0.00    -0.274 OA
ENDBRANCH  19  20
ENDBRANCH  15  19
ENDBRANCH   4  15
TORSDOF 9
ENDMDL
MODEL 5
REMARK VINA RESULT:      -6.3      2.223      3.780
REMARK  9 active torsions:
REMARK  status: ('A' for Active; 'I' for Inactive)
REMARK    1  A    between atoms: C_1  and  C_4 
REMARK       I    between atoms: N_2  and  C_16 
REMARK    2  A    between atoms: C_3  and  C_16 
REMARK    3  A    between atoms: C_3  and  C_4 
REMARK    4  A    between atoms: C_4  and  N_23 
REMARK    5  A    between atoms: N_5  and  C_17 
REMARK    6  A    between atoms: C_12  and  C_17 
REMARK    7  A    between atoms: C_12  and  C_22 
REMARK       I    between atoms: C_14  and  N_23 
REMARK    8  A    between atoms: C_14  and  C_17 
REMARK    9  A    between atoms: C_21  and  C_22 
ROOT
HETATM    1  O           1     -33.762  -1.825 -10.800  0.00  0.00    -0.271 OA
HETATM    2  H           1     -35.939  -2.482 -12.961  0.00  0.00     0.163 HD
HETATM    3  C           1     -34.370  -2.481 -11.612  0.00  0.00     0.249 C 
HETATM    4  N           1     -35.430  -1.932 -12.280  0.00  0.00    -0.344 N 
ENDROOT
BRANCH   3   5
HETATM    5  C           1     -33.958  -3.906 -11.888  0.00  0.00     0.275 C 
BRANCH   5   6
HETATM    6  N           1     -32.469  -3.972 -12.057  0.00  0.00    -0.066 N 
HETATM    7  H           1     -32.056  -3.028 -11.883  0.00  0.00     0.275 HD
HETATM    8  H           1     -32.071  -4.657 -11.376  0.00  0.00     0.275 HD
HETATM    9  H           1     -32.243  -4.276 -13.031  0.00  0.00     0.275 HD
ENDBRANCH   5   6
BRANCH   5  10
HETATM   10  C           1     -34.376  -4.792 -10.723  0.00  0.00     0.053 C 
BRANCH  10  11
HETATM   11  C           1     -33.738  -6.167 -10.876  0.00  0.00     0.115 C 
BRANCH  11  12
HETATM   12  C           1     -34.552  -7.187 -10.116  0.00  0.00     0.172 C 
HETATM   13  O           1     -34.245  -8.397 -10.171  0.00  0.00    -0.648 OA
HETATM   14  O           1     -35.532  -6.821  -9.433  0.00  0.00    -0.648 OA
ENDBRANCH  11  12
ENDBRANCH  10  11
ENDBRANCH   5  10
ENDBRANCH   3   5
BRANCH   4  15
HETATM   15  C           1     -35.825  -0.563 -12.014  0.00  0.00     0.194 C 
BRANCH  15  16
HETATM   16  C           1     -36.741  -0.528 -10.815  0.00  0.00     0.197 C 
HETATM   17  O           1     -37.837  -1.129 -10.847  0.00  0.00    -0.646 OA
HETATM   18  O           1     -36.403   0.101  -9.789  0.00  0.00    -0.646 OA
ENDBRANCH  15  16
BRANCH  15  19
HETATM   19  C           1     -36.555  -0.001 -13.227  0.00  0.00     0.138 C 
BRANCH  19  20
HETATM   20  C           1     -35.551   0.369 -14.292  0.00  0.00     0.217 C 
HETATM   21  N           1     -35.642   1.578 -14.925  0.00  0.00    -0.370 N 
HETATM   22  H           1     -36.380   2.225 -14.680  0.00  0.00     0.159 HD
HETATM   23  H           1     -34.968   1.827 -15.640  0.00  0.00     0.159 HD
HETATM   24  O           1     -34.669  -0.403 -14.584  0.00  0.00    -0.274 OA
ENDBRANCH  19  20
ENDBRANCH  15  19
ENDBRANCH   4  15
TORSDOF 9
ENDMDL
MODEL 6
REMARK VINA RESULT:      -6.3     10.143     11.811
REMARK  9 active torsions:
REMARK  status: ('A' for Active; 'I' for Inactive)
REMARK    1  A    between atoms: C_1  and  C_4 
REMARK       I    between atoms: N_2  and  C_16 
REMARK    2  A    between atoms: C_3  and  C_16 
REMARK    3  A    between atoms: C_3  and  C_4 
REMARK    4  A    between atoms: C_4  and  N_23 
REMARK    5  A    between atoms: N_5  and  C_17 
REMARK    6  A    between atoms: C_12  and  C_17 
REMARK    7  A    between atoms: C_12  and  C_22 
REMARK       I    between atoms: C_14  and  N_23 
REMARK    8  A    between atoms: C_14  and  C_17 
REMARK    9  A    between atoms: C_21  and  C_22 
ROOT
HETATM    1  O           1     -25.914  -5.837 -16.255  0.00  0.00    -0.271 OA
HETATM    2  H           1     -27.338  -7.022 -18.786  0.00  0.00     0.163 HD
HETATM    3  C           1     -26.018  -6.305 -17.364  0.00  0.00     0.249 C 
HETATM    4  N           1     -27.252  -6.631 -17.857  0.00  0.00    -0.344 N 
ENDROOT
BRANCH   3   5
HETATM    5  C           1     -24.785  -6.529 -18.205  0.00  0.00     0.275 C 
BRANCH   5   6
HETATM    6  N           1     -24.073  -7.761 -17.729  0.00  0.00    -0.066 N 
HETATM    7  H           1     -24.743  -8.374 -17.214  0.00  0.00     0.275 HD
HETATM    8  H           1     -23.687  -8.279 -18.551  0.00  0.00     0.275 HD
HETATM    9  H           1     -23.292  -7.485 -17.091  0.00  0.00     0.275 HD
ENDBRANCH   5   6
BRANCH   5  10
HETATM   10  C           1     -25.189  -6.708 -19.662  0.00  0.00     0.053 C 
BRANCH  10  11
HETATM   11  C           1     -24.252  -7.707 -20.330  0.00  0.00     0.115 C 
BRANCH  11  12
HETATM   12  C           1     -24.867  -8.188 -21.622  0.00  0.00     0.172 C 
HETATM   13  O           1     -24.179  -8.226 -22.665  0.00  0.00    -0.648 OA
HETATM   14  O           1     -26.063  -8.548 -21.649  0.00  0.00    -0.648 OA
ENDBRANCH  11  12
ENDBRANCH  10  11
ENDBRANCH   5  10
ENDBRANCH   3   5
BRANCH   4  15
HETATM   15  C           1     -28.436  -6.416 -17.048  0.00  0.00     0.194 C 
BRANCH  15  16
HETATM   16  C           1     -28.663  -7.615 -16.161  0.00  0.00     0.197 C 
HETATM   17  O           1     -29.373  -8.563 -16.561  0.00  0.00    -0.646 OA
HETATM   18  O           1     -28.141  -7.661 -15.026  0.00  0.00    -0.646 OA
ENDBRANCH  15  16
BRANCH  15  19
HETATM   19  C           1     -29.642  -6.221 -17.957  0.00  0.00     0.138 C 
BRANCH  19  20
HETATM   20  C           1     -30.835  -5.808 -17.129  0.00  0.00     0.217 C 
HETATM   21  N           1     -31.951  -6.600 -17.096  0.00  0.00    -0.370 N 
HETATM   22  H           1     -31.976  -7.462 -17.626  0.00  0.00     0.159 HD
HETATM   23  H           1     -32.751  -6.324 -16.541  0.00  0.00     0.159 HD
HETATM   24  O           1     -30.804  -4.780 -16.497  0.00  0.00    -0.274 OA
ENDBRANCH  19  20
ENDBRANCH  15  19
ENDBRANCH   4  15
TORSDOF 9
ENDMDL
MODEL 7
REMARK VINA RESULT:      -6.2      4.254      6.773
REMARK  9 active torsions:
REMARK  status: ('A' for Active; 'I' for Inactive)
REMARK    1  A    between atoms: C_1  and  C_4 
REMARK       I    between atoms: N_2  and  C_16 
REMARK    2  A    between atoms: C_3  and  C_16 
REMARK    3  A    between atoms: C_3  and  C_4 
REMARK    4  A    between atoms: C_4  and  N_23 
REMARK    5  A    between atoms: N_5  and  C_17 
REMARK    6  A    between atoms: C_12  and  C_17 
REMARK    7  A    between atoms: C_12  and  C_22 
REMARK       I    between atoms: C_14  and  N_23 
REMARK    8  A    between atoms: C_14  and  C_17 
REMARK    9  A    between atoms: C_21  and  C_22 
ROOT
HETATM    1  O           1     -35.040  -4.940 -15.524  0.00  0.00    -0.271 OA
HETATM    2  H           1     -32.470  -3.638 -14.282  0.00  0.00     0.163 HD
HETATM    3  C           1     -33.912  -4.509 -15.484  0.00  0.00     0.249 C 
HETATM    4  N           1     -33.415  -3.998 -14.315  0.00  0.00    -0.344 N 
ENDROOT
BRANCH   3   5
HETATM    5  C           1     -33.052  -4.534 -16.723  0.00  0.00     0.275 C 
BRANCH   5   6
HETATM    6  N           1     -33.124  -3.200 -17.407  0.00  0.00    -0.066 N 
HETATM    7  H           1     -32.771  -2.458 -16.762  0.00  0.00     0.275 HD
HETATM    8  H           1     -32.535  -3.220 -18.270  0.00  0.00     0.275 HD
HETATM    9  H           1     -34.116  -2.995 -17.665  0.00  0.00     0.275 HD
ENDBRANCH   5   6
BRANCH   5  10
HETATM   10  C           1     -31.609  -4.828 -16.336  0.00  0.00     0.053 C 
BRANCH  10  11
HETATM   11  C           1     -30.940  -5.633 -17.442  0.00  0.00     0.115 C 
BRANCH  11  12
HETATM   12  C           1     -29.849  -6.493 -16.851  0.00  0.00     0.172 C 
HETATM   13  O           1     -29.729  -7.684 -17.209  0.00  0.00    -0.648 OA
HETATM   14  O           1     -29.067  -6.013 -16.003  0.00  0.00    -0.648 OA
ENDBRANCH  11  12
ENDBRANCH  10  11
ENDBRANCH   5  10
ENDBRANCH   3   5
BRANCH   4  15
HETATM   15  C           1     -34.242  -3.975 -13.124  0.00  0.00     0.194 C 
BRANCH  15  16
HETATM   16  C           1     -34.643  -2.552 -12.819  0.00  0.00     0.197 C 
HETATM   17  O           1     -34.518  -2.103 -11.659  0.00  0.00    -0.646 OA
HETATM   18  O           1     -35.099  -1.823 -13.726  0.00  0.00    -0.646 OA
ENDBRANCH  15  16
BRANCH  15  19
HETATM   19  C           1     -33.457  -4.545 -11.950  0.00  0.00     0.138 C 
BRANCH  19  20
HETATM   20  C           1     -34.224  -5.695 -11.343  0.00  0.00     0.217 C 
HETATM   21  N           1     -34.941  -6.539 -12.148  0.00  0.00    -0.370 N 
HETATM   22  H           1     -34.958  -6.392 -13.149  0.00  0.00     0.159 HD
HETATM   23  H           1     -35.455  -7.310 -11.741  0.00  0.00     0.159 HD
HETATM   24  O           1     -34.204  -5.870 -10.148  0.00  0.00    -0.274 OA
ENDBRANCH  19  20
ENDBRANCH  15  19
ENDBRANCH   4  15
TORSDOF 9
ENDMDL
MODEL 8
REMARK VINA RESULT:      -6.1      6.719      8.012
REMARK  9 active torsions:
REMARK  status: ('A' for Active; 'I' for Inactive)
REMARK    1  A    between atoms: C_1  and  C_4 
REMARK       I    between atoms: N_2  and  C_16 
REMARK    2  A    between atoms: C_3  and  C_16 
REMARK    3  A    between atoms: C_3  and  C_4 
REMARK    4  A    between atoms: C_4  and  N_23 
REMARK    5  A    between atoms: N_5  and  C_17 
REMARK    6  A    between atoms: C_12  and  C_17 
REMARK    7  A    between atoms: C_12  and  C_22 
REMARK       I    between atoms: C_14  and  N_23 
REMARK    8  A    between atoms: C_14  and  C_17 
REMARK    9  A    between atoms: C_21  and  C_22 
ROOT
HETATM    1  O           1     -31.855  -7.337 -17.836  0.00  0.00    -0.271 OA
HETATM    2  H           1     -30.125  -5.191 -16.338  0.00  0.00     0.163 HD
HETATM    3  C           1     -30.875  -6.846 -17.328  0.00  0.00     0.249 C 
HETATM    4  N           1     -30.946  -5.601 -16.764  0.00  0.00    -0.344 N 
ENDROOT
BRANCH   3   5
HETATM    5  C           1     -29.572  -7.606 -17.316  0.00  0.00     0.275 C 
BRANCH   5   6
HETATM    6  N           1     -29.375  -8.280 -18.643  0.00  0.00    -0.066 N 
HETATM    7  H           1     -28.455  -8.775 -18.649  0.00  0.00     0.275 HD
HETATM    8  H           1     -30.143  -8.970 -18.801  0.00  0.00     0.275 HD
HETATM    9  H           1     -29.388  -7.561 -19.402  0.00  0.00     0.275 HD
ENDBRANCH   5   6
BRANCH   5  10
HETATM   10  C           1     -28.422  -6.642 -17.061  0.00  0.00     0.053 C 
BRANCH  10  11
HETATM   11  C           1     -27.688  -7.050 -15.790  0.00  0.00     0.115 C 
BRANCH  11  12
HETATM   12  C           1     -26.223  -6.715 -15.924  0.00  0.00     0.172 C 
HETATM   13  O           1     -25.857  -5.815 -16.710  0.00  0.00    -0.648 OA
HETATM   14  O           1     -25.375  -7.338 -15.250  0.00  0.00    -0.648 OA
ENDBRANCH  11  12
ENDBRANCH  10  11
ENDBRANCH   5  10
ENDBRANCH   3   5
BRANCH   4  15
HETATM   15  C           1     -32.199  -4.871 -16.775  0.00  0.00     0.194 C 
BRANCH  15  16
HETATM   16  C           1     -32.024  -3.586 -17.548  0.00  0.00     0.197 C 
HETATM   17  O           1     -30.914  -3.306 -18.052  0.00  0.00    -0.646 OA
HETATM   18  O           1     -32.988  -2.802 -17.684  0.00  0.00    -0.646 OA
ENDBRANCH  15  16
BRANCH  15  19
HETATM   19  C           1     -32.613  -4.551 -15.345  0.00  0.00     0.138 C 
BRANCH  19  20
HETATM   20  C           1     -34.114  -4.411 -15.275  0.00  0.00     0.217 C 
HETATM   21  N           1     -34.917  -5.416 -15.744  0.00  0.00    -0.370 N 
HETATM   22  H           1     -34.504  -6.252 -16.137  0.00  0.00     0.159 HD
HETATM   23  H           1     -35.924  -5.322 -15.697  0.00  0.00     0.159 HD
HETATM   24  O           1     -34.606  -3.413 -14.805  0.00  0.00    -0.274 OA
ENDBRANCH  19  20
ENDBRANCH  15  19
ENDBRANCH   4  15
TORSDOF 9
ENDMDL
MODEL 9
REMARK VINA RESULT:      -6.1     12.434     14.774
REMARK  9 active torsions:
REMARK  status: ('A' for Active; 'I' for Inactive)
REMARK    1  A    between atoms: C_1  and  C_4 
REMARK       I    between atoms: N_2  and  C_16 
REMARK    2  A    between atoms: C_3  and  C_16 
REMARK    3  A    between atoms: C_3  and  C_4 
REMARK    4  A    between atoms: C_4  and  N_23 
REMARK    5  A    between atoms: N_5  and  C_17 
REMARK    6  A    between atoms: C_12  and  C_17 
REMARK    7  A    between atoms: C_12  and  C_22 
REMARK       I    between atoms: C_14  and  N_23 
REMARK    8  A    between atoms: C_14  and  C_17 
REMARK    9  A    between atoms: C_21  and  C_22 
ROOT
HETATM    1  O           1     -21.710  -3.277  -7.409  0.00  0.00    -0.271 OA
HETATM    2  H           1     -22.026  -5.885  -9.123  0.00  0.00     0.163 HD
HETATM    3  C           1     -21.638  -4.451  -7.683  0.00  0.00     0.249 C 
HETATM    4  N           1     -22.088  -4.901  -8.894  0.00  0.00    -0.344 N 
ENDROOT
BRANCH   3   5
HETATM    5  C           1     -21.050  -5.421  -6.688  0.00  0.00     0.275 C 
BRANCH   5   6
HETATM    6  N           1     -19.936  -4.754  -5.938  0.00  0.00    -0.066 N 
HETATM    7  H           1     -19.224  -5.467  -5.664  0.00  0.00     0.275 HD
HETATM    8  H           1     -19.489  -4.032  -6.547  0.00  0.00     0.275 HD
HETATM    9  H           1     -20.319  -4.298  -5.079  0.00  0.00     0.275 HD
ENDBRANCH   5   6
BRANCH   5  10
HETATM   10  C           1     -22.129  -5.861  -5.708  0.00  0.00     0.053 C 
BRANCH  10  11
HETATM   11  C           1     -21.678  -7.127  -4.989  0.00  0.00     0.115 C 
BRANCH  11  12
HETATM   12  C           1     -21.622  -6.869  -3.503  0.00  0.00     0.172 C 
HETATM   13  O           1     -20.821  -7.510  -2.788  0.00  0.00    -0.648 OA
HETATM   14  O           1     -22.375  -6.016  -2.988  0.00  0.00    -0.648 OA
ENDBRANCH  11  12
ENDBRANCH  10  11
ENDBRANCH   5  10
ENDBRANCH   3   5
BRANCH   4  15
HETATM   15  C           1     -22.652  -3.969  -9.850  0.00  0.00     0.194 C 
BRANCH  15  16
HETATM   16  C           1     -24.156  -3.965  -9.721  0.00  0.00     0.197 C 
HETATM   17  O           1     -24.801  -5.021  -9.899  0.00  0.00    -0.646 OA
HETATM   18  O           1     -24.756  -2.906  -9.436  0.00  0.00    -0.646 OA
ENDBRANCH  15  16
BRANCH  15  19
HETATM   19  C           1     -22.264  -4.392 -11.261  0.00  0.00     0.138 C 
BRANCH  19  20
HETATM   20  C           1     -22.791  -3.383 -12.252  0.00  0.00     0.217 C 
HETATM   21  N           1     -23.546  -3.798 -13.315  0.00  0.00    -0.370 N 
HETATM   22  H           1     -23.751  -4.782 -13.437  0.00  0.00     0.159 HD
HETATM   23  H           1     -23.900  -3.122 -13.980  0.00  0.00     0.159 HD
HETATM   24  O           1     -22.546  -2.209 -12.107  0.00  0.00    -0.274 OA
ENDBRANCH  19  20
ENDBRANCH  15  19
ENDBRANCH   4  15
TORSDOF 9
ENDMDL
