MODEL 1
REMARK VINA RESULT:      -6.0      0.000      0.000
REMARK  9 active torsions:
REMARK  status: ('A' for Active; 'I' for Inactive)
REMARK    1  A    between atoms: C_2  and  C_11 
REMARK    2  A    between atoms: C_4  and  C_5 
REMARK    3  A    between atoms: C_4  and  C_21 
REMARK    4  A    between atoms: C_4  and  N_24 
REMARK       I    between atoms: C_5  and  N_6 
REMARK    5  A    between atoms: N_6  and  C_10 
REMARK    6  A    between atoms: C_9  and  C_10 
REMARK    7  A    between atoms: C_10  and  C_11 
REMARK       I    between atoms: N_17  and  C_18 
REMARK    8  A    between atoms: C_18  and  C_23 
REMARK    9  A    between atoms: C_21  and  C_23 
ROOT
HETATM    1  C           1     -23.668  -4.429  -9.104  0.00  0.00     0.275 C 
ENDROOT
BRANCH   1   2
HETATM    2  C           1     -22.409  -4.144  -8.322  0.00  0.00     0.249 C 
HETATM    3  O           1     -21.692  -3.227  -8.644  0.00  0.00    -0.271 OA
HETATM    4  N           1     -22.081  -4.926  -7.245  0.00  0.00    -0.344 N 
HETATM    5  H           1     -22.682  -5.694  -6.975  0.00  0.00     0.163 HD
BRANCH   4   6
HETATM    6  C           1     -20.870  -4.653  -6.494  0.00  0.00     0.195 C 
BRANCH   6   7
HETATM    7  C           1     -19.677  -5.173  -7.256  0.00  0.00     0.197 C 
HETATM    8  O           1     -18.685  -4.436  -7.444  0.00  0.00    -0.646 OA
HETATM    9  O           1     -19.678  -6.342  -7.698  0.00  0.00    -0.646 OA
ENDBRANCH   6   7
BRANCH   6  10
HETATM   10  C           1     -20.949  -5.344  -5.139  0.00  0.00     0.149 C 
BRANCH  10  11
HETATM   11  C           1     -22.030  -6.397  -5.173  0.00  0.00     0.175 C 
HETATM   12  O           1     -21.744  -7.578  -5.465  0.00  0.00    -0.648 OA
HETATM   13  O           1     -23.212  -6.087  -4.911  0.00  0.00    -0.648 OA
ENDBRANCH  10  11
ENDBRANCH   6  10
ENDBRANCH   4   6
ENDBRANCH   1   2
BRANCH   1  14
HETATM   14  C           1     -23.313  -4.686 -10.562  0.00  0.00     0.052 C 
BRANCH  14  15
HETATM   15  C           1     -23.980  -3.636 -11.441  0.00  0.00     0.105 C 
BRANCH  15  16
HETATM   16  C           1     -22.930  -2.905 -12.239  0.00  0.00     0.215 C 
HETATM   17  O           1     -23.245  -2.281 -13.224  0.00  0.00    -0.274 OA
HETATM   18  N           1     -21.619  -2.949 -11.847  0.00  0.00    -0.370 N 
HETATM   19  H           1     -20.914  -2.458 -12.383  0.00  0.00     0.159 HD
HETATM   20  H           1     -21.354  -3.471 -11.022  0.00  0.00     0.159 HD
ENDBRANCH  15  16
ENDBRANCH  14  15
ENDBRANCH   1  14
BRANCH   1  21
HETATM   21  N           1     -24.589  -3.248  -9.015  0.00  0.00    -0.066 N 
HETATM   22  H           1     -24.045  -2.404  -8.722  0.00  0.00     0.275 HD
HETATM   23  H           1     -25.337  -3.440  -8.312  0.00  0.00     0.275 HD
HETATM   24  H           1     -25.025  -3.075  -9.949  0.00  0.00     0.275 HD
ENDBRANCH   1  21
TORSDOF 9
ENDMDL
MODEL 2
REMARK VINA RESULT:      -6.0      2.488      6.714
REMARK  9 active torsions:
REMARK  status: ('A' for Active; 'I' for Inactive)
REMARK    1  A    between atoms: C_2  and  C_11 
REMARK    2  A    between atoms: C_4  and  C_5 
REMARK    3  A    between atoms: C_4  and  C_21 
REMARK    4  A    between atoms: C_4  and  N_24 
REMARK       I    between atoms: C_5  and  N_6 
REMARK    5  A    between atoms: N_6  and  C_10 
REMARK    6  A    between atoms: C_9  and  C_10 
REMARK    7  A    between atoms: C_10  and  C_11 
REMARK       I    between atoms: N_17  and  C_18 
REMARK    8  A    between atoms: C_18  and  C_23 
REMARK    9  A    between atoms: C_21  and  C_23 
ROOT
HETATM    1  C           1     -21.258  -5.998  -6.809  0.00  0.00     0.275 C 
ENDROOT
BRANCH   1   2
HETATM    2  C           1     -21.729  -4.811  -7.612  0.00  0.00     0.249 C 
HETATM    3  O           1     -21.604  -3.694  -7.170  0.00  0.00    -0.271 OA
HETATM    4  N           1     -22.298  -5.000  -8.844  0.00  0.00    -0.344 N 
HETATM    5  H           1     -22.403  -5.936  -9.215  0.00  0.00     0.163 HD
BRANCH   4   6
HETATM    6  C           1     -22.751  -3.858  -9.616  0.00  0.00     0.195 C 
BRANCH   6   7
HETATM    7  C           1     -24.259  -3.844  -9.654  0.00  0.00     0.197 C 
HETATM    8  O           1     -24.890  -4.903  -9.857  0.00  0.00    -0.646 OA
HETATM    9  O           1     -24.878  -2.772  -9.480  0.00  0.00    -0.646 OA
ENDBRANCH   6   7
BRANCH   6  10
HETATM   10  C           1     -22.207  -3.959 -11.035  0.00  0.00     0.149 C 
BRANCH  10  11
HETATM   11  C           1     -20.708  -3.788 -11.012  0.00  0.00     0.175 C 
HETATM   12  O           1     -20.200  -2.681 -11.295  0.00  0.00    -0.648 OA
HETATM   13  O           1     -19.974  -4.753 -10.710  0.00  0.00    -0.648 OA
ENDBRANCH  10  11
ENDBRANCH   6  10
ENDBRANCH   4   6
ENDBRANCH   1   2
BRANCH   1  14
HETATM   14  C           1     -21.371  -5.683  -5.323  0.00  0.00     0.052 C 
BRANCH  14  15
HETATM   15  C           1     -21.892  -6.908  -4.582  0.00  0.00     0.105 C 
BRANCH  15  16
HETATM   16  C           1     -21.648  -6.744  -3.103  0.00  0.00     0.215 C 
HETATM   17  O           1     -20.775  -7.380  -2.560  0.00  0.00    -0.274 OA
HETATM   18  N           1     -22.415  -5.874  -2.374  0.00  0.00    -0.370 N 
HETATM   19  H           1     -22.251  -5.765  -1.381  0.00  0.00     0.159 HD
HETATM   20  H           1     -23.146  -5.342  -2.828  0.00  0.00     0.159 HD
ENDBRANCH  15  16
ENDBRANCH  14  15
ENDBRANCH   1  14
BRANCH   1  21
HETATM   21  N           1     -19.828  -6.295  -7.148  0.00  0.00    -0.066 N 
HETATM   22  H           1     -19.228  -5.486  -6.868  0.00  0.00     0.275 HD
HETATM   23  H           1     -19.738  -6.453  -8.177  0.00  0.00     0.275 HD
HETATM   24  H           1     -19.519  -7.152  -6.636  0.00  0.00     0.275 HD
ENDBRANCH   1  21
TORSDOF 9
ENDMDL
MODEL 3
REMARK VINA RESULT:      -5.9      2.464      4.439
REMARK  9 active torsions:
REMARK  status: ('A' for Active; 'I' for Inactive)
REMARK    1  A    between atoms: C_2  and  C_11 
REMARK    2  A    between atoms: C_4  and  C_5 
REMARK    3  A    between atoms: C_4  and  C_21 
REMARK    4  A    between atoms: C_4  and  N_24 
REMARK       I    between atoms: C_5  and  N_6 
REMARK    5  A    between atoms: N_6  and  C_10 
REMARK    6  A    between atoms: C_9  and  C_10 
REMARK    7  A    between atoms: C_10  and  C_11 
REMARK       I    between atoms: N_17  and  C_18 
REMARK    8  A    between atoms: C_18  and  C_23 
REMARK    9  A    between atoms: C_21  and  C_23 
ROOT
HETATM    1  C           1     -20.417  -5.020  -6.518  0.00  0.00     0.275 C 
ENDROOT
BRANCH   1   2
HETATM    2  C           1     -21.337  -5.803  -5.614  0.00  0.00     0.249 C 
HETATM    3  O           1     -22.530  -5.620  -5.660  0.00  0.00    -0.271 OA
HETATM    4  N           1     -20.819  -6.724  -4.742  0.00  0.00    -0.344 N 
HETATM    5  H           1     -19.819  -6.878  -4.704  0.00  0.00     0.163 HD
BRANCH   4   6
HETATM    6  C           1     -21.703  -7.477  -3.873  0.00  0.00     0.195 C 
BRANCH   6   7
HETATM    7  C           1     -21.655  -6.896  -2.482  0.00  0.00     0.197 C 
HETATM    8  O           1     -20.932  -7.422  -1.609  0.00  0.00    -0.646 OA
HETATM    9  O           1     -22.337  -5.886  -2.202  0.00  0.00    -0.646 OA
ENDBRANCH   6   7
BRANCH   6  10
HETATM   10  C           1     -21.255  -8.932  -3.833  0.00  0.00     0.149 C 
BRANCH  10  11
HETATM   11  C           1     -19.936  -9.072  -4.554  0.00  0.00     0.175 C 
HETATM   12  O           1     -19.916  -9.334  -5.776  0.00  0.00    -0.648 OA
HETATM   13  O           1     -18.864  -8.927  -3.928  0.00  0.00    -0.648 OA
ENDBRANCH  10  11
ENDBRANCH   6  10
ENDBRANCH   4   6
ENDBRANCH   1   2
BRANCH   1  14
HETATM   14  C           1     -21.170  -3.832  -7.103  0.00  0.00     0.052 C 
BRANCH  14  15
HETATM   15  C           1     -21.391  -4.054  -8.593  0.00  0.00     0.105 C 
BRANCH  15  16
HETATM   16  C           1     -22.850  -3.853  -8.921  0.00  0.00     0.215 C 
HETATM   17  O           1     -23.176  -3.483 -10.025  0.00  0.00    -0.274 OA
HETATM   18  N           1     -23.805  -4.090  -7.969  0.00  0.00    -0.370 N 
HETATM   19  H           1     -24.784  -3.955  -8.190  0.00  0.00     0.159 HD
HETATM   20  H           1     -23.533  -4.399  -7.046  0.00  0.00     0.159 HD
ENDBRANCH  15  16
ENDBRANCH  14  15
ENDBRANCH   1  14
BRANCH   1  21
HETATM   21  N           1     -19.938  -5.904  -7.631  0.00  0.00    -0.066 N 
HETATM   22  H           1     -18.899  -5.823  -7.718  0.00  0.00     0.275 HD
HETATM   23  H           1     -20.385  -5.610  -8.529  0.00  0.00     0.275 HD
HETATM   24  H           1     -20.194  -6.895  -7.423  0.00  0.00     0.275 HD
ENDBRANCH   1  21
TORSDOF 9
ENDMDL
MODEL 4
REMARK VINA RESULT:      -5.9      2.052      5.792
REMARK  9 active torsions:
REMARK  status: ('A' for Active; 'I' for Inactive)
REMARK    1  A    between atoms: C_2  and  C_11 
REMARK    2  A    between atoms: C_4  and  C_5 
REMARK    3  A    between atoms: C_4  and  C_21 
REMARK    4  A    between atoms: C_4  and  N_24 
REMARK       I    between atoms: C_5  and  N_6 
REMARK    5  A    between atoms: N_6  and  C_10 
REMARK    6  A    between atoms: C_9  and  C_10 
REMARK    7  A    between atoms: C_10  and  C_11 
REMARK       I    between atoms: N_17  and  C_18 
REMARK    8  A    between atoms: C_18  and  C_23 
REMARK    9  A    between atoms: C_21  and  C_23 
ROOT
HETATM    1  C           1     -21.587  -4.089  -6.984  0.00  0.00     0.275 C 
ENDROOT
BRANCH   1   2
HETATM    2  C           1     -21.338  -4.412  -8.437  0.00  0.00     0.249 C 
HETATM    3  O           1     -20.355  -5.037  -8.757  0.00  0.00    -0.271 OA
HETATM    4  N           1     -22.228  -3.997  -9.392  0.00  0.00    -0.344 N 
HETATM    5  H           1     -23.051  -3.474  -9.124  0.00  0.00     0.163 HD
BRANCH   4   6
HETATM    6  C           1     -21.987  -4.307 -10.789  0.00  0.00     0.195 C 
BRANCH   6   7
HETATM    7  C           1     -21.421  -3.094 -11.484  0.00  0.00     0.197 C 
HETATM    8  O           1     -20.214  -2.801 -11.347  0.00  0.00    -0.646 OA
HETATM    9  O           1     -22.159  -2.382 -12.199  0.00  0.00    -0.646 OA
ENDBRANCH   6   7
BRANCH   6  10
HETATM   10  C           1     -23.300  -4.707 -11.451  0.00  0.00     0.149 C 
BRANCH  10  11
HETATM   11  C           1     -24.456  -4.213 -10.616  0.00  0.00     0.175 C 
HETATM   12  O           1     -24.894  -4.914  -9.678  0.00  0.00    -0.648 OA
HETATM   13  O           1     -24.974  -3.103 -10.861  0.00  0.00    -0.648 OA
ENDBRANCH  10  11
ENDBRANCH   6  10
ENDBRANCH   4   6
ENDBRANCH   1   2
BRANCH   1  14
HETATM   14  C           1     -20.490  -4.711  -6.130  0.00  0.00     0.052 C 
BRANCH  14  15
HETATM   15  C           1     -21.075  -5.843  -5.296  0.00  0.00     0.105 C 
BRANCH  15  16
HETATM   16  C           1     -20.551  -7.164  -5.802  0.00  0.00     0.215 C 
HETATM   17  O           1     -19.528  -7.203  -6.443  0.00  0.00    -0.274 OA
HETATM   18  N           1     -21.235  -8.319  -5.534  0.00  0.00    -0.370 N 
HETATM   19  H           1     -20.884  -9.206  -5.873  0.00  0.00     0.159 HD
HETATM   20  H           1     -22.092  -8.288  -4.998  0.00  0.00     0.159 HD
ENDBRANCH  15  16
ENDBRANCH  14  15
ENDBRANCH   1  14
BRANCH   1  21
HETATM   21  N           1     -22.917  -4.644  -6.570  0.00  0.00    -0.066 N 
HETATM   22  H           1     -23.645  -4.363  -7.266  0.00  0.00     0.275 HD
HETATM   23  H           1     -23.175  -4.270  -5.629  0.00  0.00     0.275 HD
HETATM   24  H           1     -22.862  -5.687  -6.526  0.00  0.00     0.275 HD
ENDBRANCH   1  21
TORSDOF 9
ENDMDL
MODEL 5
REMARK VINA RESULT:      -5.9     10.561     12.744
REMARK  9 active torsions:
REMARK  status: ('A' for Active; 'I' for Inactive)
REMARK    1  A    between atoms: C_2  and  C_11 
REMARK    2  A    between atoms: C_4  and  C_5 
REMARK    3  A    between atoms: C_4  and  C_21 
REMARK    4  A    between atoms: C_4  and  N_24 
REMARK       I    between atoms: C_5  and  N_6 
REMARK    5  A    between atoms: N_6  and  C_10 
REMARK    6  A    between atoms: C_9  and  C_10 
REMARK    7  A    between atoms: C_10  and  C_11 
REMARK       I    between atoms: N_17  and  C_18 
REMARK    8  A    between atoms: C_18  and  C_23 
REMARK    9  A    between atoms: C_21  and  C_23 
ROOT
HETATM    1  C           1     -25.696  -6.332 -17.910  0.00  0.00     0.275 C 
ENDROOT
BRANCH   1   2
HETATM    2  C           1     -27.131  -6.430 -17.453  0.00  0.00     0.249 C 
HETATM    3  O           1     -27.418  -6.183 -16.306  0.00  0.00    -0.271 OA
HETATM    4  N           1     -28.108  -6.799 -18.340  0.00  0.00    -0.344 N 
HETATM    5  H           1     -27.868  -7.007 -19.301  0.00  0.00     0.163 HD
BRANCH   4   6
HETATM    6  C           1     -29.487  -6.895 -17.900  0.00  0.00     0.195 C 
BRANCH   6   7
HETATM    7  C           1     -30.210  -7.926 -18.730  0.00  0.00     0.197 C 
HETATM    8  O           1     -31.454  -7.881 -18.838  0.00  0.00    -0.646 OA
HETATM    9  O           1     -29.565  -8.824 -19.313  0.00  0.00    -0.646 OA
ENDBRANCH   6   7
BRANCH   6  10
HETATM   10  C           1     -30.166  -5.541 -18.065  0.00  0.00     0.149 C 
BRANCH  10  11
HETATM   11  C           1     -30.923  -5.201 -16.804  0.00  0.00     0.175 C 
HETATM   12  O           1     -30.358  -5.287 -15.693  0.00  0.00    -0.648 OA
HETATM   13  O           1     -32.116  -4.834 -16.872  0.00  0.00    -0.648 OA
ENDBRANCH  10  11
ENDBRANCH   6  10
ENDBRANCH   4   6
ENDBRANCH   1   2
BRANCH   1  14
HETATM   14  C           1     -25.595  -6.775 -19.364  0.00  0.00     0.052 C 
BRANCH  14  15
HETATM   15  C           1     -24.184  -7.276 -19.645  0.00  0.00     0.105 C 
BRANCH  15  16
HETATM   16  C           1     -24.195  -8.152 -20.873  0.00  0.00     0.215 C 
HETATM   17  O           1     -25.170  -8.179 -21.587  0.00  0.00    -0.274 OA
HETATM   18  N           1     -23.102  -8.916 -21.179  0.00  0.00    -0.370 N 
HETATM   19  H           1     -23.109  -9.504 -22.003  0.00  0.00     0.159 HD
HETATM   20  H           1     -22.286  -8.895 -20.581  0.00  0.00     0.159 HD
ENDBRANCH  15  16
ENDBRANCH  14  15
ENDBRANCH   1  14
BRANCH   1  21
HETATM   21  N           1     -24.838  -7.218 -17.057  0.00  0.00    -0.066 N 
HETATM   22  H           1     -25.144  -7.143 -16.060  0.00  0.00     0.275 HD
HETATM   23  H           1     -23.840  -6.920 -17.137  0.00  0.00     0.275 HD
HETATM   24  H           1     -24.933  -8.208 -17.377  0.00  0.00     0.275 HD
ENDBRANCH   1  21
TORSDOF 9
ENDMDL
MODEL 6
REMARK VINA RESULT:      -5.6      2.060      6.751
REMARK  9 active torsions:
REMARK  status: ('A' for Active; 'I' for Inactive)
REMARK    1  A    between atoms: C_2  and  C_11 
REMARK    2  A    between atoms: C_4  and  C_5 
REMARK    3  A    between atoms: C_4  and  C_21 
REMARK    4  A    between atoms: C_4  and  N_24 
REMARK       I    between atoms: C_5  and  N_6 
REMARK    5  A    between atoms: N_6  and  C_10 
REMARK    6  A    between atoms: C_9  and  C_10 
REMARK    7  A    between atoms: C_10  and  C_11 
REMARK       I    between atoms: N_17  and  C_18 
REMARK    8  A    between atoms: C_18  and  C_23 
REMARK    9  A    between atoms: C_21  and  C_23 
ROOT
HETATM    1  C           1     -20.755  -5.457  -7.379  0.00  0.00     0.275 C 
ENDROOT
BRANCH   1   2
HETATM    2  C           1     -21.531  -4.465  -8.210  0.00  0.00     0.249 C 
HETATM    3  O           1     -21.675  -3.331  -7.819  0.00  0.00    -0.271 OA
HETATM    4  N           1     -22.071  -4.849  -9.409  0.00  0.00    -0.344 N 
HETATM    5  H           1     -21.951  -5.799  -9.737  0.00  0.00     0.163 HD
BRANCH   4   6
HETATM    6  C           1     -22.817  -3.895 -10.207  0.00  0.00     0.195 C 
BRANCH   6   7
HETATM    7  C           1     -24.269  -3.922  -9.796  0.00  0.00     0.197 C 
HETATM    8  O           1     -24.847  -2.861  -9.475  0.00  0.00    -0.646 OA
HETATM    9  O           1     -24.894  -5.004  -9.779  0.00  0.00    -0.646 OA
ENDBRANCH   6   7
BRANCH   6  10
HETATM   10  C           1     -22.699  -4.265 -11.680  0.00  0.00     0.149 C 
BRANCH  10  11
HETATM   11  C           1     -23.410  -3.231 -12.517  0.00  0.00     0.175 C 
HETATM   12  O           1     -23.067  -2.030 -12.453  0.00  0.00    -0.648 OA
HETATM   13  O           1     -24.343  -3.574 -13.274  0.00  0.00    -0.648 OA
ENDBRANCH  10  11
ENDBRANCH   6  10
ENDBRANCH   4   6
ENDBRANCH   1   2
BRANCH   1  14
HETATM   14  C           1     -21.636  -5.972  -6.249  0.00  0.00     0.052 C 
BRANCH  14  15
HETATM   15  C           1     -21.009  -5.609  -4.910  0.00  0.00     0.105 C 
BRANCH  15  16
HETATM   16  C           1     -21.606  -6.469  -3.823  0.00  0.00     0.215 C 
HETATM   17  O           1     -22.230  -5.958  -2.923  0.00  0.00    -0.274 OA
HETATM   18  N           1     -21.440  -7.827  -3.857  0.00  0.00    -0.370 N 
HETATM   19  H           1     -21.840  -8.404  -3.128  0.00  0.00     0.159 HD
HETATM   20  H           1     -20.917  -8.255  -4.610  0.00  0.00     0.159 HD
ENDBRANCH  15  16
ENDBRANCH  14  15
ENDBRANCH   1  14
BRANCH   1  21
HETATM   21  N           1     -19.544  -4.787  -6.802  0.00  0.00    -0.066 N 
HETATM   22  H           1     -19.800  -4.317  -5.904  0.00  0.00     0.275 HD
HETATM   23  H           1     -19.184  -4.074  -7.477  0.00  0.00     0.275 HD
HETATM   24  H           1     -18.803  -5.501  -6.622  0.00  0.00     0.275 HD
ENDBRANCH   1  21
TORSDOF 9
ENDMDL
MODEL 7
REMARK VINA RESULT:      -5.6     10.218     12.589
REMARK  9 active torsions:
REMARK  status: ('A' for Active; 'I' for Inactive)
REMARK    1  A    between atoms: C_2  and  C_11 
REMARK    2  A    between atoms: C_4  and  C_5 
REMARK    3  A    between atoms: C_4  and  C_21 
REMARK    4  A    between atoms: C_4  and  N_24 
REMARK       I    between atoms: C_5  and  N_6 
REMARK    5  A    between atoms: N_6  and  C_10 
REMARK    6  A    between atoms: C_9  and  C_10 
REMARK    7  A    between atoms: C_10  and  C_11 
REMARK       I    between atoms: N_17  and  C_18 
REMARK    8  A    between atoms: C_18  and  C_23 
REMARK    9  A    between atoms: C_21  and  C_23 
ROOT
HETATM    1  C           1     -25.553  -6.650 -19.578  0.00  0.00     0.275 C 
ENDROOT
BRANCH   1   2
HETATM    2  C           1     -26.915  -6.425 -18.968  0.00  0.00     0.249 C 
HETATM    3  O           1     -27.773  -5.855 -19.599  0.00  0.00    -0.271 OA
HETATM    4  N           1     -27.178  -6.868 -17.698  0.00  0.00    -0.344 N 
HETATM    5  H           1     -26.459  -7.345 -17.170  0.00  0.00     0.163 HD
BRANCH   4   6
HETATM    6  C           1     -28.486  -6.650 -17.112  0.00  0.00     0.195 C 
BRANCH   6   7
HETATM    7  C           1     -28.347  -6.482 -15.619  0.00  0.00     0.197 C 
HETATM    8  O           1     -27.783  -7.367 -14.941  0.00  0.00    -0.646 OA
HETATM    9  O           1     -28.795  -5.458 -15.060  0.00  0.00    -0.646 OA
ENDBRANCH   6   7
BRANCH   6  10
HETATM   10  C           1     -29.380  -7.847 -17.409  0.00  0.00     0.149 C 
BRANCH  10  11
HETATM   11  C           1     -30.704  -7.365 -17.951  0.00  0.00     0.175 C 
HETATM   12  O           1     -31.366  -6.515 -17.317  0.00  0.00    -0.648 OA
HETATM   13  O           1     -31.137  -7.815 -19.033  0.00  0.00    -0.648 OA
ENDBRANCH  10  11
ENDBRANCH   6  10
ENDBRANCH   4   6
ENDBRANCH   1   2
BRANCH   1  14
HETATM   14  C           1     -25.668  -7.652 -20.720  0.00  0.00     0.052 C 
BRANCH  14  15
HETATM   15  C           1     -24.677  -7.286 -21.817  0.00  0.00     0.105 C 
BRANCH  15  16
HETATM   16  C           1     -23.504  -8.233 -21.773  0.00  0.00     0.215 C 
HETATM   17  O           1     -22.888  -8.384 -20.744  0.00  0.00    -0.274 OA
HETATM   18  N           1     -23.136  -8.921 -22.898  0.00  0.00    -0.370 N 
HETATM   19  H           1     -22.348  -9.557 -22.868  0.00  0.00     0.159 HD
HETATM   20  H           1     -23.651  -8.795 -23.759  0.00  0.00     0.159 HD
ENDBRANCH  15  16
ENDBRANCH  14  15
ENDBRANCH   1  14
BRANCH   1  21
HETATM   21  N           1     -24.621  -7.189 -18.534  0.00  0.00    -0.066 N 
HETATM   22  H           1     -23.707  -7.437 -18.977  0.00  0.00     0.275 HD
HETATM   23  H           1     -25.038  -8.043 -18.099  0.00  0.00     0.275 HD
HETATM   24  H           1     -24.466  -6.464 -17.797  0.00  0.00     0.275 HD
ENDBRANCH   1  21
TORSDOF 9
ENDMDL
MODEL 8
REMARK VINA RESULT:      -5.4     10.227     12.738
REMARK  9 active torsions:
REMARK  status: ('A' for Active; 'I' for Inactive)
REMARK    1  A    between atoms: C_2  and  C_11 
REMARK    2  A    between atoms: C_4  and  C_5 
REMARK    3  A    between atoms: C_4  and  C_21 
REMARK    4  A    between atoms: C_4  and  N_24 
REMARK       I    between atoms: C_5  and  N_6 
REMARK    5  A    between atoms: N_6  and  C_10 
REMARK    6  A    between atoms: C_9  and  C_10 
REMARK    7  A    between atoms: C_10  and  C_11 
REMARK       I    between atoms: N_17  and  C_18 
REMARK    8  A    between atoms: C_18  and  C_23 
REMARK    9  A    between atoms: C_21  and  C_23 
ROOT
HETATM    1  C           1     -25.725  -6.940 -20.214  0.00  0.00     0.275 C 
ENDROOT
BRANCH   1   2
HETATM    2  C           1     -27.126  -7.214 -19.725  0.00  0.00     0.249 C 
HETATM    3  O           1     -27.871  -7.902 -20.380  0.00  0.00    -0.271 OA
HETATM    4  N           1     -27.552  -6.683 -18.536  0.00  0.00    -0.344 N 
HETATM    5  H           1     -26.928  -6.106 -17.987  0.00  0.00     0.163 HD
BRANCH   4   6
HETATM    6  C           1     -28.899  -6.946 -18.067  0.00  0.00     0.195 C 
BRANCH   6   7
HETATM    7  C           1     -29.704  -5.671 -18.109  0.00  0.00     0.197 C 
HETATM    8  O           1     -30.643  -5.497 -17.301  0.00  0.00    -0.646 OA
HETATM    9  O           1     -29.433  -4.787 -18.949  0.00  0.00    -0.646 OA
ENDBRANCH   6   7
BRANCH   6  10
HETATM   10  C           1     -28.843  -7.466 -16.636  0.00  0.00     0.149 C 
BRANCH  10  11
HETATM   11  C           1     -27.674  -6.838 -15.917  0.00  0.00     0.175 C 
HETATM   12  O           1     -27.718  -5.634 -15.584  0.00  0.00    -0.648 OA
HETATM   13  O           1     -26.661  -7.522 -15.656  0.00  0.00    -0.648 OA
ENDBRANCH  10  11
ENDBRANCH   6  10
ENDBRANCH   4   6
ENDBRANCH   1   2
BRANCH   1  14
HETATM   14  C           1     -25.377  -7.914 -21.331  0.00  0.00     0.052 C 
BRANCH  14  15
HETATM   15  C           1     -24.153  -7.409 -22.084  0.00  0.00     0.105 C 
BRANCH  15  16
HETATM   16  C           1     -23.027  -8.402 -21.939  0.00  0.00     0.215 C 
HETATM   17  O           1     -22.298  -8.353 -20.977  0.00  0.00    -0.274 OA
HETATM   18  N           1     -22.829  -9.358 -22.899  0.00  0.00    -0.370 N 
HETATM   19  H           1     -22.073 -10.024 -22.802  0.00  0.00     0.159 HD
HETATM   20  H           1     -23.439  -9.399 -23.705  0.00  0.00     0.159 HD
ENDBRANCH  15  16
ENDBRANCH  14  15
ENDBRANCH   1  14
BRANCH   1  21
HETATM   21  N           1     -24.757  -7.113 -19.081  0.00  0.00    -0.066 N 
HETATM   22  H           1     -24.715  -8.122 -18.811  0.00  0.00     0.275 HD
HETATM   23  H           1     -25.073  -6.547 -18.261  0.00  0.00     0.275 HD
HETATM   24  H           1     -23.809  -6.792 -19.380  0.00  0.00     0.275 HD
ENDBRANCH   1  21
TORSDOF 9
ENDMDL
MODEL 9
REMARK VINA RESULT:      -5.4     10.092     12.097
REMARK  9 active torsions:
REMARK  status: ('A' for Active; 'I' for Inactive)
REMARK    1  A    between atoms: C_2  and  C_11 
REMARK    2  A    between atoms: C_4  and  C_5 
REMARK    3  A    between atoms: C_4  and  C_21 
REMARK    4  A    between atoms: C_4  and  N_24 
REMARK       I    between atoms: C_5  and  N_6 
REMARK    5  A    between atoms: N_6  and  C_10 
REMARK    6  A    between atoms: C_9  and  C_10 
REMARK    7  A    between atoms: C_10  and  C_11 
REMARK       I    between atoms: N_17  and  C_18 
REMARK    8  A    between atoms: C_18  and  C_23 
REMARK    9  A    between atoms: C_21  and  C_23 
ROOT
HETATM    1  C           1     -24.731  -6.495 -18.067  0.00  0.00     0.275 C 
ENDROOT
BRANCH   1   2
HETATM    2  C           1     -25.996  -6.290 -17.270  0.00  0.00     0.249 C 
HETATM    3  O           1     -25.942  -5.805 -16.165  0.00  0.00    -0.271 OA
HETATM    4  N           1     -27.205  -6.653 -17.800  0.00  0.00    -0.344 N 
HETATM    5  H           1     -27.251  -7.060 -18.725  0.00  0.00     0.163 HD
BRANCH   4   6
HETATM    6  C           1     -28.421  -6.457 -17.033  0.00  0.00     0.195 C 
BRANCH   6   7
HETATM    7  C           1     -28.652  -7.652 -16.141  0.00  0.00     0.197 C 
HETATM    8  O           1     -28.214  -7.653 -14.971  0.00  0.00    -0.646 OA
HETATM    9  O           1     -29.283  -8.641 -16.572  0.00  0.00    -0.646 OA
ENDBRANCH   6   7
BRANCH   6  10
HETATM   10  C           1     -29.599  -6.297 -17.985  0.00  0.00     0.149 C 
BRANCH  10  11
HETATM   11  C           1     -30.827  -5.899 -17.202  0.00  0.00     0.175 C 
HETATM   12  O           1     -31.864  -6.595 -17.269  0.00  0.00    -0.648 OA
HETATM   13  O           1     -30.807  -4.874 -16.488  0.00  0.00    -0.648 OA
ENDBRANCH  10  11
ENDBRANCH   6  10
ENDBRANCH   4   6
ENDBRANCH   1   2
BRANCH   1  14
HETATM   14  C           1     -25.067  -6.535 -19.552  0.00  0.00     0.052 C 
BRANCH  14  15
HETATM   15  C           1     -24.327  -7.693 -20.209  0.00  0.00     0.105 C 
BRANCH  15  16
HETATM   16  C           1     -25.113  -8.182 -21.400  0.00  0.00     0.215 C 
HETATM   17  O           1     -24.596  -8.216 -22.492  0.00  0.00    -0.274 OA
HETATM   18  N           1     -26.411  -8.587 -21.244  0.00  0.00    -0.370 N 
HETATM   19  H           1     -26.939  -8.915 -22.044  0.00  0.00     0.159 HD
HETATM   20  H           1     -26.845  -8.558 -20.331  0.00  0.00     0.159 HD
ENDBRANCH  15  16
ENDBRANCH  14  15
ENDBRANCH   1  14
BRANCH   1  21
HETATM   21  N           1     -24.091  -7.790 -17.664  0.00  0.00    -0.066 N 
HETATM   22  H           1     -24.669  -8.249 -16.924  0.00  0.00     0.275 HD
HETATM   23  H           1     -23.132  -7.606 -17.292  0.00  0.00     0.275 HD
HETATM   24  H           1     -24.026  -8.420 -18.496  0.00  0.00     0.275 HD
ENDBRANCH   1  21
TORSDOF 9
ENDMDL
