MODEL 1
REMARK VINA RESULT:      -7.6      0.000      0.000
REMARK  10 active torsions:
REMARK  status: ('A' for Active; 'I' for Inactive)
REMARK    1  A    between atoms: C_1  and  C_30 
REMARK    2  A    between atoms: N_10  and  C_17 
REMARK    3  A    between atoms: O_13  and  P_14 
REMARK    4  A    between atoms: P_14  and  O_15 
REMARK    5  A    between atoms: O_15  and  C_16 
REMARK    6  A    between atoms: C_16  and  C_17 
REMARK    7  A    between atoms: C_17  and  C_18 
REMARK       I    between atoms: C_18  and  N_19 
REMARK    8  A    between atoms: N_19  and  C_30 
REMARK    9  A    between atoms: C_28  and  C_29 
REMARK   10  A    between atoms: C_29  and  C_30 
ROOT
HETATM    1  H           1     -20.547  -7.626  -7.438  0.00  0.00     0.163 HD
HETATM    2  O           1     -19.350  -5.063  -7.379  0.00  0.00    -0.271 OA
HETATM    3  C           1     -20.399  -5.591  -7.096  0.00  0.00     0.251 C 
HETATM    4  N           1     -20.425  -6.910  -6.733  0.00  0.00    -0.344 N 
ENDROOT
BRANCH   4   5
HETATM    5  C           1     -20.278  -7.282  -5.339  0.00  0.00     0.190 C 
BRANCH   5   6
HETATM    6  C           1     -19.234  -8.364  -5.215  0.00  0.00     0.197 C 
HETATM    7  O           1     -18.941  -8.822  -4.090  0.00  0.00    -0.646 OA
HETATM    8  O           1     -18.660  -8.800  -6.237  0.00  0.00    -0.646 OA
ENDBRANCH   5   6
BRANCH   5   9
HETATM    9  C           1     -21.610  -7.798  -4.809  0.00  0.00     0.077 C 
BRANCH   9  10
HETATM   10  C           1     -21.815  -7.305  -3.411  0.00  0.00    -0.028 A 
HETATM   11  C           1     -21.866  -8.108  -2.238  0.00  0.00    -0.002 A 
HETATM   12  C           1     -21.757  -9.490  -1.991  0.00  0.00     0.014 A 
HETATM   13  C           1     -22.073  -7.247  -1.159  0.00  0.00     0.042 A 
HETATM   14  C           1     -21.857  -9.961  -0.677  0.00  0.00     0.001 A 
HETATM   15  C           1     -22.063  -9.077   0.381  0.00  0.00     0.002 A 
HETATM   16  C           1     -22.175  -7.701   0.161  0.00  0.00     0.030 A 
HETATM   17  N           1     -22.142  -5.970  -1.669  0.00  0.00    -0.365 N 
HETATM   18  H           1     -22.292  -5.103  -1.097  0.00  0.00     0.165 HD
HETATM   19  C           1     -21.988  -5.993  -3.029  0.00  0.00     0.096 A 
ENDBRANCH   9  10
ENDBRANCH   5   9
ENDBRANCH   4   5
BRANCH   3  20
HETATM   20  C           1     -21.681  -4.794  -7.141  0.00  0.00     0.298 C 
BRANCH  20  21
HETATM   21  N           1     -21.402  -3.377  -6.737  0.00  0.00    -0.064 N 
HETATM   22  H           1     -20.462  -3.092  -7.095  0.00  0.00     0.275 HD
HETATM   23  H           1     -21.416  -3.302  -5.695  0.00  0.00     0.275 HD
HETATM   24  H           1     -22.134  -2.749  -7.141  0.00  0.00     0.275 HD
ENDBRANCH  20  21
BRANCH  20  25
HETATM   25  C           1     -22.243  -4.818  -8.556  0.00  0.00     0.224 C 
BRANCH  25  26
HETATM   26  O           1     -23.149  -3.760  -8.717  0.00  0.00    -0.287 OA
BRANCH  26  27
HETATM   27  P           1     -24.075  -3.816 -10.039  0.00  0.00     0.406 P 
HETATM   28  O           1     -23.471  -2.979 -11.100  0.00  0.00    -0.624 OA
HETATM   29  O           1     -24.175  -5.215 -10.510  0.00  0.00    -0.624 OA
BRANCH  27  30
HETATM   30  O           1     -25.550  -3.260  -9.689  0.00  0.00    -0.300 OA
HETATM   31  H           1     -26.131  -3.735 -10.258  0.00  0.00     0.223 HD
ENDBRANCH  27  30
ENDBRANCH  26  27
ENDBRANCH  25  26
ENDBRANCH  20  25
ENDBRANCH   3  20
TORSDOF 10
ENDMDL
MODEL 2
REMARK VINA RESULT:      -7.4      3.539      7.716
REMARK  10 active torsions:
REMARK  status: ('A' for Active; 'I' for Inactive)
REMARK    1  A    between atoms: C_1  and  C_30 
REMARK    2  A    between atoms: N_10  and  C_17 
REMARK    3  A    between atoms: O_13  and  P_14 
REMARK    4  A    between atoms: P_14  and  O_15 
REMARK    5  A    between atoms: O_15  and  C_16 
REMARK    6  A    between atoms: C_16  and  C_17 
REMARK    7  A    between atoms: C_17  and  C_18 
REMARK       I    between atoms: C_18  and  N_19 
REMARK    8  A    between atoms: N_19  and  C_30 
REMARK    9  A    between atoms: C_28  and  C_29 
REMARK   10  A    between atoms: C_29  and  C_30 
ROOT
HETATM    1  H           1     -21.840  -7.854  -6.520  0.00  0.00     0.163 HD
HETATM    2  O           1     -23.424  -6.023  -5.056  0.00  0.00    -0.271 OA
HETATM    3  C           1     -22.277  -6.395  -5.119  0.00  0.00     0.251 C 
HETATM    4  N           1     -21.775  -6.868  -6.301  0.00  0.00    -0.344 N 
ENDROOT
BRANCH   4   5
HETATM    5  C           1     -21.149  -5.957  -7.240  0.00  0.00     0.190 C 
BRANCH   5   6
HETATM    6  C           1     -19.659  -5.938  -7.004  0.00  0.00     0.197 C 
HETATM    7  O           1     -19.057  -6.995  -6.720  0.00  0.00    -0.646 OA
HETATM    8  O           1     -19.025  -4.863  -7.093  0.00  0.00    -0.646 OA
ENDBRANCH   5   6
BRANCH   5   9
HETATM    9  C           1     -21.714  -4.556  -7.040  0.00  0.00     0.077 C 
BRANCH   9  10
HETATM   10  C           1     -22.621  -4.216  -8.181  0.00  0.00    -0.028 A 
HETATM   11  C           1     -22.219  -3.933  -9.516  0.00  0.00    -0.002 A 
HETATM   12  C           1     -20.975  -3.875 -10.173  0.00  0.00     0.014 A 
HETATM   13  C           1     -23.378  -3.670 -10.246  0.00  0.00     0.042 A 
HETATM   14  C           1     -20.935  -3.558 -11.536  0.00  0.00     0.001 A 
HETATM   15  C           1     -22.109  -3.299 -12.240  0.00  0.00     0.002 A 
HETATM   16  C           1     -23.355  -3.350 -11.610  0.00  0.00     0.030 A 
HETATM   17  N           1     -24.440  -3.791  -9.378  0.00  0.00    -0.365 N 
HETATM   18  H           1     -25.447  -3.651  -9.639  0.00  0.00     0.165 HD
HETATM   19  C           1     -23.993  -4.121  -8.126  0.00  0.00     0.096 A 
ENDBRANCH   9  10
ENDBRANCH   5   9
ENDBRANCH   4   5
BRANCH   3  20
HETATM   20  C           1     -21.397  -6.338  -3.894  0.00  0.00     0.298 C 
BRANCH  20  21
HETATM   21  N           1     -22.238  -6.038  -2.689  0.00  0.00    -0.064 N 
HETATM   22  H           1     -22.847  -6.860  -2.476  0.00  0.00     0.275 HD
HETATM   23  H           1     -22.836  -5.202  -2.881  0.00  0.00     0.275 HD
HETATM   24  H           1     -21.618  -5.842  -1.871  0.00  0.00     0.275 HD
ENDBRANCH  20  21
BRANCH  20  25
HETATM   25  C           1     -20.700  -7.679  -3.706  0.00  0.00     0.224 C 
BRANCH  25  26
HETATM   26  O           1     -21.659  -8.700  -3.652  0.00  0.00    -0.287 OA
BRANCH  26  27
HETATM   27  P           1     -21.246 -10.096  -4.352  0.00  0.00     0.406 P 
HETATM   28  O           1     -19.990 -10.597  -3.750  0.00  0.00    -0.624 OA
HETATM   29  O           1     -22.324 -11.088  -4.145  0.00  0.00    -0.624 OA
BRANCH  27  30
HETATM   30  O           1     -21.028  -9.862  -5.935  0.00  0.00    -0.300 OA
HETATM   31  H           1     -21.869 -10.029  -6.324  0.00  0.00     0.223 HD
ENDBRANCH  27  30
ENDBRANCH  26  27
ENDBRANCH  25  26
ENDBRANCH  20  25
ENDBRANCH   3  20
TORSDOF 10
ENDMDL
MODEL 3
REMARK VINA RESULT:      -7.1      4.091      8.236
REMARK  10 active torsions:
REMARK  status: ('A' for Active; 'I' for Inactive)
REMARK    1  A    between atoms: C_1  and  C_30 
REMARK    2  A    between atoms: N_10  and  C_17 
REMARK    3  A    between atoms: O_13  and  P_14 
REMARK    4  A    between atoms: P_14  and  O_15 
REMARK    5  A    between atoms: O_15  and  C_16 
REMARK    6  A    between atoms: C_16  and  C_17 
REMARK    7  A    between atoms: C_17  and  C_18 
REMARK       I    between atoms: C_18  and  N_19 
REMARK    8  A    between atoms: N_19  and  C_30 
REMARK    9  A    between atoms: C_28  and  C_29 
REMARK   10  A    between atoms: C_29  and  C_30 
ROOT
HETATM    1  H           1     -23.362  -6.050  -4.376  0.00  0.00     0.163 HD
HETATM    2  O           1     -20.934  -5.502  -3.031  0.00  0.00    -0.271 OA
HETATM    3  C           1     -21.567  -6.450  -3.427  0.00  0.00     0.251 C 
HETATM    4  N           1     -22.395  -6.317  -4.509  0.00  0.00    -0.344 N 
ENDROOT
BRANCH   4   5
HETATM    5  C           1     -21.887  -6.560  -5.845  0.00  0.00     0.190 C 
BRANCH   5   6
HETATM    6  C           1     -20.885  -7.688  -5.804  0.00  0.00     0.197 C 
HETATM    7  O           1     -21.280  -8.872  -5.757  0.00  0.00    -0.646 OA
HETATM    8  O           1     -19.660  -7.437  -5.817  0.00  0.00    -0.646 OA
ENDBRANCH   5   6
BRANCH   5   9
HETATM    9  C           1     -21.211  -5.298  -6.368  0.00  0.00     0.077 C 
BRANCH   9  10
HETATM   10  C           1     -22.045  -4.700  -7.457  0.00  0.00    -0.028 A 
HETATM   11  C           1     -21.613  -4.413  -8.781  0.00  0.00    -0.002 A 
HETATM   12  C           1     -20.394  -4.565  -9.469  0.00  0.00     0.014 A 
HETATM   13  C           1     -22.703  -3.867  -9.459  0.00  0.00     0.042 A 
HETATM   14  C           1     -20.309  -4.167 -10.809  0.00  0.00     0.001 A 
HETATM   15  C           1     -21.415  -3.625 -11.461  0.00  0.00     0.002 A 
HETATM   16  C           1     -22.635  -3.464 -10.799  0.00  0.00     0.030 A 
HETATM   17  N           1     -23.754  -3.828  -8.571  0.00  0.00    -0.365 N 
HETATM   18  H           1     -24.715  -3.467  -8.792  0.00  0.00     0.165 HD
HETATM   19  C           1     -23.367  -4.330  -7.357  0.00  0.00     0.096 A 
ENDBRANCH   9  10
ENDBRANCH   5   9
ENDBRANCH   4   5
BRANCH   3  20
HETATM   20  C           1     -21.446  -7.783  -2.729  0.00  0.00     0.298 C 
BRANCH  20  21
HETATM   21  N           1     -20.037  -8.284  -2.853  0.00  0.00    -0.064 N 
HETATM   22  H           1     -19.423  -7.765  -2.186  0.00  0.00     0.275 HD
HETATM   23  H           1     -19.698  -8.133  -3.829  0.00  0.00     0.275 HD
HETATM   24  H           1     -20.009  -9.305  -2.629  0.00  0.00     0.275 HD
ENDBRANCH  20  21
BRANCH  20  25
HETATM   25  C           1     -21.799  -7.620  -1.257  0.00  0.00     0.224 C 
BRANCH  25  26
HETATM   26  O           1     -20.913  -8.377  -0.476  0.00  0.00    -0.287 OA
BRANCH  26  27
HETATM   27  P           1     -21.414  -9.859  -0.076  0.00  0.00     0.406 P 
HETATM   28  O           1     -20.983 -10.823  -1.114  0.00  0.00    -0.624 OA
HETATM   29  O           1     -20.827 -10.242   1.228  0.00  0.00    -0.624 OA
BRANCH  27  30
HETATM   30  O           1     -23.025  -9.874   0.035  0.00  0.00    -0.300 OA
HETATM   31  H           1     -23.216 -10.482   0.727  0.00  0.00     0.223 HD
ENDBRANCH  27  30
ENDBRANCH  26  27
ENDBRANCH  25  26
ENDBRANCH  20  25
ENDBRANCH   3  20
TORSDOF 10
ENDMDL
MODEL 4
REMARK VINA RESULT:      -7.0      2.938      5.310
REMARK  10 active torsions:
REMARK  status: ('A' for Active; 'I' for Inactive)
REMARK    1  A    between atoms: C_1  and  C_30 
REMARK    2  A    between atoms: N_10  and  C_17 
REMARK    3  A    between atoms: O_13  and  P_14 
REMARK    4  A    between atoms: P_14  and  O_15 
REMARK    5  A    between atoms: O_15  and  C_16 
REMARK    6  A    between atoms: C_16  and  C_17 
REMARK    7  A    between atoms: C_17  and  C_18 
REMARK       I    between atoms: C_18  and  N_19 
REMARK    8  A    between atoms: N_19  and  C_30 
REMARK    9  A    between atoms: C_28  and  C_29 
REMARK   10  A    between atoms: C_29  and  C_30 
ROOT
HETATM    1  H           1     -19.944  -7.169  -2.105  0.00  0.00     0.163 HD
HETATM    2  O           1     -22.415  -5.821  -2.393  0.00  0.00    -0.271 OA
HETATM    3  C           1     -21.695  -6.558  -3.023  0.00  0.00     0.251 C 
HETATM    4  N           1     -20.882  -7.444  -2.369  0.00  0.00    -0.344 N 
ENDROOT
BRANCH   4   5
HETATM    5  C           1     -21.363  -8.775  -2.056  0.00  0.00     0.190 C 
BRANCH   5   6
HETATM    6  C           1     -21.997  -8.771  -0.687  0.00  0.00     0.197 C 
HETATM    7  O           1     -23.006  -9.474  -0.464  0.00  0.00    -0.646 OA
HETATM    8  O           1     -21.514  -8.063   0.224  0.00  0.00    -0.646 OA
ENDBRANCH   5   6
BRANCH   5   9
HETATM    9  C           1     -20.196  -9.754  -2.073  0.00  0.00     0.077 C 
BRANCH   9  10
HETATM   10  C           1     -19.638  -9.842  -3.459  0.00  0.00    -0.028 A 
HETATM   11  C           1     -18.262  -9.792  -3.814  0.00  0.00    -0.002 A 
HETATM   12  C           1     -17.066  -9.657  -3.083  0.00  0.00     0.014 A 
HETATM   13  C           1     -18.191  -9.909  -5.202  0.00  0.00     0.042 A 
HETATM   14  C           1     -15.844  -9.645  -3.765  0.00  0.00     0.001 A 
HETATM   15  C           1     -15.803  -9.764  -5.153  0.00  0.00     0.002 A 
HETATM   16  C           1     -16.977  -9.898  -5.900  0.00  0.00     0.030 A 
HETATM   17  N           1     -19.482 -10.025  -5.665  0.00  0.00    -0.365 N 
HETATM   18  H           1     -19.751 -10.130  -6.674  0.00  0.00     0.165 HD
HETATM   19  C           1     -20.366  -9.986  -4.619  0.00  0.00     0.096 A 
ENDBRANCH   9  10
ENDBRANCH   5   9
ENDBRANCH   4   5
BRANCH   3  20
HETATM   20  C           1     -21.693  -6.502  -4.532  0.00  0.00     0.298 C 
BRANCH  20  21
HETATM   21  N           1     -23.060  -6.125  -5.018  0.00  0.00    -0.064 N 
HETATM   22  H           1     -23.715  -6.066  -4.206  0.00  0.00     0.275 HD
HETATM   23  H           1     -23.403  -6.848  -5.690  0.00  0.00     0.275 HD
HETATM   24  H           1     -23.016  -5.197  -5.498  0.00  0.00     0.275 HD
ENDBRANCH  20  21
BRANCH  20  25
HETATM   25  C           1     -20.683  -5.464  -5.000  0.00  0.00     0.224 C 
BRANCH  25  26
HETATM   26  O           1     -21.210  -4.757  -6.091  0.00  0.00    -0.287 OA
BRANCH  26  27
HETATM   27  P           1     -20.571  -5.102  -7.533  0.00  0.00     0.406 P 
HETATM   28  O           1     -19.871  -6.404  -7.464  0.00  0.00    -0.624 OA
HETATM   29  O           1     -21.649  -5.173  -8.545  0.00  0.00    -0.624 OA
BRANCH  27  30
HETATM   30  O           1     -19.520  -3.948  -7.948  0.00  0.00    -0.300 OA
HETATM   31  H           1     -18.703  -4.212  -7.562  0.00  0.00     0.223 HD
ENDBRANCH  27  30
ENDBRANCH  26  27
ENDBRANCH  25  26
ENDBRANCH  20  25
ENDBRANCH   3  20
TORSDOF 10
ENDMDL
MODEL 5
REMARK VINA RESULT:      -6.9      1.605      2.203
REMARK  10 active torsions:
REMARK  status: ('A' for Active; 'I' for Inactive)
REMARK    1  A    between atoms: C_1  and  C_30 
REMARK    2  A    between atoms: N_10  and  C_17 
REMARK    3  A    between atoms: O_13  and  P_14 
REMARK    4  A    between atoms: P_14  and  O_15 
REMARK    5  A    between atoms: O_15  and  C_16 
REMARK    6  A    between atoms: C_16  and  C_17 
REMARK    7  A    between atoms: C_17  and  C_18 
REMARK       I    between atoms: C_18  and  N_19 
REMARK    8  A    between atoms: N_19  and  C_30 
REMARK    9  A    between atoms: C_28  and  C_29 
REMARK   10  A    between atoms: C_29  and  C_30 
ROOT
HETATM    1  H           1     -21.850  -8.343  -6.546  0.00  0.00     0.163 HD
HETATM    2  O           1     -19.661  -6.624  -7.056  0.00  0.00    -0.271 OA
HETATM    3  C           1     -20.654  -6.663  -6.371  0.00  0.00     0.251 C 
HETATM    4  N           1     -21.164  -7.869  -5.972  0.00  0.00    -0.344 N 
ENDROOT
BRANCH   4   5
HETATM    5  C           1     -20.722  -8.467  -4.727  0.00  0.00     0.190 C 
BRANCH   5   6
HETATM    6  C           1     -19.429  -9.209  -4.957  0.00  0.00     0.197 C 
HETATM    7  O           1     -18.454  -9.014  -4.201  0.00  0.00    -0.646 OA
HETATM    8  O           1     -19.333 -10.019  -5.905  0.00  0.00    -0.646 OA
ENDBRANCH   5   6
BRANCH   5   9
HETATM    9  C           1     -21.784  -9.438  -4.225  0.00  0.00     0.077 C 
BRANCH   9  10
HETATM   10  C           1     -21.441  -9.878  -2.837  0.00  0.00    -0.028 A 
HETATM   11  C           1     -21.619  -9.117  -1.648  0.00  0.00    -0.002 A 
HETATM   12  C           1     -22.119  -7.829  -1.375  0.00  0.00     0.014 A 
HETATM   13  C           1     -21.171  -9.903  -0.586  0.00  0.00     0.042 A 
HETATM   14  C           1     -22.154  -7.375  -0.051  0.00  0.00     0.001 A 
HETATM   15  C           1     -21.700  -8.182   0.990  0.00  0.00     0.002 A 
HETATM   16  C           1     -21.199  -9.464   0.743  0.00  0.00     0.030 A 
HETATM   17  N           1     -20.739 -11.096  -1.120  0.00  0.00    -0.365 N 
HETATM   18  H           1     -20.345 -11.895  -0.565  0.00  0.00     0.165 HD
HETATM   19  C           1     -20.898 -11.092  -2.480  0.00  0.00     0.096 A 
ENDBRANCH   9  10
ENDBRANCH   5   9
ENDBRANCH   4   5
BRANCH   3  20
HETATM   20  C           1     -21.333  -5.381  -5.954  0.00  0.00     0.298 C 
BRANCH  20  21
HETATM   21  N           1     -20.332  -4.264  -5.955  0.00  0.00    -0.064 N 
HETATM   22  H           1     -19.676  -4.383  -5.151  0.00  0.00     0.275 HD
HETATM   23  H           1     -20.830  -3.349  -5.866  0.00  0.00     0.275 HD
HETATM   24  H           1     -19.793  -4.280  -6.851  0.00  0.00     0.275 HD
ENDBRANCH  20  21
BRANCH  20  25
HETATM   25  C           1     -22.455  -5.059  -6.931  0.00  0.00     0.224 C 
BRANCH  25  26
HETATM   26  O           1     -21.906  -4.652  -8.156  0.00  0.00    -0.287 OA
BRANCH  26  27
HETATM   27  P           1     -22.961  -4.161  -9.276  0.00  0.00     0.406 P 
HETATM   28  O           1     -22.304  -3.192 -10.182  0.00  0.00    -0.624 OA
HETATM   29  O           1     -23.429  -5.328 -10.056  0.00  0.00    -0.624 OA
BRANCH  27  30
HETATM   30  O           1     -24.222  -3.454  -8.556  0.00  0.00    -0.300 OA
HETATM   31  H           1     -24.981  -3.846  -8.954  0.00  0.00     0.223 HD
ENDBRANCH  27  30
ENDBRANCH  26  27
ENDBRANCH  25  26
ENDBRANCH  20  25
ENDBRANCH   3  20
TORSDOF 10
ENDMDL
MODEL 6
REMARK VINA RESULT:      -6.8      3.926      8.438
REMARK  10 active torsions:
REMARK  status: ('A' for Active; 'I' for Inactive)
REMARK    1  A    between atoms: C_1  and  C_30 
REMARK    2  A    between atoms: N_10  and  C_17 
REMARK    3  A    between atoms: O_13  and  P_14 
REMARK    4  A    between atoms: P_14  and  O_15 
REMARK    5  A    between atoms: O_15  and  C_16 
REMARK    6  A    between atoms: C_16  and  C_17 
REMARK    7  A    between atoms: C_17  and  C_18 
REMARK       I    between atoms: C_18  and  N_19 
REMARK    8  A    between atoms: N_19  and  C_30 
REMARK    9  A    between atoms: C_28  and  C_29 
REMARK   10  A    between atoms: C_29  and  C_30 
ROOT
HETATM    1  H           1     -23.167  -5.293  -5.590  0.00  0.00     0.163 HD
HETATM    2  O           1     -21.025  -5.738  -3.796  0.00  0.00    -0.271 OA
HETATM    3  C           1     -21.655  -6.334  -4.637  0.00  0.00     0.251 C 
HETATM    4  N           1     -22.225  -5.652  -5.677  0.00  0.00    -0.344 N 
ENDROOT
BRANCH   4   5
HETATM    5  C           1     -21.480  -5.445  -6.903  0.00  0.00     0.190 C 
BRANCH   5   6
HETATM    6  C           1     -20.002  -5.559  -6.619  0.00  0.00     0.197 C 
HETATM    7  O           1     -19.404  -6.633  -6.845  0.00  0.00    -0.646 OA
HETATM    8  O           1     -19.376  -4.580  -6.157  0.00  0.00    -0.646 OA
ENDBRANCH   5   6
BRANCH   5   9
HETATM    9  C           1     -21.785  -4.057  -7.454  0.00  0.00     0.077 C 
BRANCH   9  10
HETATM   10  C           1     -21.545  -4.043  -8.931  0.00  0.00    -0.028 A 
HETATM   11  C           1     -22.515  -3.771  -9.936  0.00  0.00    -0.002 A 
HETATM   12  C           1     -23.888  -3.456  -9.912  0.00  0.00     0.014 A 
HETATM   13  C           1     -21.868  -3.863 -11.168  0.00  0.00     0.042 A 
HETATM   14  C           1     -24.562  -3.243 -11.120  0.00  0.00     0.001 A 
HETATM   15  C           1     -23.889  -3.341 -12.337  0.00  0.00     0.002 A 
HETATM   16  C           1     -22.528  -3.653 -12.385  0.00  0.00     0.030 A 
HETATM   17  N           1     -20.553  -4.179 -10.912  0.00  0.00    -0.365 N 
HETATM   18  H           1     -19.814  -4.315 -11.645  0.00  0.00     0.165 HD
HETATM   19  C           1     -20.347  -4.290  -9.562  0.00  0.00     0.096 A 
ENDBRANCH   9  10
ENDBRANCH   5   9
ENDBRANCH   4   5
BRANCH   3  20
HETATM   20  C           1     -21.812  -7.833  -4.540  0.00  0.00     0.298 C 
BRANCH  20  21
HETATM   21  N           1     -21.230  -8.475  -5.764  0.00  0.00    -0.064 N 
HETATM   22  H           1     -20.427  -7.903  -6.109  0.00  0.00     0.275 HD
HETATM   23  H           1     -21.961  -8.534  -6.508  0.00  0.00     0.275 HD
HETATM   24  H           1     -20.897  -9.438  -5.527  0.00  0.00     0.275 HD
ENDBRANCH  20  21
BRANCH  20  25
HETATM   25  C           1     -21.083  -8.341  -3.304  0.00  0.00     0.224 C 
BRANCH  25  26
HETATM   26  O           1     -21.930  -8.250  -2.190  0.00  0.00    -0.287 OA
BRANCH  26  27
HETATM   27  P           1     -22.001  -9.559  -1.247  0.00  0.00     0.406 P 
HETATM   28  O           1     -22.428 -10.725  -2.052  0.00  0.00    -0.624 OA
HETATM   29  O           1     -20.664  -9.821  -0.668  0.00  0.00    -0.624 OA
BRANCH  27  30
HETATM   30  O           1     -23.062  -9.310  -0.055  0.00  0.00    -0.300 OA
HETATM   31  H           1     -22.824  -9.925   0.616  0.00  0.00     0.223 HD
ENDBRANCH  27  30
ENDBRANCH  26  27
ENDBRANCH  25  26
ENDBRANCH  20  25
ENDBRANCH   3  20
TORSDOF 10
ENDMDL
MODEL 7
REMARK VINA RESULT:      -6.7      4.296      6.351
REMARK  10 active torsions:
REMARK  status: ('A' for Active; 'I' for Inactive)
REMARK    1  A    between atoms: C_1  and  C_30 
REMARK    2  A    between atoms: N_10  and  C_17 
REMARK    3  A    between atoms: O_13  and  P_14 
REMARK    4  A    between atoms: P_14  and  O_15 
REMARK    5  A    between atoms: O_15  and  C_16 
REMARK    6  A    between atoms: C_16  and  C_17 
REMARK    7  A    between atoms: C_17  and  C_18 
REMARK       I    between atoms: C_18  and  N_19 
REMARK    8  A    between atoms: N_19  and  C_30 
REMARK    9  A    between atoms: C_28  and  C_29 
REMARK   10  A    between atoms: C_29  and  C_30 
ROOT
HETATM    1  H           1     -19.310  -7.962  -3.826  0.00  0.00     0.163 HD
HETATM    2  O           1     -20.954  -8.236  -6.113  0.00  0.00    -0.271 OA
HETATM    3  C           1     -20.698  -8.829  -5.093  0.00  0.00     0.251 C 
HETATM    4  N           1     -20.294  -8.139  -3.982  0.00  0.00    -0.344 N 
ENDROOT
BRANCH   4   5
HETATM    5  C           1     -21.277  -7.660  -3.029  0.00  0.00     0.190 C 
BRANCH   5   6
HETATM    6  C           1     -21.435  -6.167  -3.176  0.00  0.00     0.197 C 
HETATM    7  O           1     -22.035  -5.513  -2.297  0.00  0.00    -0.646 OA
HETATM    8  O           1     -20.967  -5.585  -4.179  0.00  0.00    -0.646 OA
ENDBRANCH   5   6
BRANCH   5   9
HETATM    9  C           1     -20.811  -7.985  -1.615  0.00  0.00     0.077 C 
BRANCH   9  10
HETATM   10  C           1     -21.953  -8.553  -0.832  0.00  0.00    -0.028 A 
HETATM   11  C           1     -22.490  -9.864  -0.964  0.00  0.00    -0.002 A 
HETATM   12  C           1     -22.183 -10.971  -1.779  0.00  0.00     0.014 A 
HETATM   13  C           1     -23.537  -9.973  -0.048  0.00  0.00     0.042 A 
HETATM   14  C           1     -22.933 -12.146  -1.649  0.00  0.00     0.001 A 
HETATM   15  C           1     -23.974 -12.226  -0.725  0.00  0.00     0.002 A 
HETATM   16  C           1     -24.297 -11.141   0.094  0.00  0.00     0.030 A 
HETATM   17  N           1     -23.625  -8.768   0.611  0.00  0.00    -0.365 N 
HETATM   18  H           1     -24.322  -8.545   1.363  0.00  0.00     0.165 HD
HETATM   19  C           1     -22.672  -7.902   0.145  0.00  0.00     0.096 A 
ENDBRANCH   9  10
ENDBRANCH   5   9
ENDBRANCH   4   5
BRANCH   3  20
HETATM   20  C           1     -20.824 -10.333  -5.042  0.00  0.00     0.298 C 
BRANCH  20  21
HETATM   21  N           1     -20.902 -10.873  -6.439  0.00  0.00    -0.064 N 
HETATM   22  H           1     -21.850 -11.280  -6.603  0.00  0.00     0.275 HD
HETATM   23  H           1     -20.178 -11.615  -6.567  0.00  0.00     0.275 HD
HETATM   24  H           1     -20.732 -10.100  -7.122  0.00  0.00     0.275 HD
ENDBRANCH  20  21
BRANCH  20  25
HETATM   25  C           1     -19.610 -10.921  -4.337  0.00  0.00     0.224 C 
BRANCH  25  26
HETATM   26  O           1     -18.442 -10.506  -4.993  0.00  0.00    -0.287 OA
BRANCH  26  27
HETATM   27  P           1     -17.157 -10.245  -4.050  0.00  0.00     0.406 P 
HETATM   28  O           1     -16.706 -11.527  -3.463  0.00  0.00    -0.624 OA
HETATM   29  O           1     -16.064  -9.660  -4.859  0.00  0.00    -0.624 OA
BRANCH  27  30
HETATM   30  O           1     -17.555  -9.221  -2.866  0.00  0.00    -0.300 OA
HETATM   31  H           1     -17.231  -9.622  -2.078  0.00  0.00     0.223 HD
ENDBRANCH  27  30
ENDBRANCH  26  27
ENDBRANCH  25  26
ENDBRANCH  20  25
ENDBRANCH   3  20
TORSDOF 10
ENDMDL
MODEL 8
REMARK VINA RESULT:      -6.7      4.324      6.601
REMARK  10 active torsions:
REMARK  status: ('A' for Active; 'I' for Inactive)
REMARK    1  A    between atoms: C_1  and  C_30 
REMARK    2  A    between atoms: N_10  and  C_17 
REMARK    3  A    between atoms: O_13  and  P_14 
REMARK    4  A    between atoms: P_14  and  O_15 
REMARK    5  A    between atoms: O_15  and  C_16 
REMARK    6  A    between atoms: C_16  and  C_17 
REMARK    7  A    between atoms: C_17  and  C_18 
REMARK       I    between atoms: C_18  and  N_19 
REMARK    8  A    between atoms: N_19  and  C_30 
REMARK    9  A    between atoms: C_28  and  C_29 
REMARK   10  A    between atoms: C_29  and  C_30 
ROOT
HETATM    1  H           1     -19.355  -7.488  -4.012  0.00  0.00     0.163 HD
HETATM    2  O           1     -21.096  -8.238  -6.111  0.00  0.00    -0.271 OA
HETATM    3  C           1     -20.544  -8.733  -5.159  0.00  0.00     0.251 C 
HETATM    4  N           1     -20.245  -7.966  -4.066  0.00  0.00    -0.344 N 
ENDROOT
BRANCH   4   5
HETATM    5  C           1     -21.203  -7.838  -2.985  0.00  0.00     0.190 C 
BRANCH   5   6
HETATM    6  C           1     -21.770  -6.439  -2.978  0.00  0.00     0.197 C 
HETATM    7  O           1     -22.468  -6.053  -2.016  0.00  0.00    -0.646 OA
HETATM    8  O           1     -21.542  -5.667  -3.935  0.00  0.00    -0.646 OA
ENDBRANCH   5   6
BRANCH   5   9
HETATM    9  C           1     -20.509  -8.112  -1.656  0.00  0.00     0.077 C 
BRANCH   9  10
HETATM   10  C           1     -20.624  -9.567  -1.325  0.00  0.00    -0.028 A 
HETATM   11  C           1     -21.775 -10.219  -0.801  0.00  0.00    -0.002 A 
HETATM   12  C           1     -23.069  -9.789  -0.447  0.00  0.00     0.014 A 
HETATM   13  C           1     -21.447 -11.566  -0.642  0.00  0.00     0.042 A 
HETATM   14  C           1     -23.987 -10.721   0.053  0.00  0.00     0.001 A 
HETATM   15  C           1     -23.631 -12.060   0.202  0.00  0.00     0.002 A 
HETATM   16  C           1     -22.353 -12.510  -0.143  0.00  0.00     0.030 A 
HETATM   17  N           1     -20.143 -11.717  -1.056  0.00  0.00    -0.365 N 
HETATM   18  H           1     -19.613 -12.623  -1.054  0.00  0.00     0.165 HD
HETATM   19  C           1     -19.636 -10.514  -1.471  0.00  0.00     0.096 A 
ENDBRANCH   9  10
ENDBRANCH   5   9
ENDBRANCH   4   5
BRANCH   3  20
HETATM   20  C           1     -20.185 -10.199  -5.173  0.00  0.00     0.298 C 
BRANCH  20  21
HETATM   21  N           1     -21.003 -10.903  -6.215  0.00  0.00    -0.064 N 
HETATM   22  H           1     -21.369 -10.205  -6.900  0.00  0.00     0.275 HD
HETATM   23  H           1     -21.803 -11.394  -5.757  0.00  0.00     0.275 HD
HETATM   24  H           1     -20.406 -11.602  -6.714  0.00  0.00     0.275 HD
ENDBRANCH  20  21
BRANCH  20  25
HETATM   25  C           1     -18.706 -10.357  -5.498  0.00  0.00     0.224 C 
BRANCH  25  26
HETATM   26  O           1     -17.954  -9.496  -4.685  0.00  0.00    -0.287 OA
BRANCH  26  27
HETATM   27  P           1     -16.598 -10.114  -4.064  0.00  0.00     0.406 P 
HETATM   28  O           1     -16.812 -11.541  -3.733  0.00  0.00    -0.624 OA
HETATM   29  O           1     -15.504  -9.995  -5.054  0.00  0.00    -0.624 OA
BRANCH  27  30
HETATM   30  O           1     -16.199  -9.305  -2.724  0.00  0.00    -0.300 OA
HETATM   31  H           1     -16.683  -9.724  -2.033  0.00  0.00     0.223 HD
ENDBRANCH  27  30
ENDBRANCH  26  27
ENDBRANCH  25  26
ENDBRANCH  20  25
ENDBRANCH   3  20
TORSDOF 10
ENDMDL
MODEL 9
REMARK VINA RESULT:      -6.7      4.647      7.468
REMARK  10 active torsions:
REMARK  status: ('A' for Active; 'I' for Inactive)
REMARK    1  A    between atoms: C_1  and  C_30 
REMARK    2  A    between atoms: N_10  and  C_17 
REMARK    3  A    between atoms: O_13  and  P_14 
REMARK    4  A    between atoms: P_14  and  O_15 
REMARK    5  A    between atoms: O_15  and  C_16 
REMARK    6  A    between atoms: C_16  and  C_17 
REMARK    7  A    between atoms: C_17  and  C_18 
REMARK       I    between atoms: C_18  and  N_19 
REMARK    8  A    between atoms: N_19  and  C_30 
REMARK    9  A    between atoms: C_28  and  C_29 
REMARK   10  A    between atoms: C_29  and  C_30 
ROOT
HETATM    1  H           1     -19.657  -9.667  -2.808  0.00  0.00     0.163 HD
HETATM    2  O           1     -20.496 -12.326  -3.289  0.00  0.00    -0.271 OA
HETATM    3  C           1     -20.972 -11.251  -3.015  0.00  0.00     0.251 C 
HETATM    4  N           1     -20.343 -10.103  -3.412  0.00  0.00    -0.344 N 
ENDROOT
BRANCH   4   5
HETATM    5  C           1     -20.659  -9.509  -4.696  0.00  0.00     0.190 C 
BRANCH   5   6
HETATM    6  C           1     -20.214 -10.435  -5.802  0.00  0.00     0.197 C 
HETATM    7  O           1     -18.997 -10.573  -6.049  0.00  0.00    -0.646 OA
HETATM    8  O           1     -21.064 -11.063  -6.471  0.00  0.00    -0.646 OA
ENDBRANCH   5   6
BRANCH   5   9
HETATM    9  C           1     -19.937  -8.174  -4.830  0.00  0.00     0.077 C 
BRANCH   9  10
HETATM   10  C           1     -20.914  -7.117  -5.240  0.00  0.00    -0.028 A 
HETATM   11  C           1     -20.700  -6.115  -6.228  0.00  0.00    -0.002 A 
HETATM   12  C           1     -19.624  -5.790  -7.076  0.00  0.00     0.014 A 
HETATM   13  C           1     -21.861  -5.345  -6.291  0.00  0.00     0.042 A 
HETATM   14  C           1     -19.748  -4.709  -7.956  0.00  0.00     0.001 A 
HETATM   15  C           1     -20.921  -3.957  -7.997  0.00  0.00     0.002 A 
HETATM   16  C           1     -22.002  -4.260  -7.165  0.00  0.00     0.030 A 
HETATM   17  N           1     -22.743  -5.867  -5.371  0.00  0.00    -0.365 N 
HETATM   18  H           1     -23.708  -5.498  -5.188  0.00  0.00     0.165 HD
HETATM   19  C           1     -22.180  -6.939  -4.731  0.00  0.00     0.096 A 
ENDBRANCH   9  10
ENDBRANCH   5   9
ENDBRANCH   4   5
BRANCH   3  20
HETATM   20  C           1     -22.263 -11.175  -2.236  0.00  0.00     0.298 C 
BRANCH  20  21
HETATM   21  N           1     -22.786 -12.561  -2.001  0.00  0.00    -0.064 N 
HETATM   22  H           1     -22.117 -13.087  -1.394  0.00  0.00     0.275 HD
HETATM   23  H           1     -22.890 -13.054  -2.916  0.00  0.00     0.275 HD
HETATM   24  H           1     -23.717 -12.506  -1.527  0.00  0.00     0.275 HD
ENDBRANCH  20  21
BRANCH  20  25
HETATM   25  C           1     -22.008 -10.494  -0.898  0.00  0.00     0.224 C 
BRANCH  25  26
HETATM   26  O           1     -22.763  -9.315  -0.822  0.00  0.00    -0.287 OA
BRANCH  26  27
HETATM   27  P           1     -21.942  -7.972  -0.463  0.00  0.00     0.406 P 
HETATM   28  O           1     -22.750  -6.787  -0.828  0.00  0.00    -0.624 OA
HETATM   29  O           1     -21.652  -7.945   0.988  0.00  0.00    -0.624 OA
BRANCH  27  30
HETATM   30  O           1     -20.554  -7.950  -1.288  0.00  0.00    -0.300 OA
HETATM   31  H           1     -20.587  -7.162  -1.801  0.00  0.00     0.223 HD
ENDBRANCH  27  30
ENDBRANCH  26  27
ENDBRANCH  25  26
ENDBRANCH  20  25
ENDBRANCH   3  20
TORSDOF 10
ENDMDL
