MODEL 1
REMARK VINA RESULT:      -6.3      0.000      0.000
REMARK  8 active torsions:
REMARK  status: ('A' for Active; 'I' for Inactive)
REMARK    1  A    between atoms: C_1  and  C_14 
REMARK    2  A    between atoms: C_1  and  C_12 
REMARK    3  A    between atoms: C_1  and  N_5 
REMARK       I    between atoms: N_5  and  C_15 
REMARK    4  A    between atoms: N_6  and  C_19 
REMARK    5  A    between atoms: C_14  and  C_18 
REMARK    6  A    between atoms: C_15  and  C_19 
REMARK    7  A    between atoms: C_19  and  C_20 
REMARK    8  A    between atoms: C_20  and  O_21 
ROOT
HETATM    1  O           1     -36.952  -1.064 -13.790  0.00  0.00    -0.271 OA
HETATM    2  N           1     -34.821  -1.233 -13.149  0.00  0.00    -0.345 N 
HETATM    3  C           1     -35.787  -0.880 -14.051  0.00  0.00     0.251 C 
HETATM    4  H           1     -33.845  -1.079 -13.367  0.00  0.00     0.163 HD
ENDROOT
BRANCH   3   5
HETATM    5  C           1     -35.398  -0.262 -15.371  0.00  0.00     0.302 C 
BRANCH   5   6
HETATM    6  N           1     -36.542  -0.380 -16.334  0.00  0.00    -0.064 N 
HETATM    7  H           1     -36.672  -1.382 -16.601  0.00  0.00     0.275 HD
HETATM    8  H           1     -37.415  -0.025 -15.882  0.00  0.00     0.275 HD
HETATM    9  H           1     -36.337   0.184 -17.190  0.00  0.00     0.275 HD
ENDBRANCH   5   6
BRANCH   5  10
HETATM   10  C           1     -35.060   1.209 -15.163  0.00  0.00     0.153 C 
HETATM   11  C           1     -36.050   2.070 -15.936  0.00  0.00     0.042 C 
BRANCH  10  12
HETATM   12  O           1     -35.137   1.519 -13.799  0.00  0.00    -0.393 OA
HETATM   13  H           1     -34.278   1.380 -13.437  0.00  0.00     0.210 HD
ENDBRANCH  10  12
ENDBRANCH   5  10
ENDBRANCH   3   5
BRANCH   2  14
HETATM   14  C           1     -35.194  -1.827 -11.880  0.00  0.00     0.185 C 
BRANCH  14  15
HETATM   15  C           1     -33.941  -2.096 -11.056  0.00  0.00     0.040 C 
BRANCH  15  16
HETATM   16  C           1     -33.770  -3.596 -10.865  0.00  0.00    -0.020 C 
HETATM   17  C           1     -32.780  -4.128 -11.893  0.00  0.00     0.009 C 
HETATM   18  C           1     -35.114  -4.288 -11.050  0.00  0.00     0.009 C 
ENDBRANCH  15  16
ENDBRANCH  14  15
BRANCH  14  19
HETATM   19  C           1     -36.097  -0.879 -11.129  0.00  0.00     0.196 C 
HETATM   20  O           1     -37.171  -1.292 -10.641  0.00  0.00    -0.646 OA
HETATM   21  O           1     -35.770   0.320 -10.994  0.00  0.00    -0.646 OA
ENDBRANCH  14  19
ENDBRANCH   2  14
TORSDOF 8
ENDMDL
MODEL 2
REMARK VINA RESULT:      -6.2      1.422      2.009
REMARK  8 active torsions:
REMARK  status: ('A' for Active; 'I' for Inactive)
REMARK    1  A    between atoms: C_1  and  C_14 
REMARK    2  A    between atoms: C_1  and  C_12 
REMARK    3  A    between atoms: C_1  and  N_5 
REMARK       I    between atoms: N_5  and  C_15 
REMARK    4  A    between atoms: N_6  and  C_19 
REMARK    5  A    between atoms: C_14  and  C_18 
REMARK    6  A    between atoms: C_15  and  C_19 
REMARK    7  A    between atoms: C_19  and  C_20 
REMARK    8  A    between atoms: C_20  and  O_21 
ROOT
HETATM    1  O           1     -37.166  -1.012 -13.623  0.00  0.00    -0.271 OA
HETATM    2  N           1     -35.095  -0.935 -12.793  0.00  0.00    -0.345 N 
HETATM    3  C           1     -36.063  -0.521 -13.667  0.00  0.00     0.251 C 
HETATM    4  H           1     -34.171  -0.524 -12.830  0.00  0.00     0.163 HD
ENDROOT
BRANCH   3   5
HETATM    5  C           1     -35.753   0.548 -14.686  0.00  0.00     0.302 C 
BRANCH   5   6
HETATM    6  N           1     -34.284   0.851 -14.661  0.00  0.00    -0.064 N 
HETATM    7  H           1     -33.896   0.772 -15.628  0.00  0.00     0.275 HD
HETATM    8  H           1     -34.136   1.822 -14.305  0.00  0.00     0.275 HD
HETATM    9  H           1     -33.799   0.171 -14.034  0.00  0.00     0.275 HD
ENDBRANCH   5   6
BRANCH   5  10
HETATM   10  C           1     -36.145   0.055 -16.073  0.00  0.00     0.153 C 
HETATM   11  C           1     -35.458  -1.275 -16.350  0.00  0.00     0.042 C 
BRANCH  10  12
HETATM   12  O           1     -37.535  -0.114 -16.136  0.00  0.00    -0.393 OA
HETATM   13  H           1     -37.749  -0.838 -15.572  0.00  0.00     0.210 HD
ENDBRANCH  10  12
ENDBRANCH   5  10
ENDBRANCH   3   5
BRANCH   2  14
HETATM   14  C           1     -35.392  -1.962 -11.814  0.00  0.00     0.185 C 
BRANCH  14  15
HETATM   15  C           1     -34.090  -2.525 -11.258  0.00  0.00     0.040 C 
BRANCH  15  16
HETATM   16  C           1     -33.951  -3.985 -11.669  0.00  0.00    -0.020 C 
HETATM   17  C           1     -34.344  -4.880 -10.500  0.00  0.00     0.009 C 
HETATM   18  C           1     -32.506  -4.266 -12.060  0.00  0.00     0.009 C 
ENDBRANCH  15  16
ENDBRANCH  14  15
BRANCH  14  19
HETATM   19  C           1     -36.202  -1.365 -10.690  0.00  0.00     0.196 C 
HETATM   20  O           1     -35.646  -0.645  -9.832  0.00  0.00    -0.646 OA
HETATM   21  O           1     -37.429  -1.590 -10.615  0.00  0.00    -0.646 OA
ENDBRANCH  14  19
ENDBRANCH   2  14
TORSDOF 8
ENDMDL
MODEL 3
REMARK VINA RESULT:      -5.8     12.863     14.686
REMARK  8 active torsions:
REMARK  status: ('A' for Active; 'I' for Inactive)
REMARK    1  A    between atoms: C_1  and  C_14 
REMARK    2  A    between atoms: C_1  and  C_12 
REMARK    3  A    between atoms: C_1  and  N_5 
REMARK       I    between atoms: N_5  and  C_15 
REMARK    4  A    between atoms: N_6  and  C_19 
REMARK    5  A    between atoms: C_14  and  C_18 
REMARK    6  A    between atoms: C_15  and  C_19 
REMARK    7  A    between atoms: C_19  and  C_20 
REMARK    8  A    between atoms: C_20  and  O_21 
ROOT
HETATM    1  O           1     -23.201  -3.243  -8.393  0.00  0.00    -0.271 OA
HETATM    2  N           1     -22.144  -5.159  -8.836  0.00  0.00    -0.345 N 
HETATM    3  C           1     -23.140  -4.248  -9.060  0.00  0.00     0.251 C 
HETATM    4  H           1     -22.093  -6.000  -9.395  0.00  0.00     0.163 HD
ENDROOT
BRANCH   3   5
HETATM    5  C           1     -24.163  -4.499 -10.141  0.00  0.00     0.302 C 
BRANCH   5   6
HETATM    6  N           1     -25.377  -3.656  -9.885  0.00  0.00    -0.064 N 
HETATM    7  H           1     -26.231  -4.168 -10.204  0.00  0.00     0.275 HD
HETATM    8  H           1     -25.453  -3.459  -8.861  0.00  0.00     0.275 HD
HETATM    9  H           1     -25.294  -2.757 -10.409  0.00  0.00     0.275 HD
ENDBRANCH   5   6
BRANCH   5  10
HETATM   10  C           1     -23.570  -4.134 -11.496  0.00  0.00     0.153 C 
HETATM   11  C           1     -24.473  -3.121 -12.187  0.00  0.00     0.042 C 
BRANCH  10  12
HETATM   12  O           1     -22.296  -3.579 -11.316  0.00  0.00    -0.393 OA
HETATM   13  H           1     -22.227  -2.852 -11.911  0.00  0.00     0.210 HD
ENDBRANCH  10  12
ENDBRANCH   5  10
ENDBRANCH   3   5
BRANCH   2  14
HETATM   14  C           1     -21.161  -4.918  -7.798  0.00  0.00     0.185 C 
BRANCH  14  15
HETATM   15  C           1     -20.844  -6.227  -7.086  0.00  0.00     0.040 C 
BRANCH  15  16
HETATM   16  C           1     -21.538  -6.250  -5.731  0.00  0.00    -0.020 C 
HETATM   17  C           1     -20.766  -5.376  -4.751  0.00  0.00     0.009 C 
HETATM   18  C           1     -21.584  -7.680  -5.209  0.00  0.00     0.009 C 
ENDBRANCH  15  16
ENDBRANCH  14  15
BRANCH  14  19
HETATM   19  C           1     -19.901  -4.365  -8.418  0.00  0.00     0.196 C 
HETATM   20  O           1     -19.907  -3.974  -9.605  0.00  0.00    -0.646 OA
HETATM   21  O           1     -18.850  -4.299  -7.745  0.00  0.00    -0.646 OA
ENDBRANCH  14  19
ENDBRANCH   2  14
TORSDOF 8
ENDMDL
MODEL 4
REMARK VINA RESULT:      -5.6     15.753     17.452
REMARK  8 active torsions:
REMARK  status: ('A' for Active; 'I' for Inactive)
REMARK    1  A    between atoms: C_1  and  C_14 
REMARK    2  A    between atoms: C_1  and  C_12 
REMARK    3  A    between atoms: C_1  and  N_5 
REMARK       I    between atoms: N_5  and  C_15 
REMARK    4  A    between atoms: N_6  and  C_19 
REMARK    5  A    between atoms: C_14  and  C_18 
REMARK    6  A    between atoms: C_15  and  C_19 
REMARK    7  A    between atoms: C_19  and  C_20 
REMARK    8  A    between atoms: C_20  and  O_21 
ROOT
HETATM    1  O           1     -20.462  -4.837  -5.612  0.00  0.00    -0.271 OA
HETATM    2  N           1     -20.917  -6.945  -6.191  0.00  0.00    -0.345 N 
HETATM    3  C           1     -20.910  -5.598  -6.436  0.00  0.00     0.251 C 
HETATM    4  H           1     -21.292  -7.582  -6.881  0.00  0.00     0.163 HD
ENDROOT
BRANCH   3   5
HETATM    5  C           1     -21.461  -5.065  -7.736  0.00  0.00     0.302 C 
BRANCH   5   6
HETATM    6  N           1     -22.191  -3.780  -7.478  0.00  0.00    -0.064 N 
HETATM    7  H           1     -23.043  -3.972  -6.905  0.00  0.00     0.275 HD
HETATM    8  H           1     -21.565  -3.123  -6.960  0.00  0.00     0.275 HD
HETATM    9  H           1     -22.473  -3.351  -8.388  0.00  0.00     0.275 HD
ENDBRANCH   5   6
BRANCH   5  10
HETATM   10  C           1     -20.316  -4.812  -8.708  0.00  0.00     0.153 C 
HETATM   11  C           1     -20.859  -4.156  -9.971  0.00  0.00     0.042 C 
BRANCH  10  12
HETATM   12  O           1     -19.373  -3.964  -8.110  0.00  0.00    -0.393 OA
HETATM   13  H           1     -18.553  -4.427  -8.104  0.00  0.00     0.210 HD
ENDBRANCH  10  12
ENDBRANCH   5  10
ENDBRANCH   3   5
BRANCH   2  14
HETATM   14  C           1     -20.387  -7.457  -4.943  0.00  0.00     0.185 C 
BRANCH  14  15
HETATM   15  C           1     -21.509  -7.556  -3.918  0.00  0.00     0.040 C 
BRANCH  15  16
HETATM   16  C           1     -21.063  -6.913  -2.611  0.00  0.00    -0.020 C 
HETATM   17  C           1     -20.547  -7.991  -1.667  0.00  0.00     0.009 C 
HETATM   18  C           1     -22.244  -6.198  -1.969  0.00  0.00     0.009 C 
ENDBRANCH  15  16
ENDBRANCH  14  15
BRANCH  14  19
HETATM   19  C           1     -19.795  -8.827  -5.173  0.00  0.00     0.196 C 
HETATM   20  O           1     -18.631  -9.077  -4.795  0.00  0.00    -0.646 OA
HETATM   21  O           1     -20.470  -9.711  -5.744  0.00  0.00    -0.646 OA
ENDBRANCH  14  19
ENDBRANCH   2  14
TORSDOF 8
ENDMDL
MODEL 5
REMARK VINA RESULT:      -5.6     10.251     11.676
REMARK  8 active torsions:
REMARK  status: ('A' for Active; 'I' for Inactive)
REMARK    1  A    between atoms: C_1  and  C_14 
REMARK    2  A    between atoms: C_1  and  C_12 
REMARK    3  A    between atoms: C_1  and  N_5 
REMARK       I    between atoms: N_5  and  C_15 
REMARK    4  A    between atoms: N_6  and  C_19 
REMARK    5  A    between atoms: C_14  and  C_18 
REMARK    6  A    between atoms: C_15  and  C_19 
REMARK    7  A    between atoms: C_19  and  C_20 
REMARK    8  A    between atoms: C_20  and  O_21 
ROOT
HETATM    1  O           1     -27.533  -5.919 -19.612  0.00  0.00    -0.271 OA
HETATM    2  N           1     -26.940  -6.675 -17.597  0.00  0.00    -0.345 N 
HETATM    3  C           1     -26.668  -6.376 -18.904  0.00  0.00     0.251 C 
HETATM    4  H           1     -26.215  -7.059 -17.004  0.00  0.00     0.163 HD
ENDROOT
BRANCH   3   5
HETATM    5  C           1     -25.286  -6.618 -19.461  0.00  0.00     0.302 C 
BRANCH   5   6
HETATM    6  N           1     -24.504  -7.469 -18.505  0.00  0.00    -0.064 N 
HETATM    7  H           1     -25.115  -8.235 -18.141  0.00  0.00     0.275 HD
HETATM    8  H           1     -23.685  -7.886 -19.002  0.00  0.00     0.275 HD
HETATM    9  H           1     -24.170  -6.882 -17.709  0.00  0.00     0.275 HD
ENDBRANCH   5   6
BRANCH   5  10
HETATM   10  C           1     -25.397  -7.332 -20.802  0.00  0.00     0.153 C 
HETATM   11  C           1     -24.096  -8.069 -21.092  0.00  0.00     0.042 C 
BRANCH  10  12
HETATM   12  O           1     -26.454  -8.251 -20.757  0.00  0.00    -0.393 OA
HETATM   13  H           1     -26.146  -9.002 -20.278  0.00  0.00     0.210 HD
ENDBRANCH  10  12
ENDBRANCH   5  10
ENDBRANCH   3   5
BRANCH   2  14
HETATM   14  C           1     -28.267  -6.444 -17.061  0.00  0.00     0.185 C 
BRANCH  14  15
HETATM   15  C           1     -29.213  -7.527 -17.564  0.00  0.00     0.040 C 
BRANCH  15  16
HETATM   16  C           1     -30.650  -7.033 -17.466  0.00  0.00    -0.020 C 
HETATM   17  C           1     -31.490  -7.696 -18.550  0.00  0.00     0.009 C 
HETATM   18  C           1     -30.681  -5.522 -17.653  0.00  0.00     0.009 C 
ENDBRANCH  15  16
ENDBRANCH  14  15
BRANCH  14  19
HETATM   19  C           1     -28.214  -6.483 -15.553  0.00  0.00     0.196 C 
HETATM   20  O           1     -27.771  -7.495 -14.969  0.00  0.00    -0.646 OA
HETATM   21  O           1     -28.615  -5.503 -14.889  0.00  0.00    -0.646 OA
ENDBRANCH  14  19
ENDBRANCH   2  14
TORSDOF 8
ENDMDL
MODEL 6
REMARK VINA RESULT:      -5.4     16.025     18.556
REMARK  8 active torsions:
REMARK  status: ('A' for Active; 'I' for Inactive)
REMARK    1  A    between atoms: C_1  and  C_14 
REMARK    2  A    between atoms: C_1  and  C_12 
REMARK    3  A    between atoms: C_1  and  N_5 
REMARK       I    between atoms: N_5  and  C_15 
REMARK    4  A    between atoms: N_6  and  C_19 
REMARK    5  A    between atoms: C_14  and  C_18 
REMARK    6  A    between atoms: C_15  and  C_19 
REMARK    7  A    between atoms: C_19  and  C_20 
REMARK    8  A    between atoms: C_20  and  O_21 
ROOT
HETATM    1  O           1     -19.313  -8.528  -4.142  0.00  0.00    -0.271 OA
HETATM    2  N           1     -20.778  -8.133  -5.780  0.00  0.00    -0.345 N 
HETATM    3  C           1     -20.021  -8.976  -5.012  0.00  0.00     0.251 C 
HETATM    4  H           1     -21.370  -8.509  -6.509  0.00  0.00     0.163 HD
ENDROOT
BRANCH   3   5
HETATM    5  C           1     -20.070 -10.465  -5.252  0.00  0.00     0.302 C 
BRANCH   5   6
HETATM    6  N           1     -21.188 -10.780  -6.202  0.00  0.00    -0.064 N 
HETATM    7  H           1     -21.240 -10.039  -6.937  0.00  0.00     0.275 HD
HETATM    8  H           1     -21.008 -11.705  -6.654  0.00  0.00     0.275 HD
HETATM    9  H           1     -22.091 -10.816  -5.679  0.00  0.00     0.275 HD
ENDBRANCH   5   6
BRANCH   5  10
HETATM   10  C           1     -18.749 -10.926  -5.853  0.00  0.00     0.153 C 
HETATM   11  C           1     -19.017 -11.989  -6.910  0.00  0.00     0.042 C 
BRANCH  10  12
HETATM   12  O           1     -18.096  -9.836  -6.443  0.00  0.00    -0.393 OA
HETATM   13  H           1     -17.671  -9.362  -5.748  0.00  0.00     0.210 HD
ENDBRANCH  10  12
ENDBRANCH   5  10
ENDBRANCH   3   5
BRANCH   2  14
HETATM   14  C           1     -20.730  -6.703  -5.550  0.00  0.00     0.185 C 
BRANCH  14  15
HETATM   15  C           1     -20.833  -5.971  -6.882  0.00  0.00     0.040 C 
BRANCH  15  16
HETATM   16  C           1     -20.306  -4.551  -6.725  0.00  0.00    -0.020 C 
HETATM   17  C           1     -21.358  -3.562  -7.210  0.00  0.00     0.009 C 
HETATM   18  C           1     -19.036  -4.388  -7.550  0.00  0.00     0.009 C 
ENDBRANCH  15  16
ENDBRANCH  14  15
BRANCH  14  19
HETATM   19  C           1     -21.882  -6.298  -4.663  0.00  0.00     0.196 C 
HETATM   20  O           1     -23.041  -6.248  -5.127  0.00  0.00    -0.646 OA
HETATM   21  O           1     -21.677  -6.012  -3.464  0.00  0.00    -0.646 OA
ENDBRANCH  14  19
ENDBRANCH   2  14
TORSDOF 8
ENDMDL
MODEL 7
REMARK VINA RESULT:      -5.3     17.871     19.280
REMARK  8 active torsions:
REMARK  status: ('A' for Active; 'I' for Inactive)
REMARK    1  A    between atoms: C_1  and  C_14 
REMARK    2  A    between atoms: C_1  and  C_12 
REMARK    3  A    between atoms: C_1  and  N_5 
REMARK       I    between atoms: N_5  and  C_15 
REMARK    4  A    between atoms: N_6  and  C_19 
REMARK    5  A    between atoms: C_14  and  C_18 
REMARK    6  A    between atoms: C_15  and  C_19 
REMARK    7  A    between atoms: C_19  and  C_20 
REMARK    8  A    between atoms: C_20  and  O_21 
ROOT
HETATM    1  O           1     -22.096 -10.076  -3.776  0.00  0.00    -0.271 OA
HETATM    2  N           1     -20.673  -8.483  -3.128  0.00  0.00    -0.345 N 
HETATM    3  C           1     -20.999  -9.582  -3.875  0.00  0.00     0.251 C 
HETATM    4  H           1     -19.753  -8.070  -3.211  0.00  0.00     0.163 HD
ENDROOT
BRANCH   3   5
HETATM    5  C           1     -19.986 -10.178  -4.823  0.00  0.00     0.302 C 
BRANCH   5   6
HETATM    6  N           1     -20.674 -10.598  -6.088  0.00  0.00    -0.064 N 
HETATM    7  H           1     -21.191  -9.784  -6.491  0.00  0.00     0.275 HD
HETATM    8  H           1     -19.961 -10.932  -6.776  0.00  0.00     0.275 HD
HETATM    9  H           1     -21.347 -11.369  -5.880  0.00  0.00     0.275 HD
ENDBRANCH   5   6
BRANCH   5  10
HETATM   10  C           1     -18.921  -9.138  -5.146  0.00  0.00     0.153 C 
HETATM   11  C           1     -17.828  -9.779  -5.992  0.00  0.00     0.042 C 
BRANCH  10  12
HETATM   12  O           1     -19.501  -8.079  -5.858  0.00  0.00    -0.393 OA
HETATM   13  H           1     -20.435  -8.175  -5.782  0.00  0.00     0.210 HD
ENDBRANCH  10  12
ENDBRANCH   5  10
ENDBRANCH   3   5
BRANCH   2  14
HETATM   14  C           1     -21.644  -7.911  -2.217  0.00  0.00     0.185 C 
BRANCH  14  15
HETATM   15  C           1     -21.048  -7.839  -0.818  0.00  0.00     0.040 C 
BRANCH  15  16
HETATM   16  C           1     -21.816  -8.770   0.111  0.00  0.00    -0.020 C 
HETATM   17  C           1     -23.150  -8.132   0.479  0.00  0.00     0.009 C 
HETATM   18  C           1     -21.002  -9.010   1.376  0.00  0.00     0.009 C 
ENDBRANCH  15  16
ENDBRANCH  14  15
BRANCH  14  19
HETATM   19  C           1     -22.009  -6.521  -2.680  0.00  0.00     0.196 C 
HETATM   20  O           1     -22.357  -5.656  -1.848  0.00  0.00    -0.646 OA
HETATM   21  O           1     -21.962  -6.235  -3.896  0.00  0.00    -0.646 OA
ENDBRANCH  14  19
ENDBRANCH   2  14
TORSDOF 8
ENDMDL
MODEL 8
REMARK VINA RESULT:      -5.1     17.233     19.179
REMARK  8 active torsions:
REMARK  status: ('A' for Active; 'I' for Inactive)
REMARK    1  A    between atoms: C_1  and  C_14 
REMARK    2  A    between atoms: C_1  and  C_12 
REMARK    3  A    between atoms: C_1  and  N_5 
REMARK       I    between atoms: N_5  and  C_15 
REMARK    4  A    between atoms: N_6  and  C_19 
REMARK    5  A    between atoms: C_14  and  C_18 
REMARK    6  A    between atoms: C_15  and  C_19 
REMARK    7  A    between atoms: C_19  and  C_20 
REMARK    8  A    between atoms: C_20  and  O_21 
ROOT
HETATM    1  O           1     -22.057  -9.517  -3.381  0.00  0.00    -0.271 OA
HETATM    2  N           1     -21.010  -8.272  -1.851  0.00  0.00    -0.345 N 
HETATM    3  C           1     -21.209  -8.692  -3.138  0.00  0.00     0.251 C 
HETATM    4  H           1     -20.299  -7.582  -1.648  0.00  0.00     0.163 HD
ENDROOT
BRANCH   3   5
HETATM    5  C           1     -20.367  -8.124  -4.255  0.00  0.00     0.302 C 
BRANCH   5   6
HETATM    6  N           1     -20.491  -8.999  -5.468  0.00  0.00    -0.064 N 
HETATM    7  H           1     -21.410  -9.496  -5.446  0.00  0.00     0.275 HD
HETATM    8  H           1     -20.435  -8.409  -6.328  0.00  0.00     0.275 HD
HETATM    9  H           1     -19.717  -9.700  -5.473  0.00  0.00     0.275 HD
ENDBRANCH   5   6
BRANCH   5  10
HETATM   10  C           1     -20.851  -6.720  -4.592  0.00  0.00     0.153 C 
HETATM   11  C           1     -21.193  -6.644  -6.074  0.00  0.00     0.042 C 
BRANCH  10  12
HETATM   12  O           1     -21.991  -6.422  -3.833  0.00  0.00    -0.393 OA
HETATM   13  H           1     -22.243  -7.216  -3.394  0.00  0.00     0.210 HD
ENDBRANCH  10  12
ENDBRANCH   5  10
ENDBRANCH   3   5
BRANCH   2  14
HETATM   14  C           1     -21.818  -8.818  -0.778  0.00  0.00     0.185 C 
BRANCH  14  15
HETATM   15  C           1     -20.909  -9.320   0.337  0.00  0.00     0.040 C 
BRANCH  15  16
HETATM   16  C           1     -21.021 -10.835   0.441  0.00  0.00    -0.020 C 
HETATM   17  C           1     -19.967 -11.484  -0.447  0.00  0.00     0.009 C 
HETATM   18  C           1     -22.407 -11.273  -0.013  0.00  0.00     0.009 C 
ENDBRANCH  15  16
ENDBRANCH  14  15
BRANCH  14  19
HETATM   19  C           1     -22.727  -7.741  -0.238  0.00  0.00     0.196 C 
HETATM   20  O           1     -23.420  -7.959   0.779  0.00  0.00    -0.646 OA
HETATM   21  O           1     -22.789  -6.631  -0.809  0.00  0.00    -0.646 OA
ENDBRANCH  14  19
ENDBRANCH   2  14
TORSDOF 8
ENDMDL
MODEL 9
REMARK VINA RESULT:      -5.1     12.692     14.480
REMARK  8 active torsions:
REMARK  status: ('A' for Active; 'I' for Inactive)
REMARK    1  A    between atoms: C_1  and  C_14 
REMARK    2  A    between atoms: C_1  and  C_12 
REMARK    3  A    between atoms: C_1  and  N_5 
REMARK       I    between atoms: N_5  and  C_15 
REMARK    4  A    between atoms: N_6  and  C_19 
REMARK    5  A    between atoms: C_14  and  C_18 
REMARK    6  A    between atoms: C_15  and  C_19 
REMARK    7  A    between atoms: C_19  and  C_20 
REMARK    8  A    between atoms: C_20  and  O_21 
ROOT
HETATM    1  O           1     -22.086  -5.384  -9.440  0.00  0.00    -0.271 OA
HETATM    2  N           1     -23.102  -4.624  -7.603  0.00  0.00    -0.345 N 
HETATM    3  C           1     -23.013  -4.776  -8.960  0.00  0.00     0.251 C 
HETATM    4  H           1     -23.878  -4.114  -7.201  0.00  0.00     0.163 HD
ENDROOT
BRANCH   3   5
HETATM    5  C           1     -24.072  -4.182  -9.857  0.00  0.00     0.302 C 
BRANCH   5   6
HETATM    6  N           1     -24.661  -2.970  -9.198  0.00  0.00    -0.064 N 
HETATM    7  H           1     -24.112  -2.124  -9.470  0.00  0.00     0.275 HD
HETATM    8  H           1     -25.653  -2.855  -9.507  0.00  0.00     0.275 HD
HETATM    9  H           1     -24.629  -3.087  -8.161  0.00  0.00     0.275 HD
ENDBRANCH   5   6
BRANCH   5  10
HETATM   10  C           1     -23.445  -3.781 -11.186  0.00  0.00     0.153 C 
HETATM   11  C           1     -24.486  -3.077 -12.045  0.00  0.00     0.042 C 
BRANCH  10  12
HETATM   12  O           1     -22.368  -2.915 -10.954  0.00  0.00    -0.393 OA
HETATM   13  H           1     -22.476  -2.568 -10.085  0.00  0.00     0.210 HD
ENDBRANCH  10  12
ENDBRANCH   5  10
ENDBRANCH   3   5
BRANCH   2  14
HETATM   14  C           1     -22.085  -5.194  -6.741  0.00  0.00     0.185 C 
BRANCH  14  15
HETATM   15  C           1     -21.071  -4.118  -6.373  0.00  0.00     0.040 C 
BRANCH  15  16
HETATM   16  C           1     -19.694  -4.520  -6.885  0.00  0.00    -0.020 C 
HETATM   17  C           1     -19.436  -3.846  -8.227  0.00  0.00     0.009 C 
HETATM   18  C           1     -19.638  -6.032  -7.057  0.00  0.00     0.009 C 
ENDBRANCH  15  16
ENDBRANCH  14  15
BRANCH  14  19
HETATM   19  C           1     -22.732  -5.726  -5.486  0.00  0.00     0.196 C 
HETATM   20  O           1     -22.023  -6.080  -4.519  0.00  0.00    -0.646 OA
HETATM   21  O           1     -23.976  -5.815  -5.413  0.00  0.00    -0.646 OA
ENDBRANCH  14  19
ENDBRANCH   2  14
TORSDOF 8
ENDMDL
