MODEL 1
REMARK VINA RESULT:      -8.2      0.000      0.000
REMARK  8 active torsions:
REMARK  status: ('A' for Active; 'I' for Inactive)
REMARK    1  A    between atoms: C_2  and  C_10 
REMARK    2  A    between atoms: N_8  and  C_10 
REMARK       I    between atoms: N_8  and  C_14 
REMARK    3  A    between atoms: C_10  and  C_13 
REMARK    4  A    between atoms: C_11  and  C_13 
REMARK    5  A    between atoms: C_14  and  C_15 
REMARK    6  A    between atoms: C_15  and  C_23 
REMARK    7  A    between atoms: C_15  and  N_27 
REMARK    8  A    between atoms: C_23  and  O_24 
ROOT
HETATM    1  C           1     -23.759  -3.681 -11.224  0.00  0.00     0.190 C 
ENDROOT
BRANCH   1   2
HETATM    2  C           1     -24.704  -3.795 -10.053  0.00  0.00     0.197 C 
HETATM    3  O           1     -25.025  -4.921  -9.617  0.00  0.00    -0.646 OA
HETATM    4  O           1     -25.166  -2.763  -9.519  0.00  0.00    -0.646 OA
ENDBRANCH   1   2
BRANCH   1   5
HETATM    5  N           1     -24.449  -3.069 -12.342  0.00  0.00    -0.344 N 
HETATM    6  H           1     -25.243  -2.465 -12.178  0.00  0.00     0.163 HD
HETATM    7  C           1     -24.026  -3.312 -13.622  0.00  0.00     0.251 C 
HETATM    8  O           1     -24.480  -4.243 -14.242  0.00  0.00    -0.271 OA
BRANCH   7   9
HETATM    9  C           1     -22.993  -2.413 -14.258  0.00  0.00     0.297 C 
BRANCH   9  10
HETATM   10  C           1     -23.691  -1.253 -14.957  0.00  0.00     0.206 C 
BRANCH  10  11
HETATM   11  O           1     -24.949  -1.045 -14.375  0.00  0.00    -0.398 OA
HETATM   12  H           1     -25.584  -1.442 -14.947  0.00  0.00     0.209 HD
ENDBRANCH  10  11
ENDBRANCH   9  10
BRANCH   9  13
HETATM   13  N           1     -22.201  -3.197 -15.263  0.00  0.00    -0.064 N 
HETATM   14  H           1     -21.994  -4.147 -14.878  0.00  0.00     0.275 HD
HETATM   15  H           1     -22.753  -3.291 -16.145  0.00  0.00     0.275 HD
HETATM   16  H           1     -21.303  -2.700 -15.464  0.00  0.00     0.275 HD
ENDBRANCH   9  13
ENDBRANCH   7   9
ENDBRANCH   1   5
BRANCH   1  17
HETATM   17  C           1     -22.565  -2.819 -10.832  0.00  0.00     0.077 C 
BRANCH  17  18
HETATM   18  C           1     -21.465  -3.695 -10.317  0.00  0.00    -0.028 A 
HETATM   19  C           1     -20.519  -4.342 -11.080  0.00  0.00     0.096 A 
HETATM   20  N           1     -19.699  -5.035 -10.229  0.00  0.00    -0.365 N 
HETATM   21  H           1     -18.883  -5.624 -10.528  0.00  0.00     0.165 HD
HETATM   22  C           1     -20.097  -4.848  -8.924  0.00  0.00     0.042 A 
HETATM   23  C           1     -19.564  -5.355  -7.734  0.00  0.00     0.030 A 
HETATM   24  C           1     -21.210  -4.006  -8.953  0.00  0.00    -0.002 A 
HETATM   25  C           1     -20.190  -4.988  -6.538  0.00  0.00     0.002 A 
HETATM   26  C           1     -21.302  -4.149  -6.536  0.00  0.00     0.001 A 
HETATM   27  C           1     -21.822  -3.651  -7.735  0.00  0.00     0.014 A 
ENDBRANCH  17  18
ENDBRANCH   1  17
TORSDOF 8
ENDMDL
MODEL 2
REMARK VINA RESULT:      -7.0      1.744      2.271
REMARK  8 active torsions:
REMARK  status: ('A' for Active; 'I' for Inactive)
REMARK    1  A    between atoms: C_2  and  C_10 
REMARK    2  A    between atoms: N_8  and  C_10 
REMARK       I    between atoms: N_8  and  C_14 
REMARK    3  A    between atoms: C_10  and  C_13 
REMARK    4  A    between atoms: C_11  and  C_13 
REMARK    5  A    between atoms: C_14  and  C_15 
REMARK    6  A    between atoms: C_15  and  C_23 
REMARK    7  A    between atoms: C_15  and  N_27 
REMARK    8  A    between atoms: C_23  and  O_24 
ROOT
HETATM    1  C           1     -22.942  -3.938 -10.063  0.00  0.00     0.190 C 
ENDROOT
BRANCH   1   2
HETATM    2  C           1     -24.069  -4.930 -10.215  0.00  0.00     0.197 C 
HETATM    3  O           1     -23.932  -5.921 -10.963  0.00  0.00    -0.646 OA
HETATM    4  O           1     -25.140  -4.759  -9.593  0.00  0.00    -0.646 OA
ENDBRANCH   1   2
BRANCH   1   5
HETATM    5  N           1     -23.293  -2.702 -10.734  0.00  0.00    -0.344 N 
HETATM    6  H           1     -23.263  -1.826 -10.230  0.00  0.00     0.163 HD
HETATM    7  C           1     -23.667  -2.721 -12.051  0.00  0.00     0.251 C 
HETATM    8  O           1     -24.829  -2.858 -12.347  0.00  0.00    -0.271 OA
BRANCH   7   9
HETATM    9  C           1     -22.626  -2.569 -13.133  0.00  0.00     0.297 C 
BRANCH   9  10
HETATM   10  C           1     -23.310  -2.513 -14.492  0.00  0.00     0.206 C 
BRANCH  10  11
HETATM   11  O           1     -23.782  -3.789 -14.831  0.00  0.00    -0.398 OA
HETATM   12  H           1     -23.778  -3.841 -15.772  0.00  0.00     0.209 HD
ENDBRANCH  10  11
ENDBRANCH   9  10
BRANCH   9  13
HETATM   13  N           1     -21.691  -3.742 -13.093  0.00  0.00    -0.064 N 
HETATM   14  H           1     -20.915  -3.545 -12.420  0.00  0.00     0.275 HD
HETATM   15  H           1     -22.212  -4.593 -12.785  0.00  0.00     0.275 HD
HETATM   16  H           1     -21.292  -3.903 -14.046  0.00  0.00     0.275 HD
ENDBRANCH   9  13
ENDBRANCH   7   9
ENDBRANCH   1   5
BRANCH   1  17
HETATM   17  C           1     -22.704  -3.662  -8.583  0.00  0.00     0.077 C 
BRANCH  17  18
HETATM   18  C           1     -21.582  -4.521  -8.088  0.00  0.00    -0.028 A 
HETATM   19  C           1     -20.336  -4.637  -8.661  0.00  0.00     0.096 A 
HETATM   20  N           1     -19.609  -5.518  -7.906  0.00  0.00    -0.365 N 
HETATM   21  H           1     -18.618  -5.804  -8.103  0.00  0.00     0.165 HD
HETATM   22  C           1     -20.364  -5.977  -6.850  0.00  0.00     0.042 A 
HETATM   23  C           1     -20.040  -6.880  -5.830  0.00  0.00     0.030 A 
HETATM   24  C           1     -21.614  -5.362  -6.943  0.00  0.00    -0.002 A 
HETATM   25  C           1     -21.026  -7.160  -4.878  0.00  0.00     0.002 A 
HETATM   26  C           1     -22.282  -6.562  -4.946  0.00  0.00     0.001 A 
HETATM   27  C           1     -22.589  -5.661  -5.972  0.00  0.00     0.014 A 
ENDBRANCH  17  18
ENDBRANCH   1  17
TORSDOF 8
ENDMDL
MODEL 3
REMARK VINA RESULT:      -6.9      4.916      8.506
REMARK  8 active torsions:
REMARK  status: ('A' for Active; 'I' for Inactive)
REMARK    1  A    between atoms: C_2  and  C_10 
REMARK    2  A    between atoms: N_8  and  C_10 
REMARK       I    between atoms: N_8  and  C_14 
REMARK    3  A    between atoms: C_10  and  C_13 
REMARK    4  A    between atoms: C_11  and  C_13 
REMARK    5  A    between atoms: C_14  and  C_15 
REMARK    6  A    between atoms: C_15  and  C_23 
REMARK    7  A    between atoms: C_15  and  N_27 
REMARK    8  A    between atoms: C_23  and  O_24 
ROOT
HETATM    1  C           1     -21.918  -6.566  -5.719  0.00  0.00     0.190 C 
ENDROOT
BRANCH   1   2
HETATM    2  C           1     -20.934  -7.711  -5.722  0.00  0.00     0.197 C 
HETATM    3  O           1     -19.707  -7.479  -5.749  0.00  0.00    -0.646 OA
HETATM    4  O           1     -21.347  -8.891  -5.698  0.00  0.00    -0.646 OA
ENDBRANCH   1   2
BRANCH   1   5
HETATM    5  N           1     -22.379  -6.330  -4.365  0.00  0.00    -0.344 N 
HETATM    6  H           1     -23.330  -6.028  -4.199  0.00  0.00     0.163 HD
HETATM    7  C           1     -21.526  -6.514  -3.310  0.00  0.00     0.251 C 
HETATM    8  O           1     -20.846  -5.597  -2.915  0.00  0.00    -0.271 OA
BRANCH   7   9
HETATM    9  C           1     -21.437  -7.863  -2.639  0.00  0.00     0.297 C 
BRANCH   9  10
HETATM   10  C           1     -21.848  -7.732  -1.178  0.00  0.00     0.206 C 
BRANCH  10  11
HETATM   11  O           1     -22.712  -6.637  -1.032  0.00  0.00    -0.398 OA
HETATM   12  H           1     -23.571  -6.930  -1.286  0.00  0.00     0.209 HD
ENDBRANCH  10  11
ENDBRANCH   9  10
BRANCH   9  13
HETATM   13  N           1     -20.025  -8.366  -2.716  0.00  0.00    -0.064 N 
HETATM   14  H           1     -19.973  -9.149  -3.407  0.00  0.00     0.275 HD
HETATM   15  H           1     -19.395  -7.590  -3.019  0.00  0.00     0.275 HD
HETATM   16  H           1     -19.726  -8.711  -1.776  0.00  0.00     0.275 HD
ENDBRANCH   9  13
ENDBRANCH   7   9
ENDBRANCH   1   5
BRANCH   1  17
HETATM   17  C           1     -21.238  -5.310  -6.249  0.00  0.00     0.077 C 
BRANCH  17  18
HETATM   18  C           1     -22.054  -4.733  -7.365  0.00  0.00    -0.028 A 
HETATM   19  C           1     -23.377  -4.359  -7.293  0.00  0.00     0.096 A 
HETATM   20  N           1     -23.744  -3.883  -8.523  0.00  0.00    -0.365 N 
HETATM   21  H           1     -24.700  -3.524  -8.768  0.00  0.00     0.165 HD
HETATM   22  C           1     -22.679  -3.941  -9.395  0.00  0.00     0.042 A 
HETATM   23  C           1     -22.589  -3.566 -10.740  0.00  0.00     0.030 A 
HETATM   24  C           1     -21.601  -4.474  -8.687  0.00  0.00    -0.002 A 
HETATM   25  C           1     -21.358  -3.744 -11.379  0.00  0.00     0.002 A 
HETATM   26  C           1     -20.264  -4.274 -10.698  0.00  0.00     0.001 A 
HETATM   27  C           1     -20.371  -4.643  -9.353  0.00  0.00     0.014 A 
ENDBRANCH  17  18
ENDBRANCH   1  17
TORSDOF 8
ENDMDL
MODEL 4
REMARK VINA RESULT:      -6.9      3.998      7.536
REMARK  8 active torsions:
REMARK  status: ('A' for Active; 'I' for Inactive)
REMARK    1  A    between atoms: C_2  and  C_10 
REMARK    2  A    between atoms: N_8  and  C_10 
REMARK       I    between atoms: N_8  and  C_14 
REMARK    3  A    between atoms: C_10  and  C_13 
REMARK    4  A    between atoms: C_11  and  C_13 
REMARK    5  A    between atoms: C_14  and  C_15 
REMARK    6  A    between atoms: C_15  and  C_23 
REMARK    7  A    between atoms: C_15  and  N_27 
REMARK    8  A    between atoms: C_23  and  O_24 
ROOT
HETATM    1  C           1     -21.352  -4.989  -7.692  0.00  0.00     0.190 C 
ENDROOT
BRANCH   1   2
HETATM    2  C           1     -19.892  -5.362  -7.608  0.00  0.00     0.197 C 
HETATM    3  O           1     -19.019  -4.468  -7.593  0.00  0.00    -0.646 OA
HETATM    4  O           1     -19.557  -6.565  -7.554  0.00  0.00    -0.646 OA
ENDBRANCH   1   2
BRANCH   1   5
HETATM    5  N           1     -21.890  -4.839  -6.354  0.00  0.00    -0.344 N 
HETATM    6  H           1     -22.639  -4.183  -6.179  0.00  0.00     0.163 HD
HETATM    7  C           1     -21.381  -5.586  -5.325  0.00  0.00     0.251 C 
HETATM    8  O           1     -20.456  -5.166  -4.673  0.00  0.00    -0.271 OA
BRANCH   7   9
HETATM    9  C           1     -21.979  -6.934  -5.004  0.00  0.00     0.297 C 
BRANCH   9  10
HETATM   10  C           1     -21.866  -7.198  -3.508  0.00  0.00     0.206 C 
BRANCH  10  11
HETATM   11  O           1     -22.352  -6.091  -2.800  0.00  0.00    -0.398 OA
HETATM   12  H           1     -21.942  -5.327  -3.170  0.00  0.00     0.209 HD
ENDBRANCH  10  11
ENDBRANCH   9  10
BRANCH   9  13
HETATM   13  N           1     -21.238  -8.000  -5.756  0.00  0.00    -0.064 N 
HETATM   14  H           1     -20.210  -7.817  -5.696  0.00  0.00     0.275 HD
HETATM   15  H           1     -21.451  -8.934  -5.339  0.00  0.00     0.275 HD
HETATM   16  H           1     -21.535  -7.991  -6.759  0.00  0.00     0.275 HD
ENDBRANCH   9  13
ENDBRANCH   7   9
ENDBRANCH   1   5
BRANCH   1  17
HETATM   17  C           1     -21.498  -3.673  -8.446  0.00  0.00     0.077 C 
BRANCH  17  18
HETATM   18  C           1     -22.763  -3.695  -9.249  0.00  0.00    -0.028 A 
HETATM   19  C           1     -24.016  -4.015  -8.778  0.00  0.00     0.096 A 
HETATM   20  N           1     -24.893  -3.914  -9.825  0.00  0.00    -0.365 N 
HETATM   21  H           1     -25.925  -4.101  -9.765  0.00  0.00     0.165 HD
HETATM   22  C           1     -24.229  -3.534 -10.970  0.00  0.00     0.042 A 
HETATM   23  C           1     -24.711  -3.309 -12.264  0.00  0.00     0.030 A 
HETATM   24  C           1     -22.883  -3.389 -10.632  0.00  0.00    -0.002 A 
HETATM   25  C           1     -23.787  -2.925 -13.241  0.00  0.00     0.002 A 
HETATM   26  C           1     -22.437  -2.773 -12.932  0.00  0.00     0.001 A 
HETATM   27  C           1     -21.971  -3.001 -11.633  0.00  0.00     0.014 A 
ENDBRANCH  17  18
ENDBRANCH   1  17
TORSDOF 8
ENDMDL
MODEL 5
REMARK VINA RESULT:      -6.7     11.721     13.605
REMARK  8 active torsions:
REMARK  status: ('A' for Active; 'I' for Inactive)
REMARK    1  A    between atoms: C_2  and  C_10 
REMARK    2  A    between atoms: N_8  and  C_10 
REMARK       I    between atoms: N_8  and  C_14 
REMARK    3  A    between atoms: C_10  and  C_13 
REMARK    4  A    between atoms: C_11  and  C_13 
REMARK    5  A    between atoms: C_14  and  C_15 
REMARK    6  A    between atoms: C_15  and  C_23 
REMARK    7  A    between atoms: C_15  and  N_27 
REMARK    8  A    between atoms: C_23  and  O_24 
ROOT
HETATM    1  C           1     -36.977  -0.474 -11.396  0.00  0.00     0.190 C 
ENDROOT
BRANCH   1   2
HETATM    2  C           1     -37.094   0.423 -10.188  0.00  0.00     0.197 C 
HETATM    3  O           1     -36.212   0.399  -9.304  0.00  0.00    -0.646 OA
HETATM    4  O           1     -38.075   1.190 -10.071  0.00  0.00    -0.646 OA
ENDBRANCH   1   2
BRANCH   1   5
HETATM    5  N           1     -37.294   0.283 -12.591  0.00  0.00    -0.344 N 
HETATM    6  H           1     -37.757   1.179 -12.516  0.00  0.00     0.163 HD
HETATM    7  C           1     -36.968  -0.217 -13.824  0.00  0.00     0.251 C 
HETATM    8  O           1     -37.754  -0.912 -14.421  0.00  0.00    -0.271 OA
BRANCH   7   9
HETATM    9  C           1     -35.626   0.102 -14.436  0.00  0.00     0.297 C 
BRANCH   9  10
HETATM   10  C           1     -35.799   1.169 -15.510  0.00  0.00     0.206 C 
BRANCH  10  11
HETATM   11  O           1     -37.164   1.363 -15.761  0.00  0.00    -0.398 OA
HETATM   12  H           1     -37.247   2.195 -16.196  0.00  0.00     0.209 HD
ENDBRANCH  10  11
ENDBRANCH   9  10
BRANCH   9  13
HETATM   13  N           1     -35.052  -1.139 -15.054  0.00  0.00    -0.064 N 
HETATM   14  H           1     -35.792  -1.625 -15.609  0.00  0.00     0.275 HD
HETATM   15  H           1     -34.258  -0.880 -15.682  0.00  0.00     0.275 HD
HETATM   16  H           1     -34.707  -1.776 -14.300  0.00  0.00     0.275 HD
ENDBRANCH   9  13
ENDBRANCH   7   9
ENDBRANCH   1   5
BRANCH   1  17
HETATM   17  C           1     -35.554  -1.008 -11.497  0.00  0.00     0.077 C 
BRANCH  17  18
HETATM   18  C           1     -35.539  -2.461 -11.133  0.00  0.00    -0.028 A 
HETATM   19  C           1     -36.562  -3.156 -10.530  0.00  0.00     0.096 A 
HETATM   20  N           1     -36.149  -4.453 -10.372  0.00  0.00    -0.365 N 
HETATM   21  H           1     -36.723  -5.217  -9.938  0.00  0.00     0.165 HD
HETATM   22  C           1     -34.872  -4.610 -10.863  0.00  0.00     0.042 A 
HETATM   23  C           1     -34.056  -5.746 -10.915  0.00  0.00     0.030 A 
HETATM   24  C           1     -34.465  -3.367 -11.349  0.00  0.00    -0.002 A 
HETATM   25  C           1     -32.785  -5.603 -11.480  0.00  0.00     0.002 A 
HETATM   26  C           1     -32.351  -4.374 -11.973  0.00  0.00     0.001 A 
HETATM   27  C           1     -33.180  -3.249 -11.915  0.00  0.00     0.014 A 
ENDBRANCH  17  18
ENDBRANCH   1  17
TORSDOF 8
ENDMDL
MODEL 6
REMARK VINA RESULT:      -6.5      6.348      9.956
REMARK  8 active torsions:
REMARK  status: ('A' for Active; 'I' for Inactive)
REMARK    1  A    between atoms: C_2  and  C_10 
REMARK    2  A    between atoms: N_8  and  C_10 
REMARK       I    between atoms: N_8  and  C_14 
REMARK    3  A    between atoms: C_10  and  C_13 
REMARK    4  A    between atoms: C_11  and  C_13 
REMARK    5  A    between atoms: C_14  and  C_15 
REMARK    6  A    between atoms: C_15  and  C_23 
REMARK    7  A    between atoms: C_15  and  N_27 
REMARK    8  A    between atoms: C_23  and  O_24 
ROOT
HETATM    1  C           1     -21.321  -8.908  -3.924  0.00  0.00     0.190 C 
ENDROOT
BRANCH   1   2
HETATM    2  C           1     -21.187 -10.073  -4.873  0.00  0.00     0.197 C 
HETATM    3  O           1     -20.380 -10.013  -5.825  0.00  0.00    -0.646 OA
HETATM    4  O           1     -21.883 -11.098  -4.708  0.00  0.00    -0.646 OA
ENDBRANCH   1   2
BRANCH   1   5
HETATM    5  N           1     -20.932  -9.324  -2.591  0.00  0.00    -0.344 N 
HETATM    6  H           1     -20.053  -9.801  -2.446  0.00  0.00     0.163 HD
HETATM    7  C           1     -21.757  -9.072  -1.527  0.00  0.00     0.251 C 
HETATM    8  O           1     -22.594  -9.881  -1.207  0.00  0.00    -0.271 OA
BRANCH   7   9
HETATM    9  C           1     -21.618  -7.783  -0.754  0.00  0.00     0.297 C 
BRANCH   9  10
HETATM   10  C           1     -22.124  -7.987   0.668  0.00  0.00     0.206 C 
BRANCH  10  11
HETATM   11  O           1     -23.525  -7.957   0.675  0.00  0.00    -0.398 OA
HETATM   12  H           1     -23.798  -8.102   1.565  0.00  0.00     0.209 HD
ENDBRANCH  10  11
ENDBRANCH   9  10
BRANCH   9  13
HETATM   13  N           1     -22.427  -6.711  -1.422  0.00  0.00    -0.064 N 
HETATM   14  H           1     -22.020  -6.503  -2.362  0.00  0.00     0.275 HD
HETATM   15  H           1     -23.414  -7.037  -1.534  0.00  0.00     0.275 HD
HETATM   16  H           1     -22.411  -5.845  -0.836  0.00  0.00     0.275 HD
ENDBRANCH   9  13
ENDBRANCH   7   9
ENDBRANCH   1   5
BRANCH   1  17
HETATM   17  C           1     -20.418  -7.770  -4.384  0.00  0.00     0.077 C 
BRANCH  17  18
HETATM   18  C           1     -21.232  -6.756  -5.127  0.00  0.00    -0.028 A 
HETATM   19  C           1     -22.584  -6.541  -4.988  0.00  0.00     0.096 A 
HETATM   20  N           1     -22.937  -5.530  -5.842  0.00  0.00    -0.365 N 
HETATM   21  H           1     -23.909  -5.150  -5.954  0.00  0.00     0.165 HD
HETATM   22  C           1     -21.833  -5.084  -6.535  0.00  0.00     0.042 A 
HETATM   23  C           1     -21.717  -4.079  -7.502  0.00  0.00     0.030 A 
HETATM   24  C           1     -20.744  -5.842  -6.101  0.00  0.00    -0.002 A 
HETATM   25  C           1     -20.447  -3.844  -8.040  0.00  0.00     0.002 A 
HETATM   26  C           1     -19.343  -4.584  -7.625  0.00  0.00     0.001 A 
HETATM   27  C           1     -19.476  -5.585  -6.658  0.00  0.00     0.014 A 
ENDBRANCH  17  18
ENDBRANCH   1  17
TORSDOF 8
ENDMDL
MODEL 7
REMARK VINA RESULT:      -6.5     11.144     12.900
REMARK  8 active torsions:
REMARK  status: ('A' for Active; 'I' for Inactive)
REMARK    1  A    between atoms: C_2  and  C_10 
REMARK    2  A    between atoms: N_8  and  C_10 
REMARK       I    between atoms: N_8  and  C_14 
REMARK    3  A    between atoms: C_10  and  C_13 
REMARK    4  A    between atoms: C_11  and  C_13 
REMARK    5  A    between atoms: C_14  and  C_15 
REMARK    6  A    between atoms: C_15  and  C_23 
REMARK    7  A    between atoms: C_15  and  N_27 
REMARK    8  A    between atoms: C_23  and  O_24 
ROOT
HETATM    1  C           1     -35.396  -1.972 -11.770  0.00  0.00     0.190 C 
ENDROOT
BRANCH   1   2
HETATM    2  C           1     -36.400  -1.050 -11.122  0.00  0.00     0.197 C 
HETATM    3  O           1     -36.011  -0.147 -10.351  0.00  0.00    -0.646 OA
HETATM    4  O           1     -37.620  -1.190 -11.357  0.00  0.00    -0.646 OA
ENDBRANCH   1   2
BRANCH   1   5
HETATM    5  N           1     -34.861  -1.343 -12.962  0.00  0.00    -0.344 N 
HETATM    6  H           1     -34.022  -1.706 -13.393  0.00  0.00     0.163 HD
HETATM    7  C           1     -35.492  -0.254 -13.502  0.00  0.00     0.251 C 
HETATM    8  O           1     -35.189   0.859 -13.146  0.00  0.00    -0.271 OA
BRANCH   7   9
HETATM    9  C           1     -36.566  -0.446 -14.545  0.00  0.00     0.297 C 
BRANCH   9  10
HETATM   10  C           1     -36.103   0.154 -15.867  0.00  0.00     0.206 C 
BRANCH  10  11
HETATM   11  O           1     -36.365   1.531 -15.873  0.00  0.00    -0.398 OA
HETATM   12  H           1     -37.044   1.683 -15.238  0.00  0.00     0.209 HD
ENDBRANCH  10  11
ENDBRANCH   9  10
BRANCH   9  13
HETATM   13  N           1     -37.823   0.241 -14.099  0.00  0.00    -0.064 N 
HETATM   14  H           1     -37.632   0.783 -13.225  0.00  0.00     0.275 HD
HETATM   15  H           1     -38.150   0.892 -14.848  0.00  0.00     0.275 HD
HETATM   16  H           1     -38.563  -0.473 -13.910  0.00  0.00     0.275 HD
ENDBRANCH   9  13
ENDBRANCH   7   9
ENDBRANCH   1   5
BRANCH   1  17
HETATM   17  C           1     -34.261  -2.254 -10.793  0.00  0.00     0.077 C 
BRANCH  17  18
HETATM   18  C           1     -33.647  -3.582 -11.111  0.00  0.00    -0.028 A 
HETATM   19  C           1     -32.536  -3.796 -11.896  0.00  0.00     0.096 A 
HETATM   20  N           1     -32.304  -5.145 -11.934  0.00  0.00    -0.365 N 
HETATM   21  H           1     -31.520  -5.605 -12.459  0.00  0.00     0.165 HD
HETATM   22  C           1     -33.248  -5.813 -11.186  0.00  0.00     0.042 A 
HETATM   23  C           1     -33.406  -7.181 -10.940  0.00  0.00     0.030 A 
HETATM   24  C           1     -34.107  -4.848 -10.656  0.00  0.00    -0.002 A 
HETATM   25  C           1     -34.475  -7.573 -10.128  0.00  0.00     0.002 A 
HETATM   26  C           1     -35.348  -6.633  -9.585  0.00  0.00     0.001 A 
HETATM   27  C           1     -35.176  -5.268  -9.841  0.00  0.00     0.014 A 
ENDBRANCH  17  18
ENDBRANCH   1  17
TORSDOF 8
ENDMDL
MODEL 8
REMARK VINA RESULT:      -6.4      4.188      7.594
REMARK  8 active torsions:
REMARK  status: ('A' for Active; 'I' for Inactive)
REMARK    1  A    between atoms: C_2  and  C_10 
REMARK    2  A    between atoms: N_8  and  C_10 
REMARK       I    between atoms: N_8  and  C_14 
REMARK    3  A    between atoms: C_10  and  C_13 
REMARK    4  A    between atoms: C_11  and  C_13 
REMARK    5  A    between atoms: C_14  and  C_15 
REMARK    6  A    between atoms: C_15  and  C_23 
REMARK    7  A    between atoms: C_15  and  N_27 
REMARK    8  A    between atoms: C_23  and  O_24 
ROOT
HETATM    1  C           1     -21.529  -5.538  -6.844  0.00  0.00     0.190 C 
ENDROOT
BRANCH   1   2
HETATM    2  C           1     -20.074  -5.614  -6.452  0.00  0.00     0.197 C 
HETATM    3  O           1     -19.426  -6.662  -6.657  0.00  0.00    -0.646 OA
HETATM    4  O           1     -19.518  -4.628  -5.921  0.00  0.00    -0.646 OA
ENDBRANCH   1   2
BRANCH   1   5
HETATM    5  N           1     -22.356  -5.843  -5.693  0.00  0.00    -0.344 N 
HETATM    6  H           1     -23.336  -5.596  -5.694  0.00  0.00     0.163 HD
HETATM    7  C           1     -21.808  -6.464  -4.602  0.00  0.00     0.251 C 
HETATM    8  O           1     -21.333  -5.806  -3.708  0.00  0.00    -0.271 OA
BRANCH   7   9
HETATM    9  C           1     -21.799  -7.971  -4.518  0.00  0.00     0.297 C 
BRANCH   9  10
HETATM   10  C           1     -20.750  -8.417  -3.508  0.00  0.00     0.206 C 
BRANCH  10  11
HETATM   11  O           1     -19.479  -8.364  -4.098  0.00  0.00    -0.398 OA
HETATM   12  H           1     -19.001  -9.113  -3.785  0.00  0.00     0.209 HD
ENDBRANCH  10  11
ENDBRANCH   9  10
BRANCH   9  13
HETATM   13  N           1     -21.469  -8.543  -5.865  0.00  0.00    -0.064 N 
HETATM   14  H           1     -22.127  -8.155  -6.578  0.00  0.00     0.275 HD
HETATM   15  H           1     -20.488  -8.290  -6.121  0.00  0.00     0.275 HD
HETATM   16  H           1     -21.564  -9.584  -5.834  0.00  0.00     0.275 HD
ENDBRANCH   9  13
ENDBRANCH   7   9
ENDBRANCH   1   5
BRANCH   1  17
HETATM   17  C           1     -21.850  -4.134  -7.341  0.00  0.00     0.077 C 
BRANCH  17  18
HETATM   18  C           1     -21.547  -4.041  -8.804  0.00  0.00    -0.028 A 
HETATM   19  C           1     -20.312  -4.202  -9.389  0.00  0.00     0.096 A 
HETATM   20  N           1     -20.465  -4.039 -10.741  0.00  0.00    -0.365 N 
HETATM   21  H           1     -19.689  -4.106 -11.445  0.00  0.00     0.165 HD
HETATM   22  C           1     -21.782  -3.775 -11.043  0.00  0.00     0.042 A 
HETATM   23  C           1     -22.398  -3.542 -12.278  0.00  0.00     0.030 A 
HETATM   24  C           1     -22.485  -3.771  -9.838  0.00  0.00    -0.002 A 
HETATM   25  C           1     -23.775  -3.297 -12.278  0.00  0.00     0.002 A 
HETATM   26  C           1     -24.503  -3.287 -11.090  0.00  0.00     0.001 A 
HETATM   27  C           1     -23.872  -3.522  -9.864  0.00  0.00     0.014 A 
ENDBRANCH  17  18
ENDBRANCH   1  17
TORSDOF 8
ENDMDL
MODEL 9
REMARK VINA RESULT:      -6.3      8.402     10.647
REMARK  8 active torsions:
REMARK  status: ('A' for Active; 'I' for Inactive)
REMARK    1  A    between atoms: C_2  and  C_10 
REMARK    2  A    between atoms: N_8  and  C_10 
REMARK       I    between atoms: N_8  and  C_14 
REMARK    3  A    between atoms: C_10  and  C_13 
REMARK    4  A    between atoms: C_11  and  C_13 
REMARK    5  A    between atoms: C_14  and  C_15 
REMARK    6  A    between atoms: C_15  and  C_23 
REMARK    7  A    between atoms: C_15  and  N_27 
REMARK    8  A    between atoms: C_23  and  O_24 
ROOT
HETATM    1  C           1     -21.221  -7.832  -3.011  0.00  0.00     0.190 C 
ENDROOT
BRANCH   1   2
HETATM    2  C           1     -21.726  -6.410  -3.014  0.00  0.00     0.197 C 
HETATM    3  O           1     -21.400  -5.634  -3.938  0.00  0.00    -0.646 OA
HETATM    4  O           1     -22.469  -6.007  -2.092  0.00  0.00    -0.646 OA
ENDBRANCH   1   2
BRANCH   1   5
HETATM    5  N           1     -20.300  -8.020  -4.114  0.00  0.00    -0.344 N 
HETATM    6  H           1     -19.387  -7.586  -4.091  0.00  0.00     0.163 HD
HETATM    7  C           1     -20.668  -8.786  -5.189  0.00  0.00     0.251 C 
HETATM    8  O           1     -21.220  -8.275  -6.133  0.00  0.00    -0.271 OA
BRANCH   7   9
HETATM    9  C           1     -20.381 -10.267  -5.193  0.00  0.00     0.297 C 
BRANCH   9  10
HETATM   10  C           1     -18.888 -10.494  -5.393  0.00  0.00     0.206 C 
BRANCH  10  11
HETATM   11  O           1     -18.349  -9.437  -6.139  0.00  0.00    -0.398 OA
HETATM   12  H           1     -18.686  -9.521  -7.016  0.00  0.00     0.209 HD
ENDBRANCH  10  11
ENDBRANCH   9  10
BRANCH   9  13
HETATM   13  N           1     -21.138 -10.919  -6.312  0.00  0.00    -0.064 N 
HETATM   14  H           1     -21.843 -10.247  -6.692  0.00  0.00     0.275 HD
HETATM   15  H           1     -20.474 -11.193  -7.070  0.00  0.00     0.275 HD
HETATM   16  H           1     -21.628 -11.770  -5.953  0.00  0.00     0.275 HD
ENDBRANCH   9  13
ENDBRANCH   7   9
ENDBRANCH   1   5
BRANCH   1  17
HETATM   17  C           1     -20.502  -8.113  -1.697  0.00  0.00     0.077 C 
BRANCH  17  18
HETATM   18  C           1     -20.626  -9.567  -1.360  0.00  0.00    -0.028 A 
HETATM   19  C           1     -19.644 -10.520  -1.507  0.00  0.00     0.096 A 
HETATM   20  N           1     -20.158 -11.718  -1.087  0.00  0.00    -0.365 N 
HETATM   21  H           1     -19.635 -12.628  -1.084  0.00  0.00     0.165 HD
HETATM   22  C           1     -21.461 -11.558  -0.669  0.00  0.00     0.042 A 
HETATM   23  C           1     -22.371 -12.494  -0.165  0.00  0.00     0.030 A 
HETATM   24  C           1     -21.779 -10.209  -0.832  0.00  0.00    -0.002 A 
HETATM   25  C           1     -23.645 -12.034   0.182  0.00  0.00     0.002 A 
HETATM   26  C           1     -23.991 -10.693   0.031  0.00  0.00     0.001 A 
HETATM   27  C           1     -23.069  -9.770  -0.474  0.00  0.00     0.014 A 
ENDBRANCH  17  18
ENDBRANCH   1  17
TORSDOF 8
ENDMDL
