MODEL 1
REMARK VINA RESULT:      -5.5      0.000      0.000
REMARK  7 active torsions:
REMARK  status: ('A' for Active; 'I' for Inactive)
REMARK    1  A    between atoms: C_1  and  C_15 
REMARK    2  A    between atoms: C_1  and  C_8 
REMARK    3  A    between atoms: C_1  and  N_18 
REMARK    4  A    between atoms: C_2  and  C_9 
REMARK    5  A    between atoms: C_2  and  C_3 
REMARK    6  A    between atoms: C_2  and  N_5 
REMARK       I    between atoms: C_9  and  N_18 
REMARK    7  A    between atoms: C_15  and  S_17 
ROOT
HETATM    1  C           1     -21.919  -4.538  -8.068  0.00  0.00     0.249 C 
HETATM    2  H           1     -22.365  -5.603  -9.786  0.00  0.00     0.163 HD
HETATM    3  O           1     -21.938  -3.449  -7.545  0.00  0.00    -0.271 OA
HETATM    4  N           1     -22.381  -4.691  -9.348  0.00  0.00    -0.344 N 
ENDROOT
BRANCH   1   5
HETATM    5  C           1     -21.385  -5.729  -7.311  0.00  0.00     0.278 C 
BRANCH   5   6
HETATM    6  C           1     -21.494  -5.471  -5.815  0.00  0.00     0.017 C 
HETATM    7  C           1     -21.864  -6.763  -5.100  0.00  0.00     0.012 C 
HETATM    8  C           1     -20.157  -4.965  -5.289  0.00  0.00     0.012 C 
ENDBRANCH   5   6
BRANCH   5   9
HETATM    9  N           1     -19.947  -5.950  -7.677  0.00  0.00    -0.066 N 
HETATM   10  H           1     -19.511  -5.038  -7.941  0.00  0.00     0.275 HD
HETATM   11  H           1     -19.439  -6.353  -6.858  0.00  0.00     0.275 HD
HETATM   12  H           1     -19.890  -6.611  -8.484  0.00  0.00     0.275 HD
ENDBRANCH   5   9
ENDBRANCH   1   5
BRANCH   4  13
HETATM   13  C           1     -22.894  -3.546 -10.075  0.00  0.00     0.194 C 
BRANCH  13  14
HETATM   14  C           1     -22.071  -3.338 -11.341  0.00  0.00     0.106 C 
BRANCH  14  15
HETATM   15  S           1     -20.441  -4.111 -11.138  0.00  0.00    -0.180 SA
HETATM   16  H           1     -20.129  -4.125 -12.445  0.00  0.00     0.101 HD
ENDBRANCH  14  15
ENDBRANCH  13  14
BRANCH  13  17
HETATM   17  C           1     -24.335  -3.790 -10.446  0.00  0.00     0.197 C 
HETATM   18  O           1     -24.991  -4.677  -9.858  0.00  0.00    -0.646 OA
HETATM   19  O           1     -24.875  -3.105 -11.342  0.00  0.00    -0.646 OA
ENDBRANCH  13  17
ENDBRANCH   4  13
TORSDOF 7
ENDMDL
MODEL 2
REMARK VINA RESULT:      -5.2      2.408      2.819
REMARK  7 active torsions:
REMARK  status: ('A' for Active; 'I' for Inactive)
REMARK    1  A    between atoms: C_1  and  C_15 
REMARK    2  A    between atoms: C_1  and  C_8 
REMARK    3  A    between atoms: C_1  and  N_18 
REMARK    4  A    between atoms: C_2  and  C_9 
REMARK    5  A    between atoms: C_2  and  C_3 
REMARK    6  A    between atoms: C_2  and  N_5 
REMARK       I    between atoms: C_9  and  N_18 
REMARK    7  A    between atoms: C_15  and  S_17 
ROOT
HETATM    1  C           1     -20.733  -4.319  -9.021  0.00  0.00     0.249 C 
HETATM    2  H           1     -22.611  -3.452  -9.074  0.00  0.00     0.163 HD
HETATM    3  O           1     -19.920  -4.959  -9.645  0.00  0.00    -0.271 OA
HETATM    4  N           1     -21.930  -3.988  -9.596  0.00  0.00    -0.344 N 
ENDROOT
BRANCH   1   5
HETATM    5  C           1     -20.428  -3.887  -7.608  0.00  0.00     0.278 C 
BRANCH   5   6
HETATM    6  C           1     -20.097  -5.109  -6.763  0.00  0.00     0.017 C 
HETATM    7  C           1     -19.973  -4.700  -5.302  0.00  0.00     0.012 C 
HETATM    8  C           1     -21.206  -6.142  -6.908  0.00  0.00     0.012 C 
ENDBRANCH   5   6
BRANCH   5   9
HETATM    9  N           1     -21.624  -3.190  -7.030  0.00  0.00    -0.066 N 
HETATM   10  H           1     -22.467  -3.406  -7.609  0.00  0.00     0.275 HD
HETATM   11  H           1     -21.780  -3.521  -6.052  0.00  0.00     0.275 HD
HETATM   12  H           1     -21.458  -2.158  -7.027  0.00  0.00     0.275 HD
ENDBRANCH   5   9
ENDBRANCH   1   5
BRANCH   4  13
HETATM   13  C           1     -22.222  -4.404 -10.954  0.00  0.00     0.194 C 
BRANCH  13  14
HETATM   14  C           1     -23.692  -4.788 -11.063  0.00  0.00     0.106 C 
BRANCH  14  15
HETATM   15  S           1     -24.683  -3.700 -10.000  0.00  0.00    -0.180 SA
HETATM   16  H           1     -24.646  -4.493  -8.915  0.00  0.00     0.101 HD
ENDBRANCH  14  15
ENDBRANCH  13  14
BRANCH  13  17
HETATM   17  C           1     -21.927  -3.269 -11.902  0.00  0.00     0.197 C 
HETATM   18  O           1     -21.102  -2.385 -11.584  0.00  0.00    -0.646 OA
HETATM   19  O           1     -22.508  -3.210 -13.008  0.00  0.00    -0.646 OA
ENDBRANCH  13  17
ENDBRANCH   4  13
TORSDOF 7
ENDMDL
MODEL 3
REMARK VINA RESULT:      -5.2      2.934      5.555
REMARK  7 active torsions:
REMARK  status: ('A' for Active; 'I' for Inactive)
REMARK    1  A    between atoms: C_1  and  C_15 
REMARK    2  A    between atoms: C_1  and  C_8 
REMARK    3  A    between atoms: C_1  and  N_18 
REMARK    4  A    between atoms: C_2  and  C_9 
REMARK    5  A    between atoms: C_2  and  C_3 
REMARK    6  A    between atoms: C_2  and  N_5 
REMARK       I    between atoms: C_9  and  N_18 
REMARK    7  A    between atoms: C_15  and  S_17 
ROOT
HETATM    1  C           1     -22.358  -4.195  -8.051  0.00  0.00     0.249 C 
HETATM    2  H           1     -22.595  -6.237  -7.806  0.00  0.00     0.163 HD
HETATM    3  O           1     -21.853  -3.195  -7.598  0.00  0.00    -0.271 OA
HETATM    4  N           1     -22.173  -5.399  -7.426  0.00  0.00    -0.344 N 
ENDROOT
BRANCH   1   5
HETATM    5  C           1     -23.194  -4.116  -9.305  0.00  0.00     0.278 C 
BRANCH   5   6
HETATM    6  C           1     -22.399  -3.422 -10.403  0.00  0.00     0.017 C 
HETATM    7  C           1     -21.309  -4.356 -10.910  0.00  0.00     0.012 C 
HETATM    8  C           1     -23.331  -3.059 -11.551  0.00  0.00     0.012 C 
ENDBRANCH   5   6
BRANCH   5   9
HETATM    9  N           1     -24.444  -3.336  -9.024  0.00  0.00    -0.066 N 
HETATM   10  H           1     -24.364  -2.876  -8.089  0.00  0.00     0.275 HD
HETATM   11  H           1     -24.571  -2.606  -9.760  0.00  0.00     0.275 HD
HETATM   12  H           1     -25.265  -3.982  -9.026  0.00  0.00     0.275 HD
ENDBRANCH   5   9
ENDBRANCH   1   5
BRANCH   4  13
HETATM   13  C           1     -21.369  -5.474  -6.221  0.00  0.00     0.194 C 
BRANCH  13  14
HETATM   14  C           1     -21.923  -6.562  -5.309  0.00  0.00     0.106 C 
BRANCH  14  15
HETATM   15  S           1     -21.390  -6.251  -3.602  0.00  0.00    -0.180 SA
HETATM   16  H           1     -22.527  -6.672  -3.022  0.00  0.00     0.101 HD
ENDBRANCH  14  15
ENDBRANCH  13  14
BRANCH  13  17
HETATM   17  C           1     -19.943  -5.802  -6.587  0.00  0.00     0.197 C 
HETATM   18  O           1     -19.586  -6.995  -6.705  0.00  0.00    -0.646 OA
HETATM   19  O           1     -19.118  -4.882  -6.773  0.00  0.00    -0.646 OA
ENDBRANCH  13  17
ENDBRANCH   4  13
TORSDOF 7
ENDMDL
MODEL 4
REMARK VINA RESULT:      -4.9      3.848      5.187
REMARK  7 active torsions:
REMARK  status: ('A' for Active; 'I' for Inactive)
REMARK    1  A    between atoms: C_1  and  C_15 
REMARK    2  A    between atoms: C_1  and  C_8 
REMARK    3  A    between atoms: C_1  and  N_18 
REMARK    4  A    between atoms: C_2  and  C_9 
REMARK    5  A    between atoms: C_2  and  C_3 
REMARK    6  A    between atoms: C_2  and  N_5 
REMARK       I    between atoms: C_9  and  N_18 
REMARK    7  A    between atoms: C_15  and  S_17 
ROOT
HETATM    1  C           1     -21.530  -6.472  -4.207  0.00  0.00     0.249 C 
HETATM    2  H           1     -20.360  -4.781  -4.445  0.00  0.00     0.163 HD
HETATM    3  O           1     -22.198  -7.303  -4.776  0.00  0.00    -0.271 OA
HETATM    4  N           1     -20.920  -5.477  -4.922  0.00  0.00    -0.344 N 
ENDROOT
BRANCH   1   5
HETATM    5  C           1     -21.372  -6.530  -2.707  0.00  0.00     0.278 C 
BRANCH   5   6
HETATM    6  C           1     -21.406  -7.981  -2.249  0.00  0.00     0.017 C 
HETATM    7  C           1     -19.988  -8.533  -2.198  0.00  0.00     0.012 C 
HETATM    8  C           1     -22.031  -8.060  -0.862  0.00  0.00     0.012 C 
ENDBRANCH   5   6
BRANCH   5   9
HETATM    9  N           1     -22.493  -5.774  -2.057  0.00  0.00    -0.066 N 
HETATM   10  H           1     -22.955  -5.159  -2.764  0.00  0.00     0.275 HD
HETATM   11  H           1     -23.193  -6.450  -1.676  0.00  0.00     0.275 HD
HETATM   12  H           1     -22.114  -5.189  -1.279  0.00  0.00     0.275 HD
ENDBRANCH   5   9
ENDBRANCH   1   5
BRANCH   4  13
HETATM   13  C           1     -21.072  -5.422  -6.363  0.00  0.00     0.194 C 
BRANCH  13  14
HETATM   14  C           1     -21.578  -4.043  -6.767  0.00  0.00     0.106 C 
BRANCH  14  15
HETATM   15  S           1     -22.410  -4.150  -8.377  0.00  0.00    -0.180 SA
HETATM   16  H           1     -21.689  -3.184  -8.971  0.00  0.00     0.101 HD
ENDBRANCH  14  15
ENDBRANCH  13  14
BRANCH  13  17
HETATM   17  C           1     -19.740  -5.682  -7.020  0.00  0.00     0.197 C 
HETATM   18  O           1     -19.316  -6.852  -7.137  0.00  0.00    -0.646 OA
HETATM   19  O           1     -19.057  -4.725  -7.449  0.00  0.00    -0.646 OA
ENDBRANCH  13  17
ENDBRANCH   4  13
TORSDOF 7
ENDMDL
MODEL 5
REMARK VINA RESULT:      -4.9     17.512     19.416
REMARK  7 active torsions:
REMARK  status: ('A' for Active; 'I' for Inactive)
REMARK    1  A    between atoms: C_1  and  C_15 
REMARK    2  A    between atoms: C_1  and  C_8 
REMARK    3  A    between atoms: C_1  and  N_18 
REMARK    4  A    between atoms: C_2  and  C_9 
REMARK    5  A    between atoms: C_2  and  C_3 
REMARK    6  A    between atoms: C_2  and  N_5 
REMARK       I    between atoms: C_9  and  N_18 
REMARK    7  A    between atoms: C_15  and  S_17 
ROOT
HETATM    1  C           1     -11.397   6.283 -21.004  0.00  0.00     0.249 C 
HETATM    2  H           1     -12.032   4.998 -19.511  0.00  0.00     0.163 HD
HETATM    3  O           1     -11.565   6.630 -22.149  0.00  0.00    -0.271 OA
HETATM    4  N           1     -12.173   5.289 -20.470  0.00  0.00    -0.344 N 
ENDROOT
BRANCH   1   5
HETATM    5  C           1     -10.331   6.943 -20.164  0.00  0.00     0.278 C 
BRANCH   5   6
HETATM    6  C           1     -10.401   8.453 -20.350  0.00  0.00     0.017 C 
HETATM    7  C           1     -10.542   9.127 -18.993  0.00  0.00     0.012 C 
HETATM    8  C           1      -9.127   8.939 -21.028  0.00  0.00     0.012 C 
ENDBRANCH   5   6
BRANCH   5   9
HETATM    9  N           1      -8.981   6.449 -20.591  0.00  0.00    -0.066 N 
HETATM   10  H           1      -8.797   6.746 -21.576  0.00  0.00     0.275 HD
HETATM   11  H           1      -8.249   6.852 -19.964  0.00  0.00     0.275 HD
HETATM   12  H           1      -8.957   5.406 -20.531  0.00  0.00     0.275 HD
ENDBRANCH   5   9
ENDBRANCH   1   5
BRANCH   4  13
HETATM   13  C           1     -13.196   4.655 -21.277  0.00  0.00     0.194 C 
BRANCH  13  14
HETATM   14  C           1     -13.096   3.142 -21.127  0.00  0.00     0.106 C 
BRANCH  14  15
HETATM   15  S           1     -11.380   2.682 -20.759  0.00  0.00    -0.180 SA
HETATM   16  H           1     -10.813   3.620 -21.537  0.00  0.00     0.101 HD
ENDBRANCH  14  15
ENDBRANCH  13  14
BRANCH  13  17
HETATM   17  C           1     -14.557   5.117 -20.819  0.00  0.00     0.197 C 
HETATM   18  O           1     -15.457   5.342 -21.657  0.00  0.00    -0.646 OA
HETATM   19  O           1     -14.785   5.277 -19.600  0.00  0.00    -0.646 OA
ENDBRANCH  13  17
ENDBRANCH   4  13
TORSDOF 7
ENDMDL
MODEL 6
REMARK VINA RESULT:      -4.8      3.587      6.176
REMARK  7 active torsions:
REMARK  status: ('A' for Active; 'I' for Inactive)
REMARK    1  A    between atoms: C_1  and  C_15 
REMARK    2  A    between atoms: C_1  and  C_8 
REMARK    3  A    between atoms: C_1  and  N_18 
REMARK    4  A    between atoms: C_2  and  C_9 
REMARK    5  A    between atoms: C_2  and  C_3 
REMARK    6  A    between atoms: C_2  and  N_5 
REMARK       I    between atoms: C_9  and  N_18 
REMARK    7  A    between atoms: C_15  and  S_17 
ROOT
HETATM    1  C           1     -21.714  -5.547  -5.796  0.00  0.00     0.249 C 
HETATM    2  H           1     -20.008  -6.401  -4.992  0.00  0.00     0.163 HD
HETATM    3  O           1     -22.922  -5.555  -5.792  0.00  0.00    -0.271 OA
HETATM    4  N           1     -21.020  -6.408  -4.988  0.00  0.00    -0.344 N 
ENDROOT
BRANCH   1   5
HETATM    5  C           1     -20.970  -4.589  -6.694  0.00  0.00     0.278 C 
BRANCH   5   6
HETATM    6  C           1     -21.351  -4.852  -8.144  0.00  0.00     0.017 C 
HETATM    7  C           1     -22.346  -3.798  -8.608  0.00  0.00     0.012 C 
HETATM    8  C           1     -20.103  -4.790  -9.015  0.00  0.00     0.012 C 
ENDBRANCH   5   6
BRANCH   5   9
HETATM    9  N           1     -19.493  -4.787  -6.521  0.00  0.00    -0.066 N 
HETATM   10  H           1     -19.308  -5.762  -6.194  0.00  0.00     0.275 HD
HETATM   11  H           1     -19.012  -4.631  -7.436  0.00  0.00     0.275 HD
HETATM   12  H           1     -19.130  -4.108  -5.815  0.00  0.00     0.275 HD
ENDBRANCH   5   9
ENDBRANCH   1   5
BRANCH   4  13
HETATM   13  C           1     -21.736  -7.328  -4.126  0.00  0.00     0.194 C 
BRANCH  13  14
HETATM   14  C           1     -21.112  -8.713  -4.234  0.00  0.00     0.106 C 
BRANCH  14  15
HETATM   15  S           1     -19.486  -8.586  -5.030  0.00  0.00    -0.180 SA
HETATM   16  H           1     -19.326  -7.269  -4.813  0.00  0.00     0.101 HD
ENDBRANCH  14  15
ENDBRANCH  13  14
BRANCH  13  17
HETATM   17  C           1     -21.653  -6.848  -2.699  0.00  0.00     0.197 C 
HETATM   18  O           1     -20.846  -7.379  -1.905  0.00  0.00    -0.646 OA
HETATM   19  O           1     -22.392  -5.918  -2.308  0.00  0.00    -0.646 OA
ENDBRANCH  13  17
ENDBRANCH   4  13
TORSDOF 7
ENDMDL
MODEL 7
REMARK VINA RESULT:      -4.7      5.915      7.853
REMARK  7 active torsions:
REMARK  status: ('A' for Active; 'I' for Inactive)
REMARK    1  A    between atoms: C_1  and  C_15 
REMARK    2  A    between atoms: C_1  and  C_8 
REMARK    3  A    between atoms: C_1  and  N_18 
REMARK    4  A    between atoms: C_2  and  C_9 
REMARK    5  A    between atoms: C_2  and  C_3 
REMARK    6  A    between atoms: C_2  and  N_5 
REMARK       I    between atoms: C_9  and  N_18 
REMARK    7  A    between atoms: C_15  and  S_17 
ROOT
HETATM    1  C           1     -21.078  -8.954  -1.568  0.00  0.00     0.249 C 
HETATM    2  H           1     -22.235  -9.298  -3.249  0.00  0.00     0.163 HD
HETATM    3  O           1     -20.221  -8.254  -1.082  0.00  0.00    -0.271 OA
HETATM    4  N           1     -21.517  -8.712  -2.842  0.00  0.00    -0.344 N 
ENDROOT
BRANCH   1   5
HETATM    5  C           1     -21.662 -10.095  -0.771  0.00  0.00     0.278 C 
BRANCH   5   6
HETATM    6  C           1     -23.149  -9.853  -0.552  0.00  0.00     0.017 C 
HETATM    7  C           1     -23.797 -11.121  -0.014  0.00  0.00     0.012 C 
HETATM    8  C           1     -23.336  -8.722   0.451  0.00  0.00     0.012 C 
ENDBRANCH   5   6
BRANCH   5   9
HETATM    9  N           1     -20.969 -10.183   0.556  0.00  0.00    -0.066 N 
HETATM   10  H           1     -21.603 -10.639   1.251  0.00  0.00     0.275 HD
HETATM   11  H           1     -20.098 -10.752   0.456  0.00  0.00     0.275 HD
HETATM   12  H           1     -20.723  -9.222   0.886  0.00  0.00     0.275 HD
ENDBRANCH   5   9
ENDBRANCH   1   5
BRANCH   4  13
HETATM   13  C           1     -20.956  -7.615  -3.606  0.00  0.00     0.194 C 
BRANCH  13  14
HETATM   14  C           1     -20.614  -8.099  -5.010  0.00  0.00     0.106 C 
BRANCH  14  15
HETATM   15  S           1     -19.156  -9.178  -4.941  0.00  0.00    -0.180 SA
HETATM   16  H           1     -19.828 -10.331  -5.107  0.00  0.00     0.101 HD
ENDBRANCH  14  15
ENDBRANCH  13  14
BRANCH  13  17
HETATM   17  C           1     -21.961  -6.495  -3.691  0.00  0.00     0.197 C 
HETATM   18  O           1     -22.381  -5.950  -2.647  0.00  0.00    -0.646 OA
HETATM   19  O           1     -22.376  -6.109  -4.807  0.00  0.00    -0.646 OA
ENDBRANCH  13  17
ENDBRANCH   4  13
TORSDOF 7
ENDMDL
MODEL 8
REMARK VINA RESULT:      -4.5      5.481      7.425
REMARK  7 active torsions:
REMARK  status: ('A' for Active; 'I' for Inactive)
REMARK    1  A    between atoms: C_1  and  C_15 
REMARK    2  A    between atoms: C_1  and  C_8 
REMARK    3  A    between atoms: C_1  and  N_18 
REMARK    4  A    between atoms: C_2  and  C_9 
REMARK    5  A    between atoms: C_2  and  C_3 
REMARK    6  A    between atoms: C_2  and  N_5 
REMARK       I    between atoms: C_9  and  N_18 
REMARK    7  A    between atoms: C_15  and  S_17 
ROOT
HETATM    1  C           1     -20.851  -8.586  -1.950  0.00  0.00     0.249 C 
HETATM    2  H           1     -22.504  -8.126  -3.108  0.00  0.00     0.163 HD
HETATM    3  O           1     -19.646  -8.540  -1.881  0.00  0.00    -0.271 OA
HETATM    4  N           1     -21.494  -8.087  -3.051  0.00  0.00    -0.344 N 
ENDROOT
BRANCH   1   5
HETATM    5  C           1     -21.647  -9.195  -0.822  0.00  0.00     0.278 C 
BRANCH   5   6
HETATM    6  C           1     -21.793  -8.179   0.304  0.00  0.00     0.017 C 
HETATM    7  C           1     -23.265  -8.012   0.651  0.00  0.00     0.012 C 
HETATM    8  C           1     -21.035  -8.670   1.530  0.00  0.00     0.012 C 
ENDBRANCH   5   6
BRANCH   5   9
HETATM    9  N           1     -20.936 -10.411  -0.308  0.00  0.00    -0.066 N 
HETATM   10  H           1     -21.548 -10.909   0.377  0.00  0.00     0.275 HD
HETATM   11  H           1     -20.717 -11.049  -1.106  0.00  0.00     0.275 HD
HETATM   12  H           1     -20.048 -10.123   0.162  0.00  0.00     0.275 HD
ENDBRANCH   5   9
ENDBRANCH   1   5
BRANCH   4  13
HETATM   13  C           1     -20.728  -7.502  -4.134  0.00  0.00     0.194 C 
BRANCH  13  14
HETATM   14  C           1     -20.617  -8.505  -5.276  0.00  0.00     0.106 C 
BRANCH  14  15
HETATM   15  S           1     -18.970  -9.268  -5.254  0.00  0.00    -0.180 SA
HETATM   16  H           1     -18.552  -8.667  -4.127  0.00  0.00     0.101 HD
ENDBRANCH  14  15
ENDBRANCH  13  14
BRANCH  13  17
HETATM   17  C           1     -21.422  -6.256  -4.625  0.00  0.00     0.197 C 
HETATM   18  O           1     -22.671  -6.207  -4.659  0.00  0.00    -0.646 OA
HETATM   19  O           1     -20.747  -5.271  -4.998  0.00  0.00    -0.646 OA
ENDBRANCH  13  17
ENDBRANCH   4  13
TORSDOF 7
ENDMDL
MODEL 9
REMARK VINA RESULT:      -4.5      2.620      3.697
REMARK  7 active torsions:
REMARK  status: ('A' for Active; 'I' for Inactive)
REMARK    1  A    between atoms: C_1  and  C_15 
REMARK    2  A    between atoms: C_1  and  C_8 
REMARK    3  A    between atoms: C_1  and  N_18 
REMARK    4  A    between atoms: C_2  and  C_9 
REMARK    5  A    between atoms: C_2  and  C_3 
REMARK    6  A    between atoms: C_2  and  N_5 
REMARK       I    between atoms: C_9  and  N_18 
REMARK    7  A    between atoms: C_15  and  S_17 
ROOT
HETATM    1  C           1     -21.285  -5.927  -4.888  0.00  0.00     0.249 C 
HETATM    2  H           1     -22.449  -6.500  -6.501  0.00  0.00     0.163 HD
HETATM    3  O           1     -20.489  -5.114  -4.480  0.00  0.00    -0.271 OA
HETATM    4  N           1     -21.783  -5.819  -6.159  0.00  0.00    -0.344 N 
ENDROOT
BRANCH   1   5
HETATM    5  C           1     -21.728  -7.061  -3.997  0.00  0.00     0.278 C 
BRANCH   5   6
HETATM    6  C           1     -21.156  -6.863  -2.600  0.00  0.00     0.017 C 
HETATM    7  C           1     -22.259  -6.401  -1.658  0.00  0.00     0.012 C 
HETATM    8  C           1     -20.578  -8.179  -2.098  0.00  0.00     0.012 C 
ENDBRANCH   5   6
BRANCH   5   9
HETATM    9  N           1     -21.234  -8.360  -4.560  0.00  0.00    -0.066 N 
HETATM   10  H           1     -20.277  -8.227  -4.958  0.00  0.00     0.275 HD
HETATM   11  H           1     -21.197  -9.076  -3.799  0.00  0.00     0.275 HD
HETATM   12  H           1     -21.883  -8.684  -5.312  0.00  0.00     0.275 HD
ENDBRANCH   5   9
ENDBRANCH   1   5
BRANCH   4  13
HETATM   13  C           1     -21.356  -4.729  -7.015  0.00  0.00     0.194 C 
BRANCH  13  14
HETATM   14  C           1     -20.271  -5.223  -7.963  0.00  0.00     0.106 C 
BRANCH  14  15
HETATM   15  S           1     -18.721  -4.344  -7.621  0.00  0.00    -0.180 SA
HETATM   16  H           1     -18.543  -4.847  -6.387  0.00  0.00     0.101 HD
ENDBRANCH  14  15
ENDBRANCH  13  14
BRANCH  13  17
HETATM   17  C           1     -22.533  -4.227  -7.814  0.00  0.00     0.197 C 
HETATM   18  O           1     -23.697  -4.408  -7.395  0.00  0.00    -0.646 OA
HETATM   19  O           1     -22.344  -3.629  -8.896  0.00  0.00    -0.646 OA
ENDBRANCH  13  17
ENDBRANCH   4  13
TORSDOF 7
ENDMDL
