MODEL 1
REMARK VINA RESULT:      -6.4      0.000      0.000
REMARK  7 active torsions:
REMARK  status: ('A' for Active; 'I' for Inactive)
REMARK       I    between atoms: C_1  and  N_4 
REMARK    1  A    between atoms: C_1  and  C_5 
REMARK    2  A    between atoms: C_2  and  C_10 
REMARK    3  A    between atoms: C_2  and  N_12 
REMARK    4  A    between atoms: N_3  and  C_7 
REMARK       I    between atoms: N_3  and  C_10 
REMARK    5  A    between atoms: C_5  and  C_6 
REMARK    6  A    between atoms: C_6  and  C_7 
REMARK    7  A    between atoms: C_7  and  C_11 
ROOT
HETATM    1  C           1     -22.952  -3.293 -12.286  0.00  0.00     0.186 C 
ENDROOT
BRANCH   1   2
HETATM    2  N           1     -23.519  -2.152 -12.980  0.00  0.00    -0.345 N 
HETATM    3  C           1     -23.447  -2.077 -14.346  0.00  0.00     0.243 C 
HETATM    4  O           1     -22.911  -2.960 -14.972  0.00  0.00    -0.272 OA
HETATM    5  H           1     -23.968  -1.412 -12.456  0.00  0.00     0.163 HD
BRANCH   3   6
HETATM    6  C           1     -24.036  -0.890 -15.068  0.00  0.00     0.332 C 
BRANCH   6   7
HETATM    7  N           1     -23.048  -0.374 -16.072  0.00  0.00    -0.071 N 
HETATM    8  H           1     -23.271  -0.767 -17.014  0.00  0.00     0.274 HD
HETATM    9  H           1     -23.102   0.669 -16.108  0.00  0.00     0.274 HD
HETATM   10  H           1     -22.084  -0.665 -15.792  0.00  0.00     0.274 HD
ENDBRANCH   6   7
ENDBRANCH   3   6
ENDBRANCH   1   2
BRANCH   1  11
HETATM   11  C           1     -21.760  -2.839 -11.455  0.00  0.00     0.045 C 
BRANCH  11  12
HETATM   12  C           1     -20.851  -4.029 -11.178  0.00  0.00     0.105 C 
BRANCH  12  13
HETATM   13  C           1     -20.748  -4.249  -9.689  0.00  0.00     0.215 C 
HETATM   14  O           1     -19.741  -4.719  -9.216  0.00  0.00    -0.274 OA
HETATM   15  N           1     -21.796  -3.916  -8.872  0.00  0.00    -0.370 N 
HETATM   16  H           1     -22.640  -3.523  -9.268  0.00  0.00     0.159 HD
HETATM   17  H           1     -21.726  -4.064  -7.874  0.00  0.00     0.159 HD
ENDBRANCH  12  13
ENDBRANCH  11  12
ENDBRANCH   1  11
BRANCH   1  18
HETATM   18  C           1     -23.997  -3.899 -11.380  0.00  0.00     0.196 C 
HETATM   19  O           1     -24.962  -3.207 -10.989  0.00  0.00    -0.646 OA
HETATM   20  O           1     -23.896  -5.092 -11.022  0.00  0.00    -0.646 OA
ENDBRANCH   1  18
TORSDOF 7
ENDMDL
MODEL 2
REMARK VINA RESULT:      -6.2      1.562      3.018
REMARK  7 active torsions:
REMARK  status: ('A' for Active; 'I' for Inactive)
REMARK       I    between atoms: C_1  and  N_4 
REMARK    1  A    between atoms: C_1  and  C_5 
REMARK    2  A    between atoms: C_2  and  C_10 
REMARK    3  A    between atoms: C_2  and  N_12 
REMARK    4  A    between atoms: N_3  and  C_7 
REMARK       I    between atoms: N_3  and  C_10 
REMARK    5  A    between atoms: C_5  and  C_6 
REMARK    6  A    between atoms: C_6  and  C_7 
REMARK    7  A    between atoms: C_7  and  C_11 
ROOT
HETATM    1  C           1     -22.548  -3.520 -11.533  0.00  0.00     0.186 C 
ENDROOT
BRANCH   1   2
HETATM    2  N           1     -22.339  -2.935 -12.845  0.00  0.00    -0.345 N 
HETATM    3  C           1     -23.406  -2.461 -13.559  0.00  0.00     0.243 C 
HETATM    4  O           1     -24.521  -2.530 -13.099  0.00  0.00    -0.272 OA
HETATM    5  H           1     -21.406  -2.877 -13.230  0.00  0.00     0.163 HD
BRANCH   3   6
HETATM    6  C           1     -23.190  -1.853 -14.923  0.00  0.00     0.332 C 
BRANCH   6   7
HETATM    7  N           1     -24.055  -0.636 -15.072  0.00  0.00    -0.071 N 
HETATM    8  H           1     -23.933  -0.237 -16.030  0.00  0.00     0.274 HD
HETATM    9  H           1     -25.055  -0.901 -14.930  0.00  0.00     0.274 HD
HETATM   10  H           1     -23.777   0.076 -14.360  0.00  0.00     0.274 HD
ENDBRANCH   6   7
ENDBRANCH   3   6
ENDBRANCH   1   2
BRANCH   1  11
HETATM   11  C           1     -23.349  -4.807 -11.674  0.00  0.00     0.045 C 
BRANCH  11  12
HETATM   12  C           1     -23.970  -5.168 -10.331  0.00  0.00     0.105 C 
BRANCH  12  13
HETATM   13  C           1     -24.557  -3.931  -9.698  0.00  0.00     0.215 C 
HETATM   14  O           1     -25.487  -3.367 -10.223  0.00  0.00    -0.274 OA
HETATM   15  N           1     -24.036  -3.447  -8.528  0.00  0.00    -0.370 N 
HETATM   16  H           1     -23.257  -3.919  -8.088  0.00  0.00     0.159 HD
HETATM   17  H           1     -24.430  -2.617  -8.104  0.00  0.00     0.159 HD
ENDBRANCH  12  13
ENDBRANCH  11  12
ENDBRANCH   1  11
BRANCH   1  18
HETATM   18  C           1     -21.211  -3.825 -10.902  0.00  0.00     0.196 C 
HETATM   19  O           1     -21.088  -3.800  -9.658  0.00  0.00    -0.646 OA
HETATM   20  O           1     -20.229  -4.104 -11.622  0.00  0.00    -0.646 OA
ENDBRANCH   1  18
TORSDOF 7
ENDMDL
MODEL 3
REMARK VINA RESULT:      -6.1      2.129      5.926
REMARK  7 active torsions:
REMARK  status: ('A' for Active; 'I' for Inactive)
REMARK       I    between atoms: C_1  and  N_4 
REMARK    1  A    between atoms: C_1  and  C_5 
REMARK    2  A    between atoms: C_2  and  C_10 
REMARK    3  A    between atoms: C_2  and  N_12 
REMARK    4  A    between atoms: N_3  and  C_7 
REMARK       I    between atoms: N_3  and  C_10 
REMARK    5  A    between atoms: C_5  and  C_6 
REMARK    6  A    between atoms: C_6  and  C_7 
REMARK    7  A    between atoms: C_7  and  C_11 
ROOT
HETATM    1  C           1     -22.765  -3.756  -9.754  0.00  0.00     0.186 C 
ENDROOT
BRANCH   1   2
HETATM    2  N           1     -22.245  -4.824  -8.920  0.00  0.00    -0.345 N 
HETATM    3  C           1     -21.717  -4.536  -7.690  0.00  0.00     0.243 C 
HETATM    4  O           1     -21.683  -3.393  -7.300  0.00  0.00    -0.272 OA
HETATM    5  H           1     -22.274  -5.780  -9.247  0.00  0.00     0.163 HD
BRANCH   3   6
HETATM    6  C           1     -21.176  -5.646  -6.823  0.00  0.00     0.332 C 
BRANCH   6   7
HETATM    7  N           1     -21.968  -5.720  -5.551  0.00  0.00    -0.071 N 
HETATM    8  H           1     -21.919  -4.801  -5.055  0.00  0.00     0.274 HD
HETATM    9  H           1     -22.965  -5.940  -5.775  0.00  0.00     0.274 HD
HETATM   10  H           1     -21.573  -6.469  -4.939  0.00  0.00     0.274 HD
ENDBRANCH   6   7
ENDBRANCH   3   6
ENDBRANCH   1   2
BRANCH   1  11
HETATM   11  C           1     -22.261  -3.936 -11.179  0.00  0.00     0.045 C 
BRANCH  11  12
HETATM   12  C           1     -22.409  -2.625 -11.940  0.00  0.00     0.105 C 
BRANCH  12  13
HETATM   13  C           1     -23.207  -2.860 -13.199  0.00  0.00     0.215 C 
HETATM   14  O           1     -24.414  -2.877 -13.154  0.00  0.00    -0.274 OA
HETATM   15  N           1     -22.564  -3.053 -14.392  0.00  0.00    -0.370 N 
HETATM   16  H           1     -21.553  -3.038 -14.430  0.00  0.00     0.159 HD
HETATM   17  H           1     -23.100  -3.210 -15.236  0.00  0.00     0.159 HD
ENDBRANCH  12  13
ENDBRANCH  11  12
ENDBRANCH   1  11
BRANCH   1  18
HETATM   18  C           1     -24.273  -3.800  -9.743  0.00  0.00     0.196 C 
HETATM   19  O           1     -24.927  -2.757  -9.525  0.00  0.00    -0.646 OA
HETATM   20  O           1     -24.868  -4.878  -9.953  0.00  0.00    -0.646 OA
ENDBRANCH   1  18
TORSDOF 7
ENDMDL
MODEL 4
REMARK VINA RESULT:      -6.0      8.586     10.518
REMARK  7 active torsions:
REMARK  status: ('A' for Active; 'I' for Inactive)
REMARK       I    between atoms: C_1  and  N_4 
REMARK    1  A    between atoms: C_1  and  C_5 
REMARK    2  A    between atoms: C_2  and  C_10 
REMARK    3  A    between atoms: C_2  and  N_12 
REMARK    4  A    between atoms: N_3  and  C_7 
REMARK       I    between atoms: N_3  and  C_10 
REMARK    5  A    between atoms: C_5  and  C_6 
REMARK    6  A    between atoms: C_6  and  C_7 
REMARK    7  A    between atoms: C_7  and  C_11 
ROOT
HETATM    1  C           1     -29.951  -6.977 -17.475  0.00  0.00     0.186 C 
ENDROOT
BRANCH   1   2
HETATM    2  N           1     -28.507  -7.084 -17.383  0.00  0.00    -0.345 N 
HETATM    3  C           1     -27.848  -6.538 -16.314  0.00  0.00     0.243 C 
HETATM    4  O           1     -28.469  -5.966 -15.449  0.00  0.00    -0.272 OA
HETATM    5  H           1     -27.988  -7.562 -18.107  0.00  0.00     0.163 HD
BRANCH   3   6
HETATM    6  C           1     -26.346  -6.648 -16.217  0.00  0.00     0.332 C 
BRANCH   6   7
HETATM    7  N           1     -25.759  -6.707 -17.596  0.00  0.00    -0.071 N 
HETATM    8  H           1     -25.209  -5.838 -17.779  0.00  0.00     0.274 HD
HETATM    9  H           1     -25.130  -7.538 -17.670  0.00  0.00     0.274 HD
HETATM   10  H           1     -26.528  -6.787 -18.299  0.00  0.00     0.274 HD
ENDBRANCH   6   7
ENDBRANCH   3   6
ENDBRANCH   1   2
BRANCH   1  11
HETATM   11  C           1     -30.333  -5.539 -17.795  0.00  0.00     0.045 C 
BRANCH  11  12
HETATM   12  C           1     -31.481  -5.105 -16.893  0.00  0.00     0.105 C 
BRANCH  12  13
HETATM   13  C           1     -31.959  -3.735 -17.308  0.00  0.00     0.215 C 
HETATM   14  O           1     -31.159  -2.890 -17.633  0.00  0.00    -0.274 OA
HETATM   15  N           1     -33.298  -3.450 -17.316  0.00  0.00    -0.370 N 
HETATM   16  H           1     -33.967  -4.158 -17.044  0.00  0.00     0.159 HD
HETATM   17  H           1     -33.617  -2.531 -17.594  0.00  0.00     0.159 HD
ENDBRANCH  12  13
ENDBRANCH  11  12
ENDBRANCH   1  11
BRANCH   1  18
HETATM   18  C           1     -30.452  -7.887 -18.571  0.00  0.00     0.196 C 
HETATM   19  O           1     -29.663  -8.668 -19.145  0.00  0.00    -0.646 OA
HETATM   20  O           1     -31.656  -7.859 -18.903  0.00  0.00    -0.646 OA
ENDBRANCH   1  18
TORSDOF 7
ENDMDL
MODEL 5
REMARK VINA RESULT:      -5.8      7.197      8.749
REMARK  7 active torsions:
REMARK  status: ('A' for Active; 'I' for Inactive)
REMARK       I    between atoms: C_1  and  N_4 
REMARK    1  A    between atoms: C_1  and  C_5 
REMARK    2  A    between atoms: C_2  and  C_10 
REMARK    3  A    between atoms: C_2  and  N_12 
REMARK    4  A    between atoms: N_3  and  C_7 
REMARK       I    between atoms: N_3  and  C_10 
REMARK    5  A    between atoms: C_5  and  C_6 
REMARK    6  A    between atoms: C_6  and  C_7 
REMARK    7  A    between atoms: C_7  and  C_11 
ROOT
HETATM    1  C           1     -26.720  -6.262 -16.591  0.00  0.00     0.186 C 
ENDROOT
BRANCH   1   2
HETATM    2  N           1     -26.368  -6.673 -17.937  0.00  0.00    -0.345 N 
HETATM    3  C           1     -27.102  -6.225 -19.002  0.00  0.00     0.243 C 
HETATM    4  O           1     -28.043  -5.490 -18.822  0.00  0.00    -0.272 OA
HETATM    5  H           1     -25.580  -7.289 -18.088  0.00  0.00     0.163 HD
BRANCH   3   6
HETATM    6  C           1     -26.737  -6.652 -20.402  0.00  0.00     0.332 C 
BRANCH   6   7
HETATM    7  N           1     -27.145  -8.080 -20.614  0.00  0.00    -0.071 N 
HETATM    8  H           1     -28.147  -8.200 -20.342  0.00  0.00     0.274 HD
HETATM    9  H           1     -27.025  -8.331 -21.621  0.00  0.00     0.274 HD
HETATM   10  H           1     -26.547  -8.703 -20.025  0.00  0.00     0.274 HD
ENDBRANCH   6   7
ENDBRANCH   3   6
ENDBRANCH   1   2
BRANCH   1  11
HETATM   11  C           1     -27.850  -7.141 -16.072  0.00  0.00     0.045 C 
BRANCH  11  12
HETATM   12  C           1     -28.924  -6.267 -15.438  0.00  0.00     0.105 C 
BRANCH  12  13
HETATM   13  C           1     -30.060  -6.077 -16.412  0.00  0.00     0.215 C 
HETATM   14  O           1     -30.732  -5.075 -16.368  0.00  0.00    -0.274 OA
HETATM   15  N           1     -30.330  -7.041 -17.346  0.00  0.00    -0.370 N 
HETATM   16  H           1     -29.768  -7.882 -17.383  0.00  0.00     0.159 HD
HETATM   17  H           1     -31.092  -6.914 -17.999  0.00  0.00     0.159 HD
ENDBRANCH  12  13
ENDBRANCH  11  12
ENDBRANCH   1  11
BRANCH   1  18
HETATM   18  C           1     -25.517  -6.406 -15.691  0.00  0.00     0.196 C 
HETATM   19  O           1     -25.098  -7.544 -15.384  0.00  0.00    -0.646 OA
HETATM   20  O           1     -24.939  -5.388 -15.253  0.00  0.00    -0.646 OA
ENDBRANCH   1  18
TORSDOF 7
ENDMDL
MODEL 6
REMARK VINA RESULT:      -5.5      2.515      6.616
REMARK  7 active torsions:
REMARK  status: ('A' for Active; 'I' for Inactive)
REMARK       I    between atoms: C_1  and  N_4 
REMARK    1  A    between atoms: C_1  and  C_5 
REMARK    2  A    between atoms: C_2  and  C_10 
REMARK    3  A    between atoms: C_2  and  N_12 
REMARK    4  A    between atoms: N_3  and  C_7 
REMARK       I    between atoms: N_3  and  C_10 
REMARK    5  A    between atoms: C_5  and  C_6 
REMARK    6  A    between atoms: C_6  and  C_7 
REMARK    7  A    between atoms: C_7  and  C_11 
ROOT
HETATM    1  C           1     -21.675  -4.553  -9.252  0.00  0.00     0.186 C 
ENDROOT
BRANCH   1   2
HETATM    2  N           1     -21.160  -4.195  -7.944  0.00  0.00    -0.345 N 
HETATM    3  C           1     -20.735  -5.174  -7.086  0.00  0.00     0.243 C 
HETATM    4  O           1     -20.791  -6.334  -7.416  0.00  0.00    -0.272 OA
HETATM    5  H           1     -21.113  -3.223  -7.667  0.00  0.00     0.163 HD
BRANCH   3   6
HETATM    6  C           1     -20.200  -4.802  -5.725  0.00  0.00     0.332 C 
BRANCH   6   7
HETATM    7  N           1     -20.938  -5.570  -4.669  0.00  0.00    -0.071 N 
HETATM    8  H           1     -20.256  -6.104  -4.084  0.00  0.00     0.274 HD
HETATM    9  H           1     -21.469  -4.905  -4.063  0.00  0.00     0.274 HD
HETATM   10  H           1     -21.602  -6.236  -5.124  0.00  0.00     0.274 HD
ENDBRANCH   6   7
ENDBRANCH   3   6
ENDBRANCH   1   2
BRANCH   1  11
HETATM   11  C           1     -22.937  -3.749  -9.537  0.00  0.00     0.045 C 
BRANCH  11  12
HETATM   12  C           1     -23.853  -4.549 -10.453  0.00  0.00     0.105 C 
BRANCH  12  13
HETATM   13  C           1     -24.091  -3.777 -11.727  0.00  0.00     0.215 C 
HETATM   14  O           1     -25.040  -3.034 -11.815  0.00  0.00    -0.274 OA
HETATM   15  N           1     -23.233  -3.919 -12.785  0.00  0.00    -0.370 N 
HETATM   16  H           1     -22.438  -4.541 -12.711  0.00  0.00     0.159 HD
HETATM   17  H           1     -23.393  -3.401 -13.639  0.00  0.00     0.159 HD
ENDBRANCH  12  13
ENDBRANCH  11  12
ENDBRANCH   1  11
BRANCH   1  18
HETATM   18  C           1     -20.635  -4.247 -10.303  0.00  0.00     0.196 C 
HETATM   19  O           1     -19.680  -5.033 -10.484  0.00  0.00    -0.646 OA
HETATM   20  O           1     -20.729  -3.208 -10.991  0.00  0.00    -0.646 OA
ENDBRANCH   1  18
TORSDOF 7
ENDMDL
MODEL 7
REMARK VINA RESULT:      -5.5      3.217      7.170
REMARK  7 active torsions:
REMARK  status: ('A' for Active; 'I' for Inactive)
REMARK       I    between atoms: C_1  and  N_4 
REMARK    1  A    between atoms: C_1  and  C_5 
REMARK    2  A    between atoms: C_2  and  C_10 
REMARK    3  A    between atoms: C_2  and  N_12 
REMARK    4  A    between atoms: N_3  and  C_7 
REMARK       I    between atoms: N_3  and  C_10 
REMARK    5  A    between atoms: C_5  and  C_6 
REMARK    6  A    between atoms: C_6  and  C_7 
REMARK    7  A    between atoms: C_7  and  C_11 
ROOT
HETATM    1  C           1     -21.670  -4.821  -8.330  0.00  0.00     0.186 C 
ENDROOT
BRANCH   1   2
HETATM    2  N           1     -21.545  -4.779  -6.886  0.00  0.00    -0.345 N 
HETATM    3  C           1     -21.193  -5.909  -6.197  0.00  0.00     0.243 C 
HETATM    4  O           1     -20.988  -6.940  -6.791  0.00  0.00    -0.272 OA
HETATM    5  H           1     -21.717  -3.915  -6.388  0.00  0.00     0.163 HD
BRANCH   3   6
HETATM    6  C           1     -21.064  -5.866  -4.694  0.00  0.00     0.332 C 
BRANCH   6   7
HETATM    7  N           1     -22.374  -6.239  -4.067  0.00  0.00    -0.071 N 
HETATM    8  H           1     -23.055  -6.505  -4.814  0.00  0.00     0.274 HD
HETATM    9  H           1     -22.233  -7.048  -3.421  0.00  0.00     0.274 HD
HETATM   10  H           1     -22.746  -5.423  -3.530  0.00  0.00     0.274 HD
ENDBRANCH   6   7
ENDBRANCH   3   6
ENDBRANCH   1   2
BRANCH   1  11
HETATM   11  C           1     -22.789  -3.887  -8.769  0.00  0.00     0.045 C 
BRANCH  11  12
HETATM   12  C           1     -23.613  -4.558  -9.860  0.00  0.00     0.105 C 
BRANCH  12  13
HETATM   13  C           1     -24.518  -3.539 -10.508  0.00  0.00     0.215 C 
HETATM   14  O           1     -25.493  -3.137  -9.919  0.00  0.00    -0.274 OA
HETATM   15  N           1     -24.234  -3.069 -11.762  0.00  0.00    -0.370 N 
HETATM   16  H           1     -23.417  -3.406 -12.255  0.00  0.00     0.159 HD
HETATM   17  H           1     -24.841  -2.386 -12.196  0.00  0.00     0.159 HD
ENDBRANCH  12  13
ENDBRANCH  11  12
ENDBRANCH   1  11
BRANCH   1  18
HETATM   18  C           1     -20.370  -4.381  -8.960  0.00  0.00     0.196 C 
HETATM   19  O           1     -20.115  -4.687 -10.145  0.00  0.00    -0.646 OA
HETATM   20  O           1     -19.551  -3.711  -8.297  0.00  0.00    -0.646 OA
ENDBRANCH   1  18
TORSDOF 7
ENDMDL
MODEL 8
REMARK VINA RESULT:      -5.4      1.955      5.175
REMARK  7 active torsions:
REMARK  status: ('A' for Active; 'I' for Inactive)
REMARK       I    between atoms: C_1  and  N_4 
REMARK    1  A    between atoms: C_1  and  C_5 
REMARK    2  A    between atoms: C_2  and  C_10 
REMARK    3  A    between atoms: C_2  and  N_12 
REMARK    4  A    between atoms: N_3  and  C_7 
REMARK       I    between atoms: N_3  and  C_10 
REMARK    5  A    between atoms: C_5  and  C_6 
REMARK    6  A    between atoms: C_6  and  C_7 
REMARK    7  A    between atoms: C_7  and  C_11 
ROOT
HETATM    1  C           1     -22.048  -4.001 -11.723  0.00  0.00     0.186 C 
ENDROOT
BRANCH   1   2
HETATM    2  N           1     -22.948  -3.298 -10.828  0.00  0.00    -0.345 N 
HETATM    3  C           1     -23.908  -3.990 -10.141  0.00  0.00     0.243 C 
HETATM    4  O           1     -24.007  -5.186 -10.280  0.00  0.00    -0.272 OA
HETATM    5  H           1     -22.865  -2.296 -10.712  0.00  0.00     0.163 HD
BRANCH   3   6
HETATM    6  C           1     -24.845  -3.259  -9.211  0.00  0.00     0.332 C 
BRANCH   6   7
HETATM    7  N           1     -26.261  -3.471  -9.658  0.00  0.00    -0.071 N 
HETATM    8  H           1     -26.663  -4.299  -9.165  0.00  0.00     0.274 HD
HETATM    9  H           1     -26.828  -2.623  -9.432  0.00  0.00     0.274 HD
HETATM   10  H           1     -26.278  -3.637 -10.690  0.00  0.00     0.274 HD
ENDBRANCH   6   7
ENDBRANCH   3   6
ENDBRANCH   1   2
BRANCH   1  11
HETATM   11  C           1     -22.164  -3.414 -13.123  0.00  0.00     0.045 C 
BRANCH  11  12
HETATM   12  C           1     -23.457  -2.616 -13.233  0.00  0.00     0.105 C 
BRANCH  12  13
HETATM   13  C           1     -23.459  -1.837 -14.525  0.00  0.00     0.215 C 
HETATM   14  O           1     -22.774  -2.201 -15.451  0.00  0.00    -0.274 OA
HETATM   15  N           1     -24.236  -0.716 -14.648  0.00  0.00    -0.370 N 
HETATM   16  H           1     -24.810  -0.411 -13.873  0.00  0.00     0.159 HD
HETATM   17  H           1     -24.237  -0.194 -15.515  0.00  0.00     0.159 HD
ENDBRANCH  12  13
ENDBRANCH  11  12
ENDBRANCH   1  11
BRANCH   1  18
HETATM   18  C           1     -20.629  -3.848 -11.229  0.00  0.00     0.196 C 
HETATM   19  O           1     -19.998  -4.848 -10.824  0.00  0.00    -0.646 OA
HETATM   20  O           1     -20.087  -2.723 -11.227  0.00  0.00    -0.646 OA
ENDBRANCH   1  18
TORSDOF 7
ENDMDL
MODEL 9
REMARK VINA RESULT:      -5.3      8.679      9.855
REMARK  7 active torsions:
REMARK  status: ('A' for Active; 'I' for Inactive)
REMARK       I    between atoms: C_1  and  N_4 
REMARK    1  A    between atoms: C_1  and  C_5 
REMARK    2  A    between atoms: C_2  and  C_10 
REMARK    3  A    between atoms: C_2  and  N_12 
REMARK    4  A    between atoms: N_3  and  C_7 
REMARK       I    between atoms: N_3  and  C_10 
REMARK    5  A    between atoms: C_5  and  C_6 
REMARK    6  A    between atoms: C_6  and  C_7 
REMARK    7  A    between atoms: C_7  and  C_11 
ROOT
HETATM    1  C           1     -30.453  -6.259 -17.444  0.00  0.00     0.186 C 
ENDROOT
BRANCH   1   2
HETATM    2  N           1     -31.757  -5.873 -16.939  0.00  0.00    -0.345 N 
HETATM    3  C           1     -32.096  -4.549 -16.863  0.00  0.00     0.243 C 
HETATM    4  O           1     -31.309  -3.702 -17.215  0.00  0.00    -0.272 OA
HETATM    5  H           1     -32.416  -6.582 -16.644  0.00  0.00     0.163 HD
BRANCH   3   6
HETATM    6  C           1     -33.452  -4.146 -16.337  0.00  0.00     0.332 C 
BRANCH   6   7
HETATM    7  N           1     -33.462  -4.255 -14.841  0.00  0.00    -0.071 N 
HETATM    8  H           1     -34.435  -4.447 -14.511  0.00  0.00     0.274 HD
HETATM    9  H           1     -32.834  -5.037 -14.545  0.00  0.00     0.274 HD
HETATM   10  H           1     -33.123  -3.358 -14.425  0.00  0.00     0.274 HD
ENDBRANCH   6   7
ENDBRANCH   3   6
ENDBRANCH   1   2
BRANCH   1  11
HETATM   11  C           1     -29.511  -6.509 -16.275  0.00  0.00     0.045 C 
BRANCH  11  12
HETATM   12  C           1     -28.071  -6.325 -16.735  0.00  0.00     0.105 C 
BRANCH  12  13
HETATM   13  C           1     -27.149  -7.106 -15.832  0.00  0.00     0.215 C 
HETATM   14  O           1     -27.599  -7.718 -14.893  0.00  0.00    -0.274 OA
HETATM   15  N           1     -25.802  -7.123 -16.076  0.00  0.00    -0.370 N 
HETATM   16  H           1     -25.424  -6.611 -16.863  0.00  0.00     0.159 HD
HETATM   17  H           1     -25.184  -7.648 -15.470  0.00  0.00     0.159 HD
ENDBRANCH  12  13
ENDBRANCH  11  12
ENDBRANCH   1  11
BRANCH   1  18
HETATM   18  C           1     -30.586  -7.521 -18.263  0.00  0.00     0.196 C 
HETATM   19  O           1     -31.603  -7.706 -18.966  0.00  0.00    -0.646 OA
HETATM   20  O           1     -29.678  -8.380 -18.237  0.00  0.00    -0.646 OA
ENDBRANCH   1  18
TORSDOF 7
ENDMDL
