MODEL 1
REMARK VINA RESULT:      -7.6      0.000      0.000
REMARK  12 active torsions:
REMARK  status: ('A' for Active; 'I' for Inactive)
REMARK    1  A    between atoms: N_2  and  C_15 
REMARK    2  A    between atoms: O_7  and  P_8 
REMARK    3  A    between atoms: P_8  and  O_9 
REMARK    4  A    between atoms: O_9  and  C_10 
REMARK    5  A    between atoms: C_13  and  C_14 
REMARK    6  A    between atoms: C_14  and  C_15 
REMARK    7  A    between atoms: C_15  and  C_16 
REMARK       I    between atoms: C_16  and  N_17 
REMARK    8  A    between atoms: N_17  and  C_21 
REMARK    9  A    between atoms: C_20  and  C_21 
REMARK   10  A    between atoms: C_21  and  C_22 
REMARK   11  A    between atoms: C_22  and  C_23 
REMARK   12  A    between atoms: C_23  and  S_24 
ROOT
HETATM    1  C           1     -21.011  -4.925  -6.278  0.00  0.00     0.278 C 
ENDROOT
BRANCH   1   2
HETATM    2  N           1     -19.738  -4.446  -5.647  0.00  0.00    -0.066 N 
HETATM    3  H           1     -19.365  -3.631  -6.186  0.00  0.00     0.275 HD
HETATM    4  H           1     -19.925  -4.155  -4.661  0.00  0.00     0.275 HD
HETATM    5  H           1     -19.033  -5.218  -5.655  0.00  0.00     0.275 HD
ENDBRANCH   1   2
BRANCH   1   6
HETATM    6  C           1     -20.694  -5.624  -7.594  0.00  0.00     0.081 C 
BRANCH   6   7
HETATM    7  C           1     -21.239  -4.819  -8.731  0.00  0.00    -0.056 A 
HETATM    8  C           1     -22.561  -4.374  -8.701  0.00  0.00     0.010 A 
HETATM    9  C           1     -23.068  -3.624  -9.762  0.00  0.00     0.038 A 
HETATM   10  C           1     -22.255  -3.317 -10.852  0.00  0.00     0.081 A 
HETATM   11  C           1     -20.934  -3.762 -10.883  0.00  0.00     0.038 A 
HETATM   12  C           1     -20.425  -4.513  -9.822  0.00  0.00     0.010 A 
BRANCH  10  13
HETATM   13  O           1     -22.748  -2.588 -11.882  0.00  0.00    -0.247 OA
BRANCH  13  14
HETATM   14  P           1     -23.864  -3.271 -12.829  0.00  0.00     0.411 P 
HETATM   15  O           1     -23.700  -2.779 -14.215  0.00  0.00    -0.624 OA
HETATM   16  O           1     -25.213  -2.917 -12.335  0.00  0.00    -0.624 OA
BRANCH  14  17
HETATM   17  O           1     -23.685  -4.876 -12.803  0.00  0.00    -0.300 OA
HETATM   18  H           1     -23.850  -5.125 -11.910  0.00  0.00     0.223 HD
ENDBRANCH  14  17
ENDBRANCH  13  14
ENDBRANCH  10  13
ENDBRANCH   6   7
ENDBRANCH   1   6
BRANCH   1  19
HETATM   19  C           1     -21.700  -5.891  -5.347  0.00  0.00     0.249 C 
HETATM   20  O           1     -22.906  -5.979  -5.351  0.00  0.00    -0.271 OA
HETATM   21  N           1     -20.960  -6.670  -4.497  0.00  0.00    -0.345 N 
HETATM   22  H           1     -19.951  -6.597  -4.494  0.00  0.00     0.163 HD
BRANCH  21  23
HETATM   23  C           1     -21.623  -7.598  -3.602  0.00  0.00     0.186 C 
BRANCH  23  24
HETATM   24  C           1     -21.690  -7.000  -2.219  0.00  0.00     0.196 C 
HETATM   25  O           1     -22.294  -5.922  -2.032  0.00  0.00    -0.646 OA
HETATM   26  O           1     -21.141  -7.584  -1.259  0.00  0.00    -0.646 OA
ENDBRANCH  23  24
BRANCH  23  27
HETATM   27  C           1     -20.840  -8.904  -3.553  0.00  0.00     0.046 C 
BRANCH  27  28
HETATM   28  C           1     -20.249  -9.195  -4.926  0.00  0.00     0.076 C 
BRANCH  28  29
HETATM   29  S           1     -18.475  -9.540  -4.761  0.00  0.00    -0.173 SA
HETATM   30  C           1     -18.417  -9.417  -2.951  0.00  0.00     0.089 C 
ENDBRANCH  28  29
ENDBRANCH  27  28
ENDBRANCH  23  27
ENDBRANCH  21  23
ENDBRANCH   1  19
TORSDOF 12
ENDMDL
MODEL 2
REMARK VINA RESULT:      -7.0      1.315      1.764
REMARK  12 active torsions:
REMARK  status: ('A' for Active; 'I' for Inactive)
REMARK    1  A    between atoms: N_2  and  C_15 
REMARK    2  A    between atoms: O_7  and  P_8 
REMARK    3  A    between atoms: P_8  and  O_9 
REMARK    4  A    between atoms: O_9  and  C_10 
REMARK    5  A    between atoms: C_13  and  C_14 
REMARK    6  A    between atoms: C_14  and  C_15 
REMARK    7  A    between atoms: C_15  and  C_16 
REMARK       I    between atoms: C_16  and  N_17 
REMARK    8  A    between atoms: N_17  and  C_21 
REMARK    9  A    between atoms: C_20  and  C_21 
REMARK   10  A    between atoms: C_21  and  C_22 
REMARK   11  A    between atoms: C_22  and  C_23 
REMARK   12  A    between atoms: C_23  and  S_24 
ROOT
HETATM    1  C           1     -20.804  -5.653  -6.316  0.00  0.00     0.278 C 
ENDROOT
BRANCH   1   2
HETATM    2  N           1     -20.285  -4.685  -5.294  0.00  0.00    -0.066 N 
HETATM    3  H           1     -19.576  -4.057  -5.735  0.00  0.00     0.275 HD
HETATM    4  H           1     -21.077  -4.111  -4.925  0.00  0.00     0.275 HD
HETATM    5  H           1     -19.842  -5.212  -4.508  0.00  0.00     0.275 HD
ENDBRANCH   1   2
BRANCH   1   6
HETATM    6  C           1     -19.914  -5.611  -7.551  0.00  0.00     0.081 C 
BRANCH   6   7
HETATM    7  C           1     -20.619  -4.882  -8.651  0.00  0.00    -0.056 A 
HETATM    8  C           1     -21.907  -4.387  -8.446  0.00  0.00     0.010 A 
HETATM    9  C           1     -22.564  -3.707  -9.471  0.00  0.00     0.038 A 
HETATM   10  C           1     -21.935  -3.522 -10.702  0.00  0.00     0.081 A 
HETATM   11  C           1     -20.647  -4.018 -10.907  0.00  0.00     0.038 A 
HETATM   12  C           1     -19.989  -4.698  -9.882  0.00  0.00     0.010 A 
BRANCH  10  13
HETATM   13  O           1     -22.574  -2.862 -11.697  0.00  0.00    -0.247 OA
BRANCH  13  14
HETATM   14  P           1     -23.803  -3.606 -12.434  0.00  0.00     0.411 P 
HETATM   15  O           1     -25.079  -2.994 -12.000  0.00  0.00    -0.624 OA
HETATM   16  O           1     -23.796  -5.041 -12.077  0.00  0.00    -0.624 OA
BRANCH  14  17
HETATM   17  O           1     -23.648  -3.448 -14.034  0.00  0.00    -0.300 OA
HETATM   18  H           1     -24.321  -2.840 -14.285  0.00  0.00     0.223 HD
ENDBRANCH  14  17
ENDBRANCH  13  14
ENDBRANCH  10  13
ENDBRANCH   6   7
ENDBRANCH   1   6
BRANCH   1  19
HETATM   19  C           1     -20.798  -7.046  -5.737  0.00  0.00     0.249 C 
HETATM   20  O           1     -21.420  -7.929  -6.279  0.00  0.00    -0.271 OA
HETATM   21  N           1     -20.087  -7.311  -4.596  0.00  0.00    -0.345 N 
HETATM   22  H           1     -19.566  -6.572  -4.142  0.00  0.00     0.163 HD
BRANCH  21  23
HETATM   23  C           1     -20.082  -8.650  -4.040  0.00  0.00     0.186 C 
BRANCH  23  24
HETATM   24  C           1     -20.745  -8.633  -2.685  0.00  0.00     0.196 C 
HETATM   25  O           1     -20.249  -7.960  -1.755  0.00  0.00    -0.646 OA
HETATM   26  O           1     -21.790  -9.292  -2.492  0.00  0.00    -0.646 OA
ENDBRANCH  23  24
BRANCH  23  27
HETATM   27  C           1     -18.645  -9.135  -3.896  0.00  0.00     0.046 C 
BRANCH  27  28
HETATM   28  C           1     -18.642 -10.605  -3.497  0.00  0.00     0.076 C 
BRANCH  28  29
HETATM   29  S           1     -17.324 -10.901  -2.285  0.00  0.00    -0.173 SA
HETATM   30  C           1     -16.204  -9.607  -2.892  0.00  0.00     0.089 C 
ENDBRANCH  28  29
ENDBRANCH  27  28
ENDBRANCH  23  27
ENDBRANCH  21  23
ENDBRANCH   1  19
TORSDOF 12
ENDMDL
MODEL 3
REMARK VINA RESULT:      -7.0      4.260      9.416
REMARK  12 active torsions:
REMARK  status: ('A' for Active; 'I' for Inactive)
REMARK    1  A    between atoms: N_2  and  C_15 
REMARK    2  A    between atoms: O_7  and  P_8 
REMARK    3  A    between atoms: P_8  and  O_9 
REMARK    4  A    between atoms: O_9  and  C_10 
REMARK    5  A    between atoms: C_13  and  C_14 
REMARK    6  A    between atoms: C_14  and  C_15 
REMARK    7  A    between atoms: C_15  and  C_16 
REMARK       I    between atoms: C_16  and  N_17 
REMARK    8  A    between atoms: N_17  and  C_21 
REMARK    9  A    between atoms: C_20  and  C_21 
REMARK   10  A    between atoms: C_21  and  C_22 
REMARK   11  A    between atoms: C_22  and  C_23 
REMARK   12  A    between atoms: C_23  and  S_24 
ROOT
HETATM    1  C           1     -21.098  -5.399  -6.590  0.00  0.00     0.278 C 
ENDROOT
BRANCH   1   2
HETATM    2  N           1     -20.017  -4.792  -5.745  0.00  0.00    -0.066 N 
HETATM    3  H           1     -20.325  -4.769  -4.747  0.00  0.00     0.275 HD
HETATM    4  H           1     -19.147  -5.365  -5.828  0.00  0.00     0.275 HD
HETATM    5  H           1     -19.825  -3.818  -6.072  0.00  0.00     0.275 HD
ENDBRANCH   1   2
BRANCH   1   6
HETATM    6  C           1     -22.236  -5.870  -5.695  0.00  0.00     0.081 C 
BRANCH   6   7
HETATM    7  C           1     -21.692  -6.751  -4.615  0.00  0.00    -0.056 A 
HETATM    8  C           1     -21.224  -8.028  -4.926  0.00  0.00     0.010 A 
HETATM    9  C           1     -20.716  -8.849  -3.919  0.00  0.00     0.038 A 
HETATM   10  C           1     -20.675  -8.394  -2.602  0.00  0.00     0.081 A 
HETATM   11  C           1     -21.143  -7.118  -2.291  0.00  0.00     0.038 A 
HETATM   12  C           1     -21.651  -6.296  -3.297  0.00  0.00     0.010 A 
BRANCH  10  13
HETATM   13  O           1     -20.182  -9.192  -1.624  0.00  0.00    -0.247 OA
BRANCH  13  14
HETATM   14  P           1     -21.211  -9.763  -0.519  0.00  0.00     0.411 P 
HETATM   15  O           1     -22.552  -9.913  -1.127  0.00  0.00    -0.624 OA
HETATM   16  O           1     -21.286  -8.820   0.619  0.00  0.00    -0.624 OA
BRANCH  14  17
HETATM   17  O           1     -20.695 -11.201   0.007  0.00  0.00    -0.300 OA
HETATM   18  H           1     -20.534 -11.080   0.926  0.00  0.00     0.223 HD
ENDBRANCH  14  17
ENDBRANCH  13  14
ENDBRANCH  10  13
ENDBRANCH   6   7
ENDBRANCH   1   6
BRANCH   1  19
HETATM   19  C           1     -21.614  -4.368  -7.562  0.00  0.00     0.249 C 
HETATM   20  O           1     -21.499  -3.192  -7.313  0.00  0.00    -0.271 OA
HETATM   21  N           1     -22.214  -4.765  -8.728  0.00  0.00    -0.345 N 
HETATM   22  H           1     -22.310  -5.751  -8.937  0.00  0.00     0.163 HD
BRANCH  21  23
HETATM   23  C           1     -22.710  -3.774  -9.662  0.00  0.00     0.186 C 
BRANCH  23  24
HETATM   24  C           1     -24.219  -3.806  -9.673  0.00  0.00     0.196 C 
HETATM   25  O           1     -24.820  -4.881  -9.888  0.00  0.00    -0.646 OA
HETATM   26  O           1     -24.867  -2.757  -9.467  0.00  0.00    -0.646 OA
ENDBRANCH  23  24
BRANCH  23  27
HETATM   27  C           1     -22.186  -4.084 -11.059  0.00  0.00     0.046 C 
BRANCH  27  28
HETATM   28  C           1     -22.167  -2.807 -11.889  0.00  0.00     0.076 C 
BRANCH  28  29
HETATM   29  S           1     -23.680  -2.710 -12.886  0.00  0.00    -0.173 SA
HETATM   30  C           1     -22.860  -2.810 -14.502  0.00  0.00     0.089 C 
ENDBRANCH  28  29
ENDBRANCH  27  28
ENDBRANCH  23  27
ENDBRANCH  21  23
ENDBRANCH   1  19
TORSDOF 12
ENDMDL
MODEL 4
REMARK VINA RESULT:      -7.0      2.249      3.009
REMARK  12 active torsions:
REMARK  status: ('A' for Active; 'I' for Inactive)
REMARK    1  A    between atoms: N_2  and  C_15 
REMARK    2  A    between atoms: O_7  and  P_8 
REMARK    3  A    between atoms: P_8  and  O_9 
REMARK    4  A    between atoms: O_9  and  C_10 
REMARK    5  A    between atoms: C_13  and  C_14 
REMARK    6  A    between atoms: C_14  and  C_15 
REMARK    7  A    between atoms: C_15  and  C_16 
REMARK       I    between atoms: C_16  and  N_17 
REMARK    8  A    between atoms: N_17  and  C_21 
REMARK    9  A    between atoms: C_20  and  C_21 
REMARK   10  A    between atoms: C_21  and  C_22 
REMARK   11  A    between atoms: C_22  and  C_23 
REMARK   12  A    between atoms: C_23  and  S_24 
ROOT
HETATM    1  C           1     -21.435  -6.382  -5.568  0.00  0.00     0.278 C 
ENDROOT
BRANCH   1   2
HETATM    2  N           1     -22.208  -5.990  -4.344  0.00  0.00    -0.066 N 
HETATM    3  H           1     -21.697  -6.310  -3.490  0.00  0.00     0.275 HD
HETATM    4  H           1     -22.313  -4.951  -4.316  0.00  0.00     0.275 HD
HETATM    5  H           1     -23.153  -6.435  -4.370  0.00  0.00     0.275 HD
ENDBRANCH   1   2
BRANCH   1   6
HETATM    6  C           1     -20.554  -5.220  -6.006  0.00  0.00     0.081 C 
BRANCH   6   7
HETATM    7  C           1     -21.020  -4.712  -7.334  0.00  0.00    -0.056 A 
HETATM    8  C           1     -22.293  -4.156  -7.461  0.00  0.00     0.010 A 
HETATM    9  C           1     -22.727  -3.682  -8.699  0.00  0.00     0.038 A 
HETATM   10  C           1     -21.889  -3.765  -9.811  0.00  0.00     0.081 A 
HETATM   11  C           1     -20.617  -4.322  -9.684  0.00  0.00     0.038 A 
HETATM   12  C           1     -20.182  -4.796  -8.446  0.00  0.00     0.010 A 
BRANCH  10  13
HETATM   13  O           1     -22.312  -3.305 -11.013  0.00  0.00    -0.247 OA
BRANCH  13  14
HETATM   14  P           1     -23.660  -3.938 -11.636  0.00  0.00     0.411 P 
HETATM   15  O           1     -24.830  -3.157 -11.173  0.00  0.00    -0.624 OA
HETATM   16  O           1     -23.796  -5.343 -11.193  0.00  0.00    -0.624 OA
BRANCH  14  17
HETATM   17  O           1     -23.584  -3.888 -13.249  0.00  0.00    -0.300 OA
HETATM   18  H           1     -24.381  -3.464 -13.517  0.00  0.00     0.223 HD
ENDBRANCH  14  17
ENDBRANCH  13  14
ENDBRANCH  10  13
ENDBRANCH   6   7
ENDBRANCH   1   6
BRANCH   1  19
HETATM   19  C           1     -20.572  -7.579  -5.255  0.00  0.00     0.249 C 
HETATM   20  O           1     -19.635  -7.852  -5.968  0.00  0.00    -0.271 OA
HETATM   21  N           1     -20.849  -8.357  -4.162  0.00  0.00    -0.345 N 
HETATM   22  H           1     -21.634  -8.129  -3.565  0.00  0.00     0.163 HD
BRANCH  21  23
HETATM   23  C           1     -20.020  -9.508  -3.862  0.00  0.00     0.186 C 
BRANCH  23  24
HETATM   24  C           1     -20.812 -10.771  -4.089  0.00  0.00     0.196 C 
HETATM   25  O           1     -21.074 -11.526  -3.127  0.00  0.00    -0.646 OA
HETATM   26  O           1     -21.208 -11.063  -5.239  0.00  0.00    -0.646 OA
ENDBRANCH  23  24
BRANCH  23  27
HETATM   27  C           1     -19.570  -9.445  -2.408  0.00  0.00     0.046 C 
BRANCH  27  28
HETATM   28  C           1     -20.137  -8.192  -1.754  0.00  0.00     0.076 C 
BRANCH  28  29
HETATM   29  S           1     -21.363  -8.664  -0.502  0.00  0.00    -0.173 SA
HETATM   30  C           1     -22.421  -7.202  -0.699  0.00  0.00     0.089 C 
ENDBRANCH  28  29
ENDBRANCH  27  28
ENDBRANCH  23  27
ENDBRANCH  21  23
ENDBRANCH   1  19
TORSDOF 12
ENDMDL
MODEL 5
REMARK VINA RESULT:      -6.4      2.895      3.828
REMARK  12 active torsions:
REMARK  status: ('A' for Active; 'I' for Inactive)
REMARK    1  A    between atoms: N_2  and  C_15 
REMARK    2  A    between atoms: O_7  and  P_8 
REMARK    3  A    between atoms: P_8  and  O_9 
REMARK    4  A    between atoms: O_9  and  C_10 
REMARK    5  A    between atoms: C_13  and  C_14 
REMARK    6  A    between atoms: C_14  and  C_15 
REMARK    7  A    between atoms: C_15  and  C_16 
REMARK       I    between atoms: C_16  and  N_17 
REMARK    8  A    between atoms: N_17  and  C_21 
REMARK    9  A    between atoms: C_20  and  C_21 
REMARK   10  A    between atoms: C_21  and  C_22 
REMARK   11  A    between atoms: C_22  and  C_23 
REMARK   12  A    between atoms: C_23  and  S_24 
ROOT
HETATM    1  C           1     -21.654  -6.827  -5.132  0.00  0.00     0.278 C 
ENDROOT
BRANCH   1   2
HETATM    2  N           1     -22.132  -6.117  -3.900  0.00  0.00    -0.066 N 
HETATM    3  H           1     -22.728  -5.303  -4.175  0.00  0.00     0.275 HD
HETATM    4  H           1     -22.692  -6.776  -3.314  0.00  0.00     0.275 HD
HETATM    5  H           1     -21.310  -5.776  -3.353  0.00  0.00     0.275 HD
ENDBRANCH   1   2
BRANCH   1   6
HETATM    6  C           1     -20.517  -6.035  -5.764  0.00  0.00     0.081 C 
BRANCH   6   7
HETATM    7  C           1     -21.022  -5.313  -6.974  0.00  0.00    -0.056 A 
HETATM    8  C           1     -20.237  -5.243  -8.124  0.00  0.00     0.010 A 
HETATM    9  C           1     -20.708  -4.571  -9.251  0.00  0.00     0.038 A 
HETATM   10  C           1     -21.965  -3.968  -9.229  0.00  0.00     0.081 A 
HETATM   11  C           1     -22.751  -4.036  -8.079  0.00  0.00     0.038 A 
HETATM   12  C           1     -22.280  -4.709  -6.951  0.00  0.00     0.010 A 
BRANCH  10  13
HETATM   13  O           1     -22.423  -3.314 -10.324  0.00  0.00    -0.247 OA
BRANCH  13  14
HETATM   14  P           1     -23.700  -3.930 -11.097  0.00  0.00     0.411 P 
HETATM   15  O           1     -23.813  -5.373 -10.787  0.00  0.00    -0.624 OA
HETATM   16  O           1     -23.527  -3.750 -12.555  0.00  0.00    -0.624 OA
BRANCH  14  17
HETATM   17  O           1     -25.041  -3.169 -10.615  0.00  0.00    -0.300 OA
HETATM   18  H           1     -25.697  -3.411 -11.246  0.00  0.00     0.223 HD
ENDBRANCH  14  17
ENDBRANCH  13  14
ENDBRANCH  10  13
ENDBRANCH   6   7
ENDBRANCH   1   6
BRANCH   1  19
HETATM   19  C           1     -21.163  -8.203  -4.760  0.00  0.00     0.249 C 
HETATM   20  O           1     -20.992  -8.491  -3.599  0.00  0.00    -0.271 OA
HETATM   21  N           1     -20.911  -9.129  -5.738  0.00  0.00    -0.345 N 
HETATM   22  H           1     -21.054  -8.889  -6.710  0.00  0.00     0.163 HD
BRANCH  21  23
HETATM   23  C           1     -20.438 -10.452  -5.379  0.00  0.00     0.186 C 
BRANCH  23  24
HETATM   24  C           1     -18.935 -10.498  -5.500  0.00  0.00     0.196 C 
HETATM   25  O           1     -18.356  -9.813  -6.371  0.00  0.00    -0.646 OA
HETATM   26  O           1     -18.269 -11.222  -4.728  0.00  0.00    -0.646 OA
ENDBRANCH  23  24
BRANCH  23  27
HETATM   27  C           1     -21.054 -11.483  -6.317  0.00  0.00     0.046 C 
BRANCH  27  28
HETATM   28  C           1     -21.216 -12.807  -5.582  0.00  0.00     0.076 C 
BRANCH  28  29
HETATM   29  S           1     -22.920 -13.401  -5.773  0.00  0.00    -0.173 SA
HETATM   30  C           1     -22.918 -14.481  -4.313  0.00  0.00     0.089 C 
ENDBRANCH  28  29
ENDBRANCH  27  28
ENDBRANCH  23  27
ENDBRANCH  21  23
ENDBRANCH   1  19
TORSDOF 12
ENDMDL
MODEL 6
REMARK VINA RESULT:      -6.3      2.292      3.001
REMARK  12 active torsions:
REMARK  status: ('A' for Active; 'I' for Inactive)
REMARK    1  A    between atoms: N_2  and  C_15 
REMARK    2  A    between atoms: O_7  and  P_8 
REMARK    3  A    between atoms: P_8  and  O_9 
REMARK    4  A    between atoms: O_9  and  C_10 
REMARK    5  A    between atoms: C_13  and  C_14 
REMARK    6  A    between atoms: C_14  and  C_15 
REMARK    7  A    between atoms: C_15  and  C_16 
REMARK       I    between atoms: C_16  and  N_17 
REMARK    8  A    between atoms: N_17  and  C_21 
REMARK    9  A    between atoms: C_20  and  C_21 
REMARK   10  A    between atoms: C_21  and  C_22 
REMARK   11  A    between atoms: C_22  and  C_23 
REMARK   12  A    between atoms: C_23  and  S_24 
ROOT
HETATM    1  C           1     -21.210  -7.032  -5.427  0.00  0.00     0.278 C 
ENDROOT
BRANCH   1   2
HETATM    2  N           1     -21.642  -6.523  -4.084  0.00  0.00    -0.066 N 
HETATM    3  H           1     -21.043  -6.947  -3.340  0.00  0.00     0.275 HD
HETATM    4  H           1     -21.544  -5.483  -4.058  0.00  0.00     0.275 HD
HETATM    5  H           1     -22.640  -6.783  -3.917  0.00  0.00     0.275 HD
ENDBRANCH   1   2
BRANCH   1   6
HETATM    6  C           1     -20.181  -6.081  -6.023  0.00  0.00     0.081 C 
BRANCH   6   7
HETATM    7  C           1     -20.803  -5.310  -7.144  0.00  0.00    -0.056 A 
HETATM    8  C           1     -22.080  -4.769  -6.995  0.00  0.00     0.010 A 
HETATM    9  C           1     -22.660  -4.050  -8.039  0.00  0.00     0.038 A 
HETATM   10  C           1     -21.964  -3.871  -9.235  0.00  0.00     0.081 A 
HETATM   11  C           1     -20.687  -4.413  -9.385  0.00  0.00     0.038 A 
HETATM   12  C           1     -20.107  -5.132  -8.340  0.00  0.00     0.010 A 
BRANCH  10  13
HETATM   13  O           1     -22.528  -3.173 -10.249  0.00  0.00    -0.247 OA
BRANCH  13  14
HETATM   14  P           1     -23.703  -3.884 -11.099  0.00  0.00     0.411 P 
HETATM   15  O           1     -23.391  -3.793 -12.543  0.00  0.00    -0.624 OA
HETATM   16  O           1     -24.988  -3.203 -10.826  0.00  0.00    -0.624 OA
BRANCH  14  17
HETATM   17  O           1     -23.815  -5.437 -10.670  0.00  0.00    -0.300 OA
HETATM   18  H           1     -23.321  -5.905 -11.320  0.00  0.00     0.223 HD
ENDBRANCH  14  17
ENDBRANCH  13  14
ENDBRANCH  10  13
ENDBRANCH   6   7
ENDBRANCH   1   6
BRANCH   1  19
HETATM   19  C           1     -20.600  -8.403  -5.272  0.00  0.00     0.249 C 
HETATM   20  O           1     -21.060  -9.341  -5.878  0.00  0.00    -0.271 OA
HETATM   21  N           1     -19.524  -8.584  -4.444  0.00  0.00    -0.345 N 
HETATM   22  H           1     -19.138  -7.798  -3.937  0.00  0.00     0.163 HD
BRANCH  21  23
HETATM   23  C           1     -18.938  -9.902  -4.295  0.00  0.00     0.186 C 
BRANCH  23  24
HETATM   24  C           1     -19.467 -10.547  -3.038  0.00  0.00     0.196 C 
HETATM   25  O           1     -18.958 -10.270  -1.930  0.00  0.00    -0.646 OA
HETATM   26  O           1     -20.415 -11.359  -3.104  0.00  0.00    -0.646 OA
ENDBRANCH  23  24
BRANCH  23  27
HETATM   27  C           1     -17.422  -9.776  -4.201  0.00  0.00     0.046 C 
BRANCH  27  28
HETATM   28  C           1     -16.817  -9.861  -5.596  0.00  0.00     0.076 C 
BRANCH  28  29
HETATM   29  S           1     -17.000 -11.551  -6.234  0.00  0.00    -0.173 SA
HETATM   30  C           1     -15.250 -11.796  -6.648  0.00  0.00     0.089 C 
ENDBRANCH  28  29
ENDBRANCH  27  28
ENDBRANCH  23  27
ENDBRANCH  21  23
ENDBRANCH   1  19
TORSDOF 12
ENDMDL
MODEL 7
REMARK VINA RESULT:      -5.7      4.795      6.912
REMARK  12 active torsions:
REMARK  status: ('A' for Active; 'I' for Inactive)
REMARK    1  A    between atoms: N_2  and  C_15 
REMARK    2  A    between atoms: O_7  and  P_8 
REMARK    3  A    between atoms: P_8  and  O_9 
REMARK    4  A    between atoms: O_9  and  C_10 
REMARK    5  A    between atoms: C_13  and  C_14 
REMARK    6  A    between atoms: C_14  and  C_15 
REMARK    7  A    between atoms: C_15  and  C_16 
REMARK       I    between atoms: C_16  and  N_17 
REMARK    8  A    between atoms: N_17  and  C_21 
REMARK    9  A    between atoms: C_20  and  C_21 
REMARK   10  A    between atoms: C_21  and  C_22 
REMARK   11  A    between atoms: C_22  and  C_23 
REMARK   12  A    between atoms: C_23  and  S_24 
ROOT
HETATM    1  C           1     -20.424 -10.700  -2.086  0.00  0.00     0.278 C 
ENDROOT
BRANCH   1   2
HETATM    2  N           1     -21.175 -11.453  -1.029  0.00  0.00    -0.066 N 
HETATM    3  H           1     -20.944 -11.060  -0.088  0.00  0.00     0.275 HD
HETATM    4  H           1     -22.202 -11.363  -1.201  0.00  0.00     0.275 HD
HETATM    5  H           1     -20.904 -12.462  -1.061  0.00  0.00     0.275 HD
ENDBRANCH   1   2
BRANCH   1   6
HETATM    6  C           1     -20.216  -9.261  -1.633  0.00  0.00     0.081 C 
BRANCH   6   7
HETATM    7  C           1     -20.785  -8.327  -2.655  0.00  0.00    -0.056 A 
HETATM    8  C           1     -21.282  -7.084  -2.264  0.00  0.00     0.010 A 
HETATM    9  C           1     -21.812  -6.214  -3.217  0.00  0.00     0.038 A 
HETATM   10  C           1     -21.845  -6.587  -4.560  0.00  0.00     0.081 A 
HETATM   11  C           1     -21.349  -7.830  -4.951  0.00  0.00     0.038 A 
HETATM   12  C           1     -20.818  -8.701  -3.999  0.00  0.00     0.010 A 
BRANCH  10  13
HETATM   13  O           1     -22.360  -5.742  -5.485  0.00  0.00    -0.247 OA
BRANCH  13  14
HETATM   14  P           1     -21.344  -5.053  -6.534  0.00  0.00     0.411 P 
HETATM   15  O           1     -20.989  -6.030  -7.589  0.00  0.00    -0.624 OA
HETATM   16  O           1     -20.118  -4.625  -5.824  0.00  0.00    -0.624 OA
BRANCH  14  17
HETATM   17  O           1     -22.053  -3.768  -7.208  0.00  0.00    -0.300 OA
HETATM   18  H           1     -22.877  -3.683  -6.762  0.00  0.00     0.223 HD
ENDBRANCH  14  17
ENDBRANCH  13  14
ENDBRANCH  10  13
ENDBRANCH   6   7
ENDBRANCH   1   6
BRANCH   1  19
HETATM   19  C           1     -19.084 -11.355  -2.313  0.00  0.00     0.249 C 
HETATM   20  O           1     -19.002 -12.332  -3.020  0.00  0.00    -0.271 OA
HETATM   21  N           1     -17.961 -10.844  -1.719  0.00  0.00    -0.345 N 
HETATM   22  H           1     -18.030 -10.025  -1.128  0.00  0.00     0.163 HD
BRANCH  21  23
HETATM   23  C           1     -16.674 -11.474  -1.937  0.00  0.00     0.186 C 
BRANCH  23  24
HETATM   24  C           1     -16.248 -12.193  -0.681  0.00  0.00     0.196 C 
HETATM   25  O           1     -16.229 -13.443  -0.651  0.00  0.00    -0.646 OA
HETATM   26  O           1     -15.915 -11.538   0.331  0.00  0.00    -0.646 OA
ENDBRANCH  23  24
BRANCH  23  27
HETATM   27  C           1     -15.640 -10.412  -2.289  0.00  0.00     0.046 C 
BRANCH  27  28
HETATM   28  C           1     -16.131  -9.598  -3.479  0.00  0.00     0.076 C 
BRANCH  28  29
HETATM   29  S           1     -16.091 -10.627  -4.974  0.00  0.00    -0.173 SA
HETATM   30  C           1     -17.669 -10.045  -5.657  0.00  0.00     0.089 C 
ENDBRANCH  28  29
ENDBRANCH  27  28
ENDBRANCH  23  27
ENDBRANCH  21  23
ENDBRANCH   1  19
TORSDOF 12
ENDMDL
MODEL 8
REMARK VINA RESULT:      -5.5     11.611     13.311
REMARK  12 active torsions:
REMARK  status: ('A' for Active; 'I' for Inactive)
REMARK    1  A    between atoms: N_2  and  C_15 
REMARK    2  A    between atoms: O_7  and  P_8 
REMARK    3  A    between atoms: P_8  and  O_9 
REMARK    4  A    between atoms: O_9  and  C_10 
REMARK    5  A    between atoms: C_13  and  C_14 
REMARK    6  A    between atoms: C_14  and  C_15 
REMARK    7  A    between atoms: C_15  and  C_16 
REMARK       I    between atoms: C_16  and  N_17 
REMARK    8  A    between atoms: N_17  and  C_21 
REMARK    9  A    between atoms: C_20  and  C_21 
REMARK   10  A    between atoms: C_21  and  C_22 
REMARK   11  A    between atoms: C_22  and  C_23 
REMARK   12  A    between atoms: C_23  and  S_24 
ROOT
HETATM    1  C           1     -33.437  -5.156 -15.496  0.00  0.00     0.278 C 
ENDROOT
BRANCH   1   2
HETATM    2  N           1     -34.525  -5.487 -16.474  0.00  0.00    -0.066 N 
HETATM    3  H           1     -34.102  -5.733 -17.398  0.00  0.00     0.275 HD
HETATM    4  H           1     -35.079  -6.298 -16.118  0.00  0.00     0.275 HD
HETATM    5  H           1     -35.154  -4.660 -16.589  0.00  0.00     0.275 HD
ENDBRANCH   1   2
BRANCH   1   6
HETATM    6  C           1     -32.310  -4.429 -16.218  0.00  0.00     0.081 C 
BRANCH   6   7
HETATM    7  C           1     -31.047  -5.223 -16.101  0.00  0.00    -0.056 A 
HETATM    8  C           1     -30.269  -5.130 -14.947  0.00  0.00     0.010 A 
HETATM    9  C           1     -29.092  -5.870 -14.838  0.00  0.00     0.038 A 
HETATM   10  C           1     -28.692  -6.704 -15.881  0.00  0.00     0.081 A 
HETATM   11  C           1     -29.470  -6.797 -17.036  0.00  0.00     0.038 A 
HETATM   12  C           1     -30.647  -6.057 -17.146  0.00  0.00     0.010 A 
BRANCH  10  13
HETATM   13  O           1     -27.549  -7.423 -15.775  0.00  0.00    -0.247 OA
BRANCH  13  14
HETATM   14  P           1     -26.153  -6.682 -16.108  0.00  0.00     0.411 P 
HETATM   15  O           1     -25.708  -5.915 -14.923  0.00  0.00    -0.624 OA
HETATM   16  O           1     -26.344  -5.762 -17.251  0.00  0.00    -0.624 OA
BRANCH  14  17
HETATM   17  O           1     -25.035  -7.785 -16.487  0.00  0.00    -0.300 OA
HETATM   18  H           1     -25.511  -8.481 -16.905  0.00  0.00     0.223 HD
ENDBRANCH  14  17
ENDBRANCH  13  14
ENDBRANCH  10  13
ENDBRANCH   6   7
ENDBRANCH   1   6
BRANCH   1  19
HETATM   19  C           1     -33.992  -4.271 -14.408  0.00  0.00     0.249 C 
HETATM   20  O           1     -34.415  -3.173 -14.679  0.00  0.00    -0.271 OA
HETATM   21  N           1     -34.015  -4.712 -13.111  0.00  0.00    -0.345 N 
HETATM   22  H           1     -33.661  -5.632 -12.883  0.00  0.00     0.163 HD
BRANCH  21  23
HETATM   23  C           1     -34.548  -3.861 -12.065  0.00  0.00     0.186 C 
BRANCH  23  24
HETATM   24  C           1     -33.462  -2.941 -11.565  0.00  0.00     0.196 C 
HETATM   25  O           1     -32.279  -3.342 -11.509  0.00  0.00    -0.646 OA
HETATM   26  O           1     -33.745  -1.777 -11.206  0.00  0.00    -0.646 OA
ENDBRANCH  23  24
BRANCH  23  27
HETATM   27  C           1     -35.051  -4.724 -10.915  0.00  0.00     0.046 C 
BRANCH  27  28
HETATM   28  C           1     -34.270  -6.030 -10.878  0.00  0.00     0.076 C 
BRANCH  28  29
HETATM   29  S           1     -35.056  -7.174  -9.710  0.00  0.00    -0.173 SA
HETATM   30  C           1     -33.931  -8.567 -10.009  0.00  0.00     0.089 C 
ENDBRANCH  28  29
ENDBRANCH  27  28
ENDBRANCH  23  27
ENDBRANCH  21  23
ENDBRANCH   1  19
TORSDOF 12
ENDMDL
MODEL 9
REMARK VINA RESULT:      -5.5      4.555      6.358
REMARK  12 active torsions:
REMARK  status: ('A' for Active; 'I' for Inactive)
REMARK    1  A    between atoms: N_2  and  C_15 
REMARK    2  A    between atoms: O_7  and  P_8 
REMARK    3  A    between atoms: P_8  and  O_9 
REMARK    4  A    between atoms: O_9  and  C_10 
REMARK    5  A    between atoms: C_13  and  C_14 
REMARK    6  A    between atoms: C_14  and  C_15 
REMARK    7  A    between atoms: C_15  and  C_16 
REMARK       I    between atoms: C_16  and  N_17 
REMARK    8  A    between atoms: N_17  and  C_21 
REMARK    9  A    between atoms: C_20  and  C_21 
REMARK   10  A    between atoms: C_21  and  C_22 
REMARK   11  A    between atoms: C_22  and  C_23 
REMARK   12  A    between atoms: C_23  and  S_24 
ROOT
HETATM    1  C           1     -22.246  -8.496  -1.065  0.00  0.00     0.278 C 
ENDROOT
BRANCH   1   2
HETATM    2  N           1     -22.578  -8.071   0.335  0.00  0.00    -0.066 N 
HETATM    3  H           1     -23.492  -8.491   0.620  0.00  0.00     0.275 HD
HETATM    4  H           1     -21.828  -8.395   0.985  0.00  0.00     0.275 HD
HETATM    5  H           1     -22.648  -7.029   0.375  0.00  0.00     0.275 HD
ENDBRANCH   1   2
BRANCH   1   6
HETATM    6  C           1     -20.904  -7.900  -1.471  0.00  0.00     0.081 C 
BRANCH   6   7
HETATM    7  C           1     -20.934  -7.548  -2.925  0.00  0.00    -0.056 A 
HETATM    8  C           1     -20.098  -8.215  -3.821  0.00  0.00     0.010 A 
HETATM    9  C           1     -20.126  -7.887  -5.176  0.00  0.00     0.038 A 
HETATM   10  C           1     -20.989  -6.893  -5.637  0.00  0.00     0.081 A 
HETATM   11  C           1     -21.824  -6.226  -4.741  0.00  0.00     0.038 A 
HETATM   12  C           1     -21.797  -6.553  -3.385  0.00  0.00     0.010 A 
BRANCH  10  13
HETATM   13  O           1     -21.015  -6.575  -6.953  0.00  0.00    -0.247 OA
BRANCH  13  14
HETATM   14  P           1     -20.509  -5.105  -7.389  0.00  0.00     0.411 P 
HETATM   15  O           1     -19.377  -4.698  -6.525  0.00  0.00    -0.624 OA
HETATM   16  O           1     -21.618  -4.137  -7.239  0.00  0.00    -0.624 OA
BRANCH  14  17
HETATM   17  O           1     -20.025  -5.135  -8.930  0.00  0.00    -0.300 OA
HETATM   18  H           1     -20.036  -6.046  -9.170  0.00  0.00     0.223 HD
ENDBRANCH  14  17
ENDBRANCH  13  14
ENDBRANCH  10  13
ENDBRANCH   6   7
ENDBRANCH   1   6
BRANCH   1  19
HETATM   19  C           1     -22.168 -10.001  -1.126  0.00  0.00     0.249 C 
HETATM   20  O           1     -22.657 -10.594  -2.059  0.00  0.00    -0.271 OA
HETATM   21  N           1     -21.542 -10.697  -0.126  0.00  0.00    -0.345 N 
HETATM   22  H           1     -21.132 -10.201   0.655  0.00  0.00     0.163 HD
BRANCH  21  23
HETATM   23  C           1     -21.468 -12.144  -0.186  0.00  0.00     0.186 C 
BRANCH  23  24
HETATM   24  C           1     -22.421 -12.737   0.822  0.00  0.00     0.196 C 
HETATM   25  O           1     -23.650 -12.538   0.713  0.00  0.00    -0.646 OA
HETATM   26  O           1     -21.980 -13.428   1.767  0.00  0.00    -0.646 OA
ENDBRANCH  23  24
BRANCH  23  27
HETATM   27  C           1     -20.048 -12.593   0.134  0.00  0.00     0.046 C 
BRANCH  27  28
HETATM   28  C           1     -19.254 -12.729  -1.159  0.00  0.00     0.076 C 
BRANCH  28  29
HETATM   29  S           1     -20.330 -13.388  -2.464  0.00  0.00    -0.173 SA
HETATM   30  C           1     -19.933 -12.124  -3.705  0.00  0.00     0.089 C 
ENDBRANCH  28  29
ENDBRANCH  27  28
ENDBRANCH  23  27
ENDBRANCH  21  23
ENDBRANCH   1  19
TORSDOF 12
ENDMDL
