MODEL 1
REMARK VINA RESULT:      -6.1      0.000      0.000
REMARK  6 active torsions:
REMARK  status: ('A' for Active; 'I' for Inactive)
REMARK    1  A    between atoms: N_3  and  C_16 
REMARK       I    between atoms: N_3  and  C_4 
REMARK    2  A    between atoms: C_4  and  C_5 
REMARK    3  A    between atoms: C_5  and  N_7 
REMARK    4  A    between atoms: C_14  and  C_16 
REMARK    5  A    between atoms: C_16  and  C_18 
REMARK    6  A    between atoms: C_18  and  C_19 
ROOT
HETATM    1  C           1     -36.216  -1.029 -11.844  0.00  0.00     0.191 C 
ENDROOT
BRANCH   1   2
HETATM    2  N           1     -36.664  -0.004 -12.767  0.00  0.00    -0.344 N 
HETATM    3  C           1     -36.955  -0.331 -14.064  0.00  0.00     0.248 C 
HETATM    4  O           1     -38.075  -0.665 -14.367  0.00  0.00    -0.271 OA
HETATM    5  H           1     -36.761   0.953 -12.452  0.00  0.00     0.163 HD
BRANCH   3   6
HETATM    6  C           1     -35.874  -0.273 -15.117  0.00  0.00     0.270 C 
HETATM    7  C           1     -35.074   1.013 -14.953  0.00  0.00     0.050 C 
BRANCH   6   8
HETATM    8  N           1     -36.502  -0.301 -16.479  0.00  0.00    -0.067 N 
HETATM    9  H           1     -35.980  -0.967 -17.091  0.00  0.00     0.275 HD
HETATM   10  H           1     -37.497  -0.611 -16.397  0.00  0.00     0.275 HD
HETATM   11  H           1     -36.469   0.656 -16.897  0.00  0.00     0.275 HD
ENDBRANCH   6   8
ENDBRANCH   3   6
ENDBRANCH   1   2
BRANCH   1  12
HETATM   12  C           1     -36.653  -0.671 -10.444  0.00  0.00     0.197 C 
HETATM   13  O           1     -37.843  -0.359 -10.223  0.00  0.00    -0.646 OA
HETATM   14  O           1     -35.826  -0.686  -9.508  0.00  0.00    -0.646 OA
ENDBRANCH   1  12
BRANCH   1  15
HETATM   15  C           1     -34.697  -1.126 -11.892  0.00  0.00     0.094 C 
BRANCH  15  16
HETATM   16  C           1     -34.283  -2.560 -11.755  0.00  0.00     0.028 A 
HETATM   17  N           1     -33.823  -3.130 -10.598  0.00  0.00    -0.354 N 
HETATM   18  C           1     -33.576  -4.383 -10.902  0.00  0.00     0.180 A 
ATOM     19  HN          1     -33.698  -2.677  -9.692  1.00  0.00     0.166 HD
HETATM   20  N           1     -33.859  -4.644 -12.214  0.00  0.00    -0.360 N 
HETATM   21  H           1     -33.749  -5.567 -12.701  0.00  0.00     0.166 HD
HETATM   22  C           1     -34.315  -3.482 -12.774  0.00  0.00     0.114 A 
ENDBRANCH  15  16
ENDBRANCH   1  15
TORSDOF 6
ENDMDL
MODEL 2
REMARK VINA RESULT:      -5.9      1.823      4.930
REMARK  6 active torsions:
REMARK  status: ('A' for Active; 'I' for Inactive)
REMARK    1  A    between atoms: N_3  and  C_16 
REMARK       I    between atoms: N_3  and  C_4 
REMARK    2  A    between atoms: C_4  and  C_5 
REMARK    3  A    between atoms: C_5  and  N_7 
REMARK    4  A    between atoms: C_14  and  C_16 
REMARK    5  A    between atoms: C_16  and  C_18 
REMARK    6  A    between atoms: C_18  and  C_19 
ROOT
HETATM    1  C           1     -34.699  -1.411 -11.417  0.00  0.00     0.191 C 
ENDROOT
BRANCH   1   2
HETATM    2  N           1     -34.047  -2.491 -10.703  0.00  0.00    -0.344 N 
HETATM    3  C           1     -33.723  -3.648 -11.359  0.00  0.00     0.248 C 
HETATM    4  O           1     -32.646  -3.758 -11.895  0.00  0.00    -0.271 OA
HETATM    5  H           1     -33.831  -2.390  -9.719  0.00  0.00     0.163 HD
BRANCH   3   6
HETATM    6  C           1     -34.712  -4.788 -11.412  0.00  0.00     0.270 C 
HETATM    7  C           1     -34.300  -5.864 -10.416  0.00  0.00     0.050 C 
BRANCH   6   8
HETATM    8  N           1     -34.731  -5.368 -12.795  0.00  0.00    -0.067 N 
HETATM    9  H           1     -33.754  -5.446 -13.154  0.00  0.00     0.275 HD
HETATM   10  H           1     -35.169  -6.317 -12.767  0.00  0.00     0.275 HD
HETATM   11  H           1     -35.286  -4.746 -13.425  0.00  0.00     0.275 HD
ENDBRANCH   6   8
ENDBRANCH   3   6
ENDBRANCH   1   2
BRANCH   1  12
HETATM   12  C           1     -36.009  -1.082 -10.743  0.00  0.00     0.197 C 
HETATM   13  O           1     -36.918  -1.939 -10.694  0.00  0.00    -0.646 OA
HETATM   14  O           1     -36.185   0.046 -10.235  0.00  0.00    -0.646 OA
ENDBRANCH   1  12
BRANCH   1  15
HETATM   15  C           1     -34.962  -1.840 -12.855  0.00  0.00     0.094 C 
BRANCH  15  16
HETATM   16  C           1     -35.361  -0.646 -13.667  0.00  0.00     0.028 A 
HETATM   17  N           1     -34.506   0.350 -14.059  0.00  0.00    -0.354 N 
HETATM   18  C           1     -35.245   1.193 -14.743  0.00  0.00     0.180 A 
ATOM     19  HN          1     -33.508   0.423 -13.860  1.00  0.00     0.166 HD
HETATM   20  N           1     -36.546   0.778 -14.808  0.00  0.00    -0.360 N 
HETATM   21  H           1     -37.331   1.274 -15.296  0.00  0.00     0.166 HD
HETATM   22  C           1     -36.635  -0.402 -14.122  0.00  0.00     0.114 A 
ENDBRANCH  15  16
ENDBRANCH   1  15
TORSDOF 6
ENDMDL
MODEL 3
REMARK VINA RESULT:      -5.9      1.881      4.536
REMARK  6 active torsions:
REMARK  status: ('A' for Active; 'I' for Inactive)
REMARK    1  A    between atoms: N_3  and  C_16 
REMARK       I    between atoms: N_3  and  C_4 
REMARK    2  A    between atoms: C_4  and  C_5 
REMARK    3  A    between atoms: C_5  and  N_7 
REMARK    4  A    between atoms: C_14  and  C_16 
REMARK    5  A    between atoms: C_16  and  C_18 
REMARK    6  A    between atoms: C_18  and  C_19 
ROOT
HETATM    1  C           1     -36.128  -0.075 -10.825  0.00  0.00     0.191 C 
ENDROOT
BRANCH   1   2
HETATM    2  N           1     -35.662  -1.293 -10.191  0.00  0.00    -0.344 N 
HETATM    3  C           1     -34.676  -2.037 -10.781  0.00  0.00     0.248 C 
HETATM    4  O           1     -33.517  -1.819 -10.521  0.00  0.00    -0.271 OA
HETATM    5  H           1     -36.067  -1.593  -9.313  0.00  0.00     0.163 HD
BRANCH   3   6
HETATM    6  C           1     -35.038  -3.132 -11.756  0.00  0.00     0.270 C 
HETATM    7  C           1     -34.709  -4.487 -11.142  0.00  0.00     0.050 C 
BRANCH   6   8
HETATM    8  N           1     -34.253  -2.953 -13.021  0.00  0.00    -0.067 N 
HETATM    9  H           1     -34.853  -3.193 -13.842  0.00  0.00     0.275 HD
HETATM   10  H           1     -33.940  -1.958 -13.099  0.00  0.00     0.275 HD
HETATM   11  H           1     -33.418  -3.581 -13.005  0.00  0.00     0.275 HD
ENDBRANCH   6   8
ENDBRANCH   3   6
ENDBRANCH   1   2
BRANCH   1  12
HETATM   12  C           1     -36.915   0.741  -9.828  0.00  0.00     0.197 C 
HETATM   13  O           1     -38.073   1.121 -10.107  0.00  0.00    -0.646 OA
HETATM   14  O           1     -36.408   1.038  -8.725  0.00  0.00    -0.646 OA
ENDBRANCH   1  12
BRANCH   1  15
HETATM   15  C           1     -37.021  -0.428 -12.008  0.00  0.00     0.094 C 
BRANCH  15  16
HETATM   16  C           1     -36.412   0.104 -13.269  0.00  0.00     0.028 A 
HETATM   17  N           1     -37.078   0.238 -14.459  0.00  0.00    -0.354 N 
HETATM   18  C           1     -36.196   0.733 -15.296  0.00  0.00     0.180 A 
ATOM     19  HN          1     -38.052   0.004 -14.653  1.00  0.00     0.166 HD
HETATM   20  N           1     -34.985   0.924 -14.692  0.00  0.00    -0.360 N 
HETATM   21  H           1     -34.119   1.307 -15.145  0.00  0.00     0.166 HD
HETATM   22  C           1     -35.109   0.524 -13.389  0.00  0.00     0.114 A 
ENDBRANCH  15  16
ENDBRANCH   1  15
TORSDOF 6
ENDMDL
MODEL 4
REMARK VINA RESULT:      -5.5      1.494      4.674
REMARK  6 active torsions:
REMARK  status: ('A' for Active; 'I' for Inactive)
REMARK    1  A    between atoms: N_3  and  C_16 
REMARK       I    between atoms: N_3  and  C_4 
REMARK    2  A    between atoms: C_4  and  C_5 
REMARK    3  A    between atoms: C_5  and  N_7 
REMARK    4  A    between atoms: C_14  and  C_16 
REMARK    5  A    between atoms: C_16  and  C_18 
REMARK    6  A    between atoms: C_18  and  C_19 
ROOT
HETATM    1  C           1     -35.361  -0.792 -11.561  0.00  0.00     0.191 C 
ENDROOT
BRANCH   1   2
HETATM    2  N           1     -35.476  -2.143 -12.073  0.00  0.00    -0.344 N 
HETATM    3  C           1     -35.311  -3.211 -11.232  0.00  0.00     0.248 C 
HETATM    4  O           1     -36.261  -3.674 -10.649  0.00  0.00    -0.271 OA
HETATM    5  H           1     -35.679  -2.297 -13.053  0.00  0.00     0.163 HD
BRANCH   3   6
HETATM    6  C           1     -33.939  -3.809 -11.033  0.00  0.00     0.270 C 
HETATM    7  C           1     -33.223  -3.894 -12.375  0.00  0.00     0.050 C 
BRANCH   6   8
HETATM    8  N           1     -34.073  -5.184 -10.451  0.00  0.00    -0.067 N 
HETATM    9  H           1     -33.832  -5.896 -11.177  0.00  0.00     0.275 HD
HETATM   10  H           1     -33.423  -5.283  -9.638  0.00  0.00     0.275 HD
HETATM   11  H           1     -35.056  -5.332 -10.131  0.00  0.00     0.275 HD
ENDBRANCH   6   8
ENDBRANCH   3   6
ENDBRANCH   1   2
BRANCH   1  12
HETATM   12  C           1     -36.688  -0.355 -10.990  0.00  0.00     0.197 C 
HETATM   13  O           1     -36.742   0.628 -10.218  0.00  0.00    -0.646 OA
HETATM   14  O           1     -37.731  -0.975 -11.288  0.00  0.00    -0.646 OA
ENDBRANCH   1  12
BRANCH   1  15
HETATM   15  C           1     -34.961   0.147 -12.692  0.00  0.00     0.094 C 
BRANCH  15  16
HETATM   16  C           1     -35.886  -0.050 -13.854  0.00  0.00     0.028 A 
HETATM   17  N           1     -37.217   0.274 -13.853  0.00  0.00    -0.354 N 
HETATM   18  C           1     -37.655  -0.051 -15.047  0.00  0.00     0.180 A 
ATOM     19  HN          1     -37.754   0.682 -13.087  1.00  0.00     0.166 HD
HETATM   20  N           1     -36.656  -0.574 -15.820  0.00  0.00    -0.360 N 
HETATM   21  H           1     -36.749  -0.909 -16.811  0.00  0.00     0.166 HD
HETATM   22  C           1     -35.514  -0.578 -15.067  0.00  0.00     0.114 A 
ENDBRANCH  15  16
ENDBRANCH   1  15
TORSDOF 6
ENDMDL
MODEL 5
REMARK VINA RESULT:      -5.4     13.968     16.059
REMARK  6 active torsions:
REMARK  status: ('A' for Active; 'I' for Inactive)
REMARK    1  A    between atoms: N_3  and  C_16 
REMARK       I    between atoms: N_3  and  C_4 
REMARK    2  A    between atoms: C_4  and  C_5 
REMARK    3  A    between atoms: C_5  and  N_7 
REMARK    4  A    between atoms: C_14  and  C_16 
REMARK    5  A    between atoms: C_16  and  C_18 
REMARK    6  A    between atoms: C_18  and  C_19 
ROOT
HETATM    1  C           1     -21.968  -4.929  -7.833  0.00  0.00     0.191 C 
ENDROOT
BRANCH   1   2
HETATM    2  N           1     -22.267  -4.863  -6.416  0.00  0.00    -0.344 N 
HETATM    3  C           1     -21.497  -5.554  -5.520  0.00  0.00     0.248 C 
HETATM    4  O           1     -20.525  -5.033  -5.030  0.00  0.00    -0.271 OA
HETATM    5  H           1     -23.047  -4.305  -6.089  0.00  0.00     0.163 HD
BRANCH   3   6
HETATM    6  C           1     -21.864  -6.970  -5.145  0.00  0.00     0.270 C 
HETATM    7  C           1     -21.501  -7.220  -3.687  0.00  0.00     0.050 C 
BRANCH   6   8
HETATM    8  N           1     -21.111  -7.929  -6.019  0.00  0.00    -0.067 N 
HETATM    9  H           1     -20.096  -7.901  -5.774  0.00  0.00     0.275 HD
HETATM   10  H           1     -21.478  -8.897  -5.870  0.00  0.00     0.275 HD
HETATM   11  H           1     -21.235  -7.659  -7.020  0.00  0.00     0.275 HD
ENDBRANCH   6   8
ENDBRANCH   3   6
ENDBRANCH   1   2
BRANCH   1  12
HETATM   12  C           1     -20.472  -4.908  -8.032  0.00  0.00     0.197 C 
HETATM   13  O           1     -19.868  -3.816  -8.113  0.00  0.00    -0.646 OA
HETATM   14  O           1     -19.838  -5.981  -8.117  0.00  0.00    -0.646 OA
ENDBRANCH   1  12
BRANCH   1  15
HETATM   15  C           1     -22.591  -3.731  -8.539  0.00  0.00     0.094 C 
BRANCH  15  16
HETATM   16  C           1     -22.560  -3.953 -10.020  0.00  0.00     0.028 A 
HETATM   17  N           1     -21.689  -3.338 -10.881  0.00  0.00    -0.354 N 
HETATM   18  C           1     -21.993  -3.803 -12.071  0.00  0.00     0.180 A 
ATOM     19  HN          1     -20.961  -2.663 -10.648  1.00  0.00     0.166 HD
HETATM   20  N           1     -23.027  -4.695 -12.011  0.00  0.00    -0.360 N 
HETATM   21  H           1     -23.454  -5.205 -12.823  0.00  0.00     0.166 HD
HETATM   22  C           1     -23.401  -4.802 -10.700  0.00  0.00     0.114 A 
ENDBRANCH  15  16
ENDBRANCH   1  15
TORSDOF 6
ENDMDL
MODEL 6
REMARK VINA RESULT:      -5.3     25.624     26.687
REMARK  6 active torsions:
REMARK  status: ('A' for Active; 'I' for Inactive)
REMARK    1  A    between atoms: N_3  and  C_16 
REMARK       I    between atoms: N_3  and  C_4 
REMARK    2  A    between atoms: C_4  and  C_5 
REMARK    3  A    between atoms: C_5  and  N_7 
REMARK    4  A    between atoms: C_14  and  C_16 
REMARK    5  A    between atoms: C_16  and  C_18 
REMARK    6  A    between atoms: C_18  and  C_19 
ROOT
HETATM    1  C           1     -11.289   6.203 -21.078  0.00  0.00     0.191 C 
ENDROOT
BRANCH   1   2
HETATM    2  N           1     -10.124   6.983 -20.710  0.00  0.00    -0.344 N 
HETATM    3  C           1     -10.275   8.160 -20.028  0.00  0.00     0.248 C 
HETATM    4  O           1     -10.281   8.163 -18.821  0.00  0.00    -0.271 OA
HETATM    5  H           1      -9.198   6.657 -20.958  0.00  0.00     0.163 HD
BRANCH   3   6
HETATM    6  C           1     -10.434   9.456 -20.786  0.00  0.00     0.270 C 
HETATM    7  C           1     -11.900   9.868 -20.785  0.00  0.00     0.050 C 
BRANCH   6   8
HETATM    8  N           1      -9.969   9.268 -22.200  0.00  0.00    -0.067 N 
HETATM    9  H           1      -9.486   8.346 -22.289  0.00  0.00     0.275 HD
HETATM   10  H           1     -10.792   9.294 -22.843  0.00  0.00     0.275 HD
HETATM   11  H           1      -9.305  10.034 -22.452  0.00  0.00     0.275 HD
ENDBRANCH   6   8
ENDBRANCH   3   6
ENDBRANCH   1   2
BRANCH   1  12
HETATM   12  C           1     -12.150   5.979 -19.859  0.00  0.00     0.197 C 
HETATM   13  O           1     -11.746   5.235 -18.938  0.00  0.00    -0.646 OA
HETATM   14  O           1     -13.264   6.536 -19.769  0.00  0.00    -0.646 OA
ENDBRANCH   1  12
BRANCH   1  15
HETATM   15  C           1     -10.843   4.859 -21.638  0.00  0.00     0.094 C 
BRANCH  15  16
HETATM   16  C           1     -12.037   3.973 -21.822  0.00  0.00     0.028 A 
HETATM   17  N           1     -12.401   2.969 -20.964  0.00  0.00    -0.354 N 
HETATM   18  C           1     -13.488   2.445 -21.483  0.00  0.00     0.180 A 
ATOM     19  HN          1     -11.927   2.687 -20.105  1.00  0.00     0.166 HD
HETATM   20  N           1     -13.840   3.074 -22.644  0.00  0.00    -0.360 N 
HETATM   21  H           1     -14.667   2.845 -23.248  0.00  0.00     0.166 HD
HETATM   22  C           1     -12.917   4.058 -22.874  0.00  0.00     0.114 A 
ENDBRANCH  15  16
ENDBRANCH   1  15
TORSDOF 6
ENDMDL
MODEL 7
REMARK VINA RESULT:      -5.0     13.575     15.891
REMARK  6 active torsions:
REMARK  status: ('A' for Active; 'I' for Inactive)
REMARK    1  A    between atoms: N_3  and  C_16 
REMARK       I    between atoms: N_3  and  C_4 
REMARK    2  A    between atoms: C_4  and  C_5 
REMARK    3  A    between atoms: C_5  and  N_7 
REMARK    4  A    between atoms: C_14  and  C_16 
REMARK    5  A    between atoms: C_16  and  C_18 
REMARK    6  A    between atoms: C_18  and  C_19 
ROOT
HETATM    1  C           1     -20.645  -4.600  -6.937  0.00  0.00     0.191 C 
ENDROOT
BRANCH   1   2
HETATM    2  N           1     -21.732  -3.709  -7.290  0.00  0.00    -0.344 N 
HETATM    3  C           1     -22.949  -4.222  -7.651  0.00  0.00     0.248 C 
HETATM    4  O           1     -23.792  -4.425  -6.811  0.00  0.00    -0.271 OA
HETATM    5  H           1     -21.591  -2.706  -7.270  0.00  0.00     0.163 HD
BRANCH   3   6
HETATM    6  C           1     -23.237  -4.532  -9.100  0.00  0.00     0.270 C 
HETATM    7  C           1     -22.566  -3.490  -9.986  0.00  0.00     0.050 C 
BRANCH   6   8
HETATM    8  N           1     -24.719  -4.505  -9.332  0.00  0.00    -0.067 N 
HETATM    9  H           1     -25.060  -3.519  -9.292  0.00  0.00     0.275 HD
HETATM   10  H           1     -24.931  -4.909 -10.272  0.00  0.00     0.275 HD
HETATM   11  H           1     -25.197  -5.069  -8.594  0.00  0.00     0.275 HD
ENDBRANCH   6   8
ENDBRANCH   3   6
ENDBRANCH   1   2
BRANCH   1  12
HETATM   12  C           1     -19.528  -4.454  -7.942  0.00  0.00     0.197 C 
HETATM   13  O           1     -19.745  -4.680  -9.153  0.00  0.00    -0.646 OA
HETATM   14  O           1     -18.388  -4.108  -7.565  0.00  0.00    -0.646 OA
ENDBRANCH   1  12
BRANCH   1  15
HETATM   15  C           1     -21.147  -6.038  -6.942  0.00  0.00     0.094 C 
BRANCH  15  16
HETATM   16  C           1     -21.201  -6.553  -5.536  0.00  0.00     0.028 A 
HETATM   17  N           1     -21.984  -6.024  -4.543  0.00  0.00    -0.354 N 
HETATM   18  C           1     -21.739  -6.757  -3.481  0.00  0.00     0.180 A 
ATOM     19  HN          1     -22.621  -5.230  -4.614  1.00  0.00     0.166 HD
HETATM   20  N           1     -20.828  -7.739  -3.751  0.00  0.00    -0.360 N 
HETATM   21  H           1     -20.467  -8.453  -3.072  0.00  0.00     0.166 HD
HETATM   22  C           1     -20.474  -7.621  -5.067  0.00  0.00     0.114 A 
ENDBRANCH  15  16
ENDBRANCH   1  15
TORSDOF 6
ENDMDL
MODEL 8
REMARK VINA RESULT:      -5.0     16.502     18.263
REMARK  6 active torsions:
REMARK  status: ('A' for Active; 'I' for Inactive)
REMARK    1  A    between atoms: N_3  and  C_16 
REMARK       I    between atoms: N_3  and  C_4 
REMARK    2  A    between atoms: C_4  and  C_5 
REMARK    3  A    between atoms: C_5  and  N_7 
REMARK    4  A    between atoms: C_14  and  C_16 
REMARK    5  A    between atoms: C_16  and  C_18 
REMARK    6  A    between atoms: C_18  and  C_19 
ROOT
HETATM    1  C           1     -20.317  -8.135  -4.629  0.00  0.00     0.191 C 
ENDROOT
BRANCH   1   2
HETATM    2  N           1     -20.944  -7.707  -5.864  0.00  0.00    -0.344 N 
HETATM    3  C           1     -20.534  -6.553  -6.476  0.00  0.00     0.248 C 
HETATM    4  O           1     -19.645  -6.585  -7.293  0.00  0.00    -0.271 OA
HETATM    5  H           1     -21.685  -8.262  -6.274  0.00  0.00     0.163 HD
BRANCH   3   6
HETATM    6  C           1     -21.194  -5.240  -6.130  0.00  0.00     0.270 C 
HETATM    7  C           1     -21.602  -4.524  -7.411  0.00  0.00     0.050 C 
BRANCH   6   8
HETATM    8  N           1     -20.230  -4.384  -5.364  0.00  0.00    -0.067 N 
HETATM    9  H           1     -20.734  -3.558  -4.969  0.00  0.00     0.275 HD
HETATM   10  H           1     -19.813  -4.941  -4.584  0.00  0.00     0.275 HD
HETATM   11  H           1     -19.471  -4.056  -6.003  0.00  0.00     0.275 HD
ENDBRANCH   6   8
ENDBRANCH   3   6
ENDBRANCH   1   2
BRANCH   1  12
HETATM   12  C           1     -19.240  -9.147  -4.936  0.00  0.00     0.197 C 
HETATM   13  O           1     -19.368  -9.919  -5.911  0.00  0.00    -0.646 OA
HETATM   14  O           1     -18.220  -9.213  -4.216  0.00  0.00    -0.646 OA
ENDBRANCH   1  12
BRANCH   1  15
HETATM   15  C           1     -21.364  -8.768  -3.721  0.00  0.00     0.094 C 
BRANCH  15  16
HETATM   16  C           1     -21.734  -7.802  -2.637  0.00  0.00     0.028 A 
HETATM   17  N           1     -21.982  -8.151  -1.336  0.00  0.00    -0.354 N 
HETATM   18  C           1     -22.267  -7.025  -0.723  0.00  0.00     0.180 A 
ATOM     19  HN          1     -21.952  -9.086  -0.929  1.00  0.00     0.166 HD
HETATM   20  N           1     -22.212  -5.962  -1.580  0.00  0.00    -0.360 N 
HETATM   21  H           1     -22.397  -4.958  -1.336  0.00  0.00     0.166 HD
HETATM   22  C           1     -21.870  -6.446  -2.814  0.00  0.00     0.114 A 
ENDBRANCH  15  16
ENDBRANCH   1  15
TORSDOF 6
ENDMDL
MODEL 9
REMARK VINA RESULT:      -5.0     16.908     18.475
REMARK  6 active torsions:
REMARK  status: ('A' for Active; 'I' for Inactive)
REMARK    1  A    between atoms: N_3  and  C_16 
REMARK       I    between atoms: N_3  and  C_4 
REMARK    2  A    between atoms: C_4  and  C_5 
REMARK    3  A    between atoms: C_5  and  N_7 
REMARK    4  A    between atoms: C_14  and  C_16 
REMARK    5  A    between atoms: C_16  and  C_18 
REMARK    6  A    between atoms: C_18  and  C_19 
ROOT
HETATM    1  C           1     -21.301  -7.448  -3.487  0.00  0.00     0.191 C 
ENDROOT
BRANCH   1   2
HETATM    2  N           1     -21.480  -8.887  -3.502  0.00  0.00    -0.344 N 
HETATM    3  C           1     -20.390  -9.712  -3.563  0.00  0.00     0.248 C 
HETATM    4  O           1     -19.861 -10.093  -2.547  0.00  0.00    -0.271 OA
HETATM    5  H           1     -22.412  -9.281  -3.467  0.00  0.00     0.163 HD
BRANCH   3   6
HETATM    6  C           1     -19.848 -10.147  -4.904  0.00  0.00     0.270 C 
HETATM    7  C           1     -18.707  -9.223  -5.314  0.00  0.00     0.050 C 
BRANCH   6   8
HETATM    8  N           1     -20.939 -10.078  -5.930  0.00  0.00    -0.067 N 
HETATM    9  H           1     -20.581 -10.429  -6.846  0.00  0.00     0.275 HD
HETATM   10  H           1     -21.744 -10.670  -5.622  0.00  0.00     0.275 HD
HETATM   11  H           1     -21.255  -9.088  -6.036  0.00  0.00     0.275 HD
ENDBRANCH   6   8
ENDBRANCH   3   6
ENDBRANCH   1   2
BRANCH   1  12
HETATM   12  C           1     -21.809  -6.891  -2.180  0.00  0.00     0.197 C 
HETATM   13  O           1     -22.551  -5.885  -2.176  0.00  0.00    -0.646 OA
HETATM   14  O           1     -21.487  -7.435  -1.101  0.00  0.00    -0.646 OA
ENDBRANCH   1  12
BRANCH   1  15
HETATM   15  C           1     -22.080  -6.828  -4.640  0.00  0.00     0.094 C 
BRANCH  15  16
HETATM   16  C           1     -21.128  -6.167  -5.588  0.00  0.00     0.028 A 
HETATM   17  N           1     -20.823  -6.636  -6.839  0.00  0.00    -0.354 N 
HETATM   18  C           1     -19.962  -5.775  -7.332  0.00  0.00     0.180 A 
ATOM     19  HN          1     -21.186  -7.476  -7.291  1.00  0.00     0.166 HD
HETATM   20  N           1     -19.700  -4.768  -6.447  0.00  0.00    -0.360 N 
HETATM   21  H           1     -19.049  -3.959  -6.602  0.00  0.00     0.166 HD
HETATM   22  C           1     -20.442  -5.006  -5.322  0.00  0.00     0.114 A 
ENDBRANCH  15  16
ENDBRANCH   1  15
TORSDOF 6
ENDMDL
