MODEL 1
REMARK VINA RESULT:      -5.5      0.000      0.000
REMARK  8 active torsions:
REMARK  status: ('A' for Active; 'I' for Inactive)
REMARK    1  A    between atoms: C_1  and  C_5 
REMARK    2  A    between atoms: C_5  and  C_12 
REMARK    3  A    between atoms: C_5  and  N_14 
REMARK    4  A    between atoms: O_6  and  C_12 
REMARK       I    between atoms: C_7  and  N_14 
REMARK    5  A    between atoms: C_7  and  C_10 
REMARK    6  A    between atoms: N_9  and  C_10 
REMARK    7  A    between atoms: C_10  and  C_11 
REMARK    8  A    between atoms: C_11  and  O_16 
ROOT
HETATM    1  C           1     -21.786  -4.770  -7.824  0.00  0.00     0.251 C 
HETATM    2  O           1     -21.904  -3.711  -7.255  0.00  0.00    -0.271 OA
HETATM    3  N           1     -22.127  -4.878  -9.146  0.00  0.00    -0.342 N 
HETATM    4  H           1     -22.028  -5.764  -9.623  0.00  0.00     0.163 HD
ENDROOT
BRANCH   1   5
HETATM    5  C           1     -21.263  -5.973  -7.080  0.00  0.00     0.297 C 
BRANCH   5   6
HETATM    6  N           1     -19.803  -6.150  -7.377  0.00  0.00    -0.064 N 
HETATM    7  H           1     -19.664  -6.215  -8.411  0.00  0.00     0.275 HD
HETATM    8  H           1     -19.270  -5.331  -7.006  0.00  0.00     0.275 HD
HETATM    9  H           1     -19.459  -7.025  -6.923  0.00  0.00     0.275 HD
ENDBRANCH   5   6
BRANCH   5  10
HETATM   10  C           1     -21.454  -5.768  -5.583  0.00  0.00     0.206 C 
BRANCH  10  11
HETATM   11  O           1     -22.808  -5.932  -5.258  0.00  0.00    -0.398 OA
HETATM   12  H           1     -23.069  -6.775  -5.590  0.00  0.00     0.209 HD
ENDBRANCH  10  11
ENDBRANCH   5  10
ENDBRANCH   1   5
BRANCH   3  13
HETATM   13  C           1     -22.629  -3.721  -9.862  0.00  0.00     0.214 C 
BRANCH  13  14
HETATM   14  C           1     -24.110  -3.885 -10.104  0.00  0.00     0.199 C 
HETATM   15  O           1     -24.655  -4.994  -9.914  0.00  0.00    -0.646 OA
HETATM   16  O           1     -24.791  -2.912 -10.492  0.00  0.00    -0.646 OA
ENDBRANCH  13  14
BRANCH  13  17
HETATM   17  C           1     -21.907  -3.598 -11.197  0.00  0.00     0.147 C 
HETATM   18  C           1     -20.475  -4.094 -11.047  0.00  0.00     0.042 C 
BRANCH  17  19
HETATM   19  O           1     -22.571  -4.372 -12.160  0.00  0.00    -0.393 OA
HETATM   20  H           1     -23.420  -4.577 -11.808  0.00  0.00     0.210 HD
ENDBRANCH  17  19
ENDBRANCH  13  17
ENDBRANCH   3  13
TORSDOF 8
ENDMDL
MODEL 2
REMARK VINA RESULT:      -5.1      1.935      4.996
REMARK  8 active torsions:
REMARK  status: ('A' for Active; 'I' for Inactive)
REMARK    1  A    between atoms: C_1  and  C_5 
REMARK    2  A    between atoms: C_5  and  C_12 
REMARK    3  A    between atoms: C_5  and  N_14 
REMARK    4  A    between atoms: O_6  and  C_12 
REMARK       I    between atoms: C_7  and  N_14 
REMARK    5  A    between atoms: C_7  and  C_10 
REMARK    6  A    between atoms: N_9  and  C_10 
REMARK    7  A    between atoms: C_10  and  C_11 
REMARK    8  A    between atoms: C_11  and  O_16 
ROOT
HETATM    1  C           1     -23.002  -4.070 -10.827  0.00  0.00     0.251 C 
HETATM    2  O           1     -23.780  -4.995 -10.802  0.00  0.00    -0.271 OA
HETATM    3  N           1     -22.082  -3.923  -9.823  0.00  0.00    -0.342 N 
HETATM    4  H           1     -21.431  -3.150  -9.843  0.00  0.00     0.163 HD
ENDROOT
BRANCH   1   5
HETATM    5  C           1     -23.043  -3.079 -11.963  0.00  0.00     0.297 C 
BRANCH   5   6
HETATM    6  N           1     -21.930  -3.374 -12.924  0.00  0.00    -0.064 N 
HETATM    7  H           1     -21.228  -3.998 -12.464  0.00  0.00     0.275 HD
HETATM    8  H           1     -22.316  -3.852 -13.771  0.00  0.00     0.275 HD
HETATM    9  H           1     -21.469  -2.481 -13.208  0.00  0.00     0.275 HD
ENDBRANCH   5   6
BRANCH   5  10
HETATM   10  C           1     -24.379  -3.189 -12.686  0.00  0.00     0.206 C 
BRANCH  10  11
HETATM   11  O           1     -24.273  -4.122 -13.726  0.00  0.00    -0.398 OA
HETATM   12  H           1     -23.696  -3.748 -14.371  0.00  0.00     0.209 HD
ENDBRANCH  10  11
ENDBRANCH   5  10
ENDBRANCH   1   5
BRANCH   3  13
HETATM   13  C           1     -22.043  -4.876  -8.730  0.00  0.00     0.214 C 
BRANCH  13  14
HETATM   14  C           1     -22.344  -4.166  -7.433  0.00  0.00     0.199 C 
HETATM   15  O           1     -21.678  -3.162  -7.102  0.00  0.00    -0.646 OA
HETATM   16  O           1     -23.261  -4.581  -6.693  0.00  0.00    -0.646 OA
ENDBRANCH  13  14
BRANCH  13  17
HETATM   17  C           1     -20.658  -5.505  -8.656  0.00  0.00     0.147 C 
HETATM   18  C           1     -19.687  -4.694  -9.504  0.00  0.00     0.042 C 
BRANCH  17  19
HETATM   19  O           1     -20.220  -5.513  -7.323  0.00  0.00    -0.393 OA
HETATM   20  H           1     -20.974  -5.336  -6.787  0.00  0.00     0.210 HD
ENDBRANCH  17  19
ENDBRANCH  13  17
ENDBRANCH   3  13
TORSDOF 8
ENDMDL
MODEL 3
REMARK VINA RESULT:      -5.0     17.242     18.827
REMARK  8 active torsions:
REMARK  status: ('A' for Active; 'I' for Inactive)
REMARK    1  A    between atoms: C_1  and  C_5 
REMARK    2  A    between atoms: C_5  and  C_12 
REMARK    3  A    between atoms: C_5  and  N_14 
REMARK    4  A    between atoms: O_6  and  C_12 
REMARK       I    between atoms: C_7  and  N_14 
REMARK    5  A    between atoms: C_7  and  C_10 
REMARK    6  A    between atoms: N_9  and  C_10 
REMARK    7  A    between atoms: C_10  and  C_11 
REMARK    8  A    between atoms: C_11  and  O_16 
ROOT
HETATM    1  C           1     -11.582   6.627 -20.683  0.00  0.00     0.251 C 
HETATM    2  O           1     -12.083   7.414 -21.451  0.00  0.00    -0.271 OA
HETATM    3  N           1     -12.020   5.329 -20.652  0.00  0.00    -0.342 N 
HETATM    4  H           1     -11.601   4.670 -20.009  0.00  0.00     0.163 HD
ENDROOT
BRANCH   1   5
HETATM    5  C           1     -10.476   7.072 -19.760  0.00  0.00     0.297 C 
BRANCH   5   6
HETATM    6  N           1      -9.148   6.816 -20.410  0.00  0.00    -0.064 N 
HETATM    7  H           1      -8.563   7.680 -20.358  0.00  0.00     0.275 HD
HETATM    8  H           1      -8.661   6.036 -19.913  0.00  0.00     0.275 HD
HETATM    9  H           1      -9.296   6.554 -21.410  0.00  0.00     0.275 HD
ENDBRANCH   5   6
BRANCH   5  10
HETATM   10  C           1     -10.621   8.561 -19.473  0.00  0.00     0.206 C 
BRANCH  10  11
HETATM   11  O           1     -10.228   8.823 -18.153  0.00  0.00    -0.398 OA
HETATM   12  H           1      -9.809   8.042 -17.832  0.00  0.00     0.209 HD
ENDBRANCH  10  11
ENDBRANCH   5  10
ENDBRANCH   1   5
BRANCH   3  13
HETATM   13  C           1     -13.083   4.901 -21.540  0.00  0.00     0.214 C 
BRANCH  13  14
HETATM   14  C           1     -14.399   4.942 -20.802  0.00  0.00     0.199 C 
HETATM   15  O           1     -14.451   4.613 -19.598  0.00  0.00    -0.646 OA
HETATM   16  O           1     -15.436   5.307 -21.396  0.00  0.00    -0.646 OA
ENDBRANCH  13  14
BRANCH  13  17
HETATM   17  C           1     -12.808   3.479 -22.011  0.00  0.00     0.147 C 
HETATM   18  C           1     -11.877   2.789 -21.023  0.00  0.00     0.042 C 
BRANCH  17  19
HETATM   19  O           1     -14.017   2.771 -22.087  0.00  0.00    -0.393 OA
HETATM   20  H           1     -14.663   3.283 -21.631  0.00  0.00     0.210 HD
ENDBRANCH  17  19
ENDBRANCH  13  17
ENDBRANCH   3  13
TORSDOF 8
ENDMDL
MODEL 4
REMARK VINA RESULT:      -4.8     17.455     18.984
REMARK  8 active torsions:
REMARK  status: ('A' for Active; 'I' for Inactive)
REMARK    1  A    between atoms: C_1  and  C_5 
REMARK    2  A    between atoms: C_5  and  C_12 
REMARK    3  A    between atoms: C_5  and  N_14 
REMARK    4  A    between atoms: O_6  and  C_12 
REMARK       I    between atoms: C_7  and  N_14 
REMARK    5  A    between atoms: C_7  and  C_10 
REMARK    6  A    between atoms: N_9  and  C_10 
REMARK    7  A    between atoms: C_10  and  C_11 
REMARK    8  A    between atoms: C_11  and  O_16 
ROOT
HETATM    1  C           1     -13.327   4.702 -21.005  0.00  0.00     0.251 C 
HETATM    2  O           1     -13.797   4.390 -19.936  0.00  0.00    -0.271 OA
HETATM    3  N           1     -12.389   5.697 -21.076  0.00  0.00    -0.342 N 
HETATM    4  H           1     -11.996   5.958 -21.970  0.00  0.00     0.163 HD
ENDROOT
BRANCH   1   5
HETATM    5  C           1     -13.773   3.995 -22.260  0.00  0.00     0.297 C 
BRANCH   5   6
HETATM    6  N           1     -13.928   2.530 -21.981  0.00  0.00    -0.064 N 
HETATM    7  H           1     -14.938   2.311 -21.817  0.00  0.00     0.275 HD
HETATM    8  H           1     -13.582   1.979 -22.800  0.00  0.00     0.275 HD
HETATM    9  H           1     -13.374   2.277 -21.132  0.00  0.00     0.275 HD
ENDBRANCH   5   6
BRANCH   5  10
HETATM   10  C           1     -15.108   4.568 -22.719  0.00  0.00     0.206 C 
BRANCH  10  11
HETATM   11  O           1     -15.423   5.695 -21.948  0.00  0.00    -0.398 OA
HETATM   12  H           1     -14.842   6.385 -22.222  0.00  0.00     0.209 HD
ENDBRANCH  10  11
ENDBRANCH   5  10
ENDBRANCH   1   5
BRANCH   3  13
HETATM   13  C           1     -11.959   6.376 -19.869  0.00  0.00     0.214 C 
BRANCH  13  14
HETATM   14  C           1     -12.283   7.846 -19.978  0.00  0.00     0.199 C 
HETATM   15  O           1     -11.991   8.622 -19.042  0.00  0.00    -0.646 OA
HETATM   16  O           1     -12.841   8.288 -21.005  0.00  0.00    -0.646 OA
ENDBRANCH  13  14
BRANCH  13  17
HETATM   17  C           1     -10.457   6.198 -19.694  0.00  0.00     0.147 C 
HETATM   18  C           1      -9.730   6.842 -20.867  0.00  0.00     0.042 C 
BRANCH  17  19
HETATM   19  O           1     -10.051   6.809 -18.499  0.00  0.00    -0.393 OA
HETATM   20  H           1      -9.515   6.185 -18.041  0.00  0.00     0.210 HD
ENDBRANCH  17  19
ENDBRANCH  13  17
ENDBRANCH   3  13
TORSDOF 8
ENDMDL
MODEL 5
REMARK VINA RESULT:      -4.8      2.595      5.161
REMARK  8 active torsions:
REMARK  status: ('A' for Active; 'I' for Inactive)
REMARK    1  A    between atoms: C_1  and  C_5 
REMARK    2  A    between atoms: C_5  and  C_12 
REMARK    3  A    between atoms: C_5  and  N_14 
REMARK    4  A    between atoms: O_6  and  C_12 
REMARK       I    between atoms: C_7  and  N_14 
REMARK    5  A    between atoms: C_7  and  C_10 
REMARK    6  A    between atoms: N_9  and  C_10 
REMARK    7  A    between atoms: C_10  and  C_11 
REMARK    8  A    between atoms: C_11  and  O_16 
ROOT
HETATM    1  C           1     -23.496  -4.378 -12.003  0.00  0.00     0.251 C 
HETATM    2  O           1     -23.508  -5.582 -11.905  0.00  0.00    -0.271 OA
HETATM    3  N           1     -22.776  -3.627 -11.112  0.00  0.00    -0.342 N 
HETATM    4  H           1     -22.766  -2.619 -11.193  0.00  0.00     0.163 HD
ENDROOT
BRANCH   1   5
HETATM    5  C           1     -24.274  -3.702 -13.104  0.00  0.00     0.297 C 
BRANCH   5   6
HETATM    6  N           1     -25.349  -2.845 -12.505  0.00  0.00    -0.064 N 
HETATM    7  H           1     -26.135  -2.744 -13.187  0.00  0.00     0.275 HD
HETATM    8  H           1     -25.705  -3.293 -11.630  0.00  0.00     0.275 HD
HETATM    9  H           1     -24.958  -1.903 -12.280  0.00  0.00     0.275 HD
ENDBRANCH   5   6
BRANCH   5  10
HETATM   10  C           1     -23.334  -2.832 -13.930  0.00  0.00     0.206 C 
BRANCH  10  11
HETATM   11  O           1     -22.021  -3.302 -13.793  0.00  0.00    -0.398 OA
HETATM   12  H           1     -21.707  -2.999 -12.957  0.00  0.00     0.209 HD
ENDBRANCH  10  11
ENDBRANCH   5  10
ENDBRANCH   1   5
BRANCH   3  13
HETATM   13  C           1     -22.028  -4.277 -10.054  0.00  0.00     0.214 C 
BRANCH  13  14
HETATM   14  C           1     -22.588  -3.861  -8.715  0.00  0.00     0.199 C 
HETATM   15  O           1     -21.817  -3.492  -7.803  0.00  0.00    -0.646 OA
HETATM   16  O           1     -23.822  -3.883  -8.521  0.00  0.00    -0.646 OA
ENDBRANCH  13  14
BRANCH  13  17
HETATM   17  C           1     -20.564  -3.867 -10.142  0.00  0.00     0.147 C 
HETATM   18  C           1     -19.694  -5.113 -10.245  0.00  0.00     0.042 C 
BRANCH  17  19
HETATM   19  O           1     -20.371  -3.066 -11.277  0.00  0.00    -0.393 OA
HETATM   20  H           1     -20.153  -2.203 -10.968  0.00  0.00     0.210 HD
ENDBRANCH  17  19
ENDBRANCH  13  17
ENDBRANCH   3  13
TORSDOF 8
ENDMDL
MODEL 6
REMARK VINA RESULT:      -4.8      2.041      2.959
REMARK  8 active torsions:
REMARK  status: ('A' for Active; 'I' for Inactive)
REMARK    1  A    between atoms: C_1  and  C_5 
REMARK    2  A    between atoms: C_5  and  C_12 
REMARK    3  A    between atoms: C_5  and  N_14 
REMARK    4  A    between atoms: O_6  and  C_12 
REMARK       I    between atoms: C_7  and  N_14 
REMARK    5  A    between atoms: C_7  and  C_10 
REMARK    6  A    between atoms: N_9  and  C_10 
REMARK    7  A    between atoms: C_10  and  C_11 
REMARK    8  A    between atoms: C_11  and  O_16 
ROOT
HETATM    1  C           1     -20.816  -4.273  -9.327  0.00  0.00     0.251 C 
HETATM    2  O           1     -20.154  -4.979 -10.050  0.00  0.00    -0.271 OA
HETATM    3  N           1     -22.030  -3.805  -9.755  0.00  0.00    -0.342 N 
HETATM    4  H           1     -22.585  -3.213  -9.150  0.00  0.00     0.163 HD
ENDROOT
BRANCH   1   5
HETATM    5  C           1     -20.308  -3.907  -7.955  0.00  0.00     0.297 C 
BRANCH   5   6
HETATM    6  N           1     -21.443  -3.390  -7.122  0.00  0.00    -0.064 N 
HETATM    7  H           1     -22.277  -4.009  -7.248  0.00  0.00     0.275 HD
HETATM    8  H           1     -21.163  -3.385  -6.115  0.00  0.00     0.275 HD
HETATM    9  H           1     -21.680  -2.419  -7.423  0.00  0.00     0.275 HD
ENDBRANCH   5   6
BRANCH   5  10
HETATM   10  C           1     -19.710  -5.141  -7.289  0.00  0.00     0.206 C 
BRANCH  10  11
HETATM   11  O           1     -20.591  -6.222  -7.433  0.00  0.00    -0.398 OA
HETATM   12  H           1     -21.462  -5.863  -7.469  0.00  0.00     0.209 HD
ENDBRANCH  10  11
ENDBRANCH   5  10
ENDBRANCH   1   5
BRANCH   3  13
HETATM   13  C           1     -22.520  -4.156 -11.074  0.00  0.00     0.214 C 
BRANCH  13  14
HETATM   14  C           1     -22.096  -3.099 -12.064  0.00  0.00     0.199 C 
HETATM   15  O           1     -22.398  -3.218 -13.272  0.00  0.00    -0.646 OA
HETATM   16  O           1     -21.445  -2.105 -11.677  0.00  0.00    -0.646 OA
ENDBRANCH  13  14
BRANCH  13  17
HETATM   17  C           1     -24.040  -4.244 -11.043  0.00  0.00     0.147 C 
HETATM   18  C           1     -24.503  -4.532  -9.621  0.00  0.00     0.042 C 
BRANCH  17  19
HETATM   19  O           1     -24.586  -3.028 -11.477  0.00  0.00    -0.393 OA
HETATM   20  H           1     -24.048  -2.343 -11.118  0.00  0.00     0.210 HD
ENDBRANCH  17  19
ENDBRANCH  13  17
ENDBRANCH   3  13
TORSDOF 8
ENDMDL
MODEL 7
REMARK VINA RESULT:      -4.8     17.241     19.405
REMARK  8 active torsions:
REMARK  status: ('A' for Active; 'I' for Inactive)
REMARK    1  A    between atoms: C_1  and  C_5 
REMARK    2  A    between atoms: C_5  and  C_12 
REMARK    3  A    between atoms: C_5  and  N_14 
REMARK    4  A    between atoms: O_6  and  C_12 
REMARK       I    between atoms: C_7  and  N_14 
REMARK    5  A    between atoms: C_7  and  C_10 
REMARK    6  A    between atoms: N_9  and  C_10 
REMARK    7  A    between atoms: C_10  and  C_11 
REMARK    8  A    between atoms: C_11  and  O_16 
ROOT
HETATM    1  C           1     -12.720   6.067 -21.406  0.00  0.00     0.251 C 
HETATM    2  O           1     -12.058   6.051 -22.417  0.00  0.00    -0.271 OA
HETATM    3  N           1     -12.243   6.694 -20.286  0.00  0.00    -0.342 N 
HETATM    4  H           1     -12.797   6.708 -19.440  0.00  0.00     0.163 HD
ENDROOT
BRANCH   1   5
HETATM    5  C           1     -14.072   5.398 -21.379  0.00  0.00     0.297 C 
BRANCH   5   6
HETATM    6  N           1     -14.114   4.313 -22.413  0.00  0.00    -0.064 N 
HETATM    7  H           1     -13.966   3.386 -21.952  0.00  0.00     0.275 HD
HETATM    8  H           1     -15.046   4.319 -22.888  0.00  0.00     0.275 HD
HETATM    9  H           1     -13.361   4.476 -23.119  0.00  0.00     0.275 HD
ENDBRANCH   5   6
BRANCH   5  10
HETATM   10  C           1     -14.313   4.796 -20.001  0.00  0.00     0.206 C 
BRANCH  10  11
HETATM   11  O           1     -15.451   5.380 -19.428  0.00  0.00    -0.398 OA
HETATM   12  H           1     -15.244   5.556 -18.525  0.00  0.00     0.209 HD
ENDBRANCH  10  11
ENDBRANCH   5  10
ENDBRANCH   1   5
BRANCH   3  13
HETATM   13  C           1     -10.944   7.337 -20.313  0.00  0.00     0.214 C 
BRANCH  13  14
HETATM   14  C           1      -9.924   6.435 -19.663  0.00  0.00     0.199 C 
HETATM   15  O           1      -8.803   6.275 -20.193  0.00  0.00    -0.646 OA
HETATM   16  O           1     -10.199   5.849 -18.594  0.00  0.00    -0.646 OA
ENDBRANCH  13  14
BRANCH  13  17
HETATM   17  C           1     -11.015   8.654 -19.552  0.00  0.00     0.147 C 
HETATM   18  C           1     -12.468   8.972 -19.221  0.00  0.00     0.042 C 
BRANCH  17  19
HETATM   19  O           1     -10.278   8.547 -18.364  0.00  0.00    -0.393 OA
HETATM   20  H           1     -10.381   9.363 -17.904  0.00  0.00     0.210 HD
ENDBRANCH  17  19
ENDBRANCH  13  17
ENDBRANCH   3  13
TORSDOF 8
ENDMDL
MODEL 8
REMARK VINA RESULT:      -4.6      1.926      5.367
REMARK  8 active torsions:
REMARK  status: ('A' for Active; 'I' for Inactive)
REMARK    1  A    between atoms: C_1  and  C_5 
REMARK    2  A    between atoms: C_5  and  C_12 
REMARK    3  A    between atoms: C_5  and  N_14 
REMARK    4  A    between atoms: O_6  and  C_12 
REMARK       I    between atoms: C_7  and  N_14 
REMARK    5  A    between atoms: C_7  and  C_10 
REMARK    6  A    between atoms: N_9  and  C_10 
REMARK    7  A    between atoms: C_10  and  C_11 
REMARK    8  A    between atoms: C_11  and  O_16 
ROOT
HETATM    1  C           1     -22.478  -4.206  -8.038  0.00  0.00     0.251 C 
HETATM    2  O           1     -21.973  -3.168  -7.683  0.00  0.00    -0.271 OA
HETATM    3  N           1     -22.201  -5.367  -7.367  0.00  0.00    -0.342 N 
HETATM    4  H           1     -22.623  -6.237  -7.664  0.00  0.00     0.163 HD
ENDROOT
BRANCH   1   5
HETATM    5  C           1     -23.415  -4.225  -9.220  0.00  0.00     0.297 C 
BRANCH   5   6
HETATM    6  N           1     -24.506  -3.217  -9.010  0.00  0.00    -0.064 N 
HETATM    7  H           1     -25.268  -3.378  -9.708  0.00  0.00     0.275 HD
HETATM    8  H           1     -24.894  -3.319  -8.044  0.00  0.00     0.275 HD
HETATM    9  H           1     -24.119  -2.255  -9.130  0.00  0.00     0.275 HD
ENDBRANCH   5   6
BRANCH   5  10
HETATM   10  C           1     -22.643  -3.878 -10.487  0.00  0.00     0.206 C 
BRANCH  10  11
HETATM   11  O           1     -21.304  -4.267 -10.339  0.00  0.00    -0.398 OA
HETATM   12  H           1     -20.780  -3.491 -10.447  0.00  0.00     0.209 HD
ENDBRANCH  10  11
ENDBRANCH   5  10
ENDBRANCH   1   5
BRANCH   3  13
HETATM   13  C           1     -21.301  -5.350  -6.230  0.00  0.00     0.214 C 
BRANCH  13  14
HETATM   14  C           1     -19.924  -5.782  -6.673  0.00  0.00     0.199 C 
HETATM   15  O           1     -19.631  -6.997  -6.702  0.00  0.00    -0.646 OA
HETATM   16  O           1     -19.079  -4.927  -7.012  0.00  0.00    -0.646 OA
ENDBRANCH  13  14
BRANCH  13  17
HETATM   17  C           1     -21.814  -6.305  -5.162  0.00  0.00     0.147 C 
HETATM   18  C           1     -21.164  -5.969  -3.826  0.00  0.00     0.042 C 
BRANCH  17  19
HETATM   19  O           1     -23.206  -6.176  -5.050  0.00  0.00    -0.393 OA
HETATM   20  H           1     -23.469  -5.510  -5.662  0.00  0.00     0.210 HD
ENDBRANCH  17  19
ENDBRANCH  13  17
ENDBRANCH   3  13
TORSDOF 8
ENDMDL
MODEL 9
REMARK VINA RESULT:      -4.4      2.787      4.379
REMARK  8 active torsions:
REMARK  status: ('A' for Active; 'I' for Inactive)
REMARK    1  A    between atoms: C_1  and  C_5 
REMARK    2  A    between atoms: C_5  and  C_12 
REMARK    3  A    between atoms: C_5  and  N_14 
REMARK    4  A    between atoms: O_6  and  C_12 
REMARK       I    between atoms: C_7  and  N_14 
REMARK    5  A    between atoms: C_7  and  C_10 
REMARK    6  A    between atoms: N_9  and  C_10 
REMARK    7  A    between atoms: C_10  and  C_11 
REMARK    8  A    between atoms: C_11  and  O_16 
ROOT
HETATM    1  C           1     -21.525  -7.091  -5.178  0.00  0.00     0.251 C 
HETATM    2  O           1     -21.282  -7.948  -5.994  0.00  0.00    -0.271 OA
HETATM    3  N           1     -21.691  -5.792  -5.579  0.00  0.00    -0.342 N 
HETATM    4  H           1     -21.894  -5.074  -4.896  0.00  0.00     0.163 HD
ENDROOT
BRANCH   1   5
HETATM    5  C           1     -21.646  -7.451  -3.719  0.00  0.00     0.297 C 
BRANCH   5   6
HETATM    6  N           1     -20.600  -8.466  -3.365  0.00  0.00    -0.064 N 
HETATM    7  H           1     -20.007  -8.661  -4.204  0.00  0.00     0.275 HD
HETATM    8  H           1     -19.999  -8.094  -2.594  0.00  0.00     0.275 HD
HETATM    9  H           1     -21.063  -9.348  -3.051  0.00  0.00     0.275 HD
ENDBRANCH   5   6
BRANCH   5  10
HETATM   10  C           1     -21.450  -6.202  -2.868  0.00  0.00     0.206 C 
BRANCH  10  11
HETATM   11  O           1     -22.686  -5.789  -2.352  0.00  0.00    -0.398 OA
HETATM   12  H           1     -22.697  -6.033  -1.442  0.00  0.00     0.209 HD
ENDBRANCH  10  11
ENDBRANCH   5  10
ENDBRANCH   1   5
BRANCH   3  13
HETATM   13  C           1     -21.575  -5.446  -6.982  0.00  0.00     0.214 C 
BRANCH  13  14
HETATM   14  C           1     -20.173  -4.966  -7.267  0.00  0.00     0.199 C 
HETATM   15  O           1     -19.724  -5.004  -8.433  0.00  0.00    -0.646 OA
HETATM   16  O           1     -19.461  -4.530  -6.337  0.00  0.00    -0.646 OA
ENDBRANCH  13  14
BRANCH  13  17
HETATM   17  C           1     -22.568  -4.340  -7.315  0.00  0.00     0.147 C 
HETATM   18  C           1     -22.828  -4.327  -8.816  0.00  0.00     0.042 C 
BRANCH  17  19
HETATM   19  O           1     -23.771  -4.572  -6.634  0.00  0.00    -0.393 OA
HETATM   20  H           1     -24.370  -4.946  -7.256  0.00  0.00     0.210 HD
ENDBRANCH  17  19
ENDBRANCH  13  17
ENDBRANCH   3  13
TORSDOF 8
ENDMDL
