MODEL 1
REMARK VINA RESULT:      -7.9      0.000      0.000
REMARK  12 active torsions:
REMARK  status: ('A' for Active; 'I' for Inactive)
REMARK    1  A    between atoms: N_9  and  C_22 
REMARK    2  A    between atoms: O_14  and  P_15 
REMARK    3  A    between atoms: P_15  and  O_16 
REMARK    4  A    between atoms: O_16  and  C_17 
REMARK    5  A    between atoms: C_20  and  C_21 
REMARK    6  A    between atoms: C_21  and  C_22 
REMARK    7  A    between atoms: C_22  and  C_23 
REMARK       I    between atoms: C_23  and  N_24 
REMARK    8  A    between atoms: N_24  and  C_28 
REMARK    9  A    between atoms: C_27  and  C_28 
REMARK   10  A    between atoms: C_28  and  C_29 
REMARK   11  A    between atoms: C_29  and  C_30 
REMARK   12  A    between atoms: C_30  and  C_32 
REMARK       I    between atoms: N_31  and  C_32 
ROOT
HETATM    1  C           1     -20.821  -4.797  -6.611  0.00  0.00     0.278 C 
ENDROOT
BRANCH   1   2
HETATM    2  N           1     -19.511  -4.441  -5.973  0.00  0.00    -0.066 N 
HETATM    3  H           1     -19.189  -5.234  -5.373  0.00  0.00     0.275 HD
HETATM    4  H           1     -19.632  -3.585  -5.386  0.00  0.00     0.275 HD
HETATM    5  H           1     -18.800  -4.255  -6.717  0.00  0.00     0.275 HD
ENDBRANCH   1   2
BRANCH   1   6
HETATM    6  C           1     -20.564  -5.509  -7.933  0.00  0.00     0.081 C 
BRANCH   6   7
HETATM    7  C           1     -21.145  -4.706  -9.054  0.00  0.00    -0.056 A 
HETATM    8  C           1     -22.455  -4.235  -8.969  0.00  0.00     0.010 A 
HETATM    9  C           1     -22.997  -3.487 -10.013  0.00  0.00     0.038 A 
HETATM   10  C           1     -22.229  -3.208 -11.144  0.00  0.00     0.081 A 
HETATM   11  C           1     -20.918  -3.678 -11.229  0.00  0.00     0.038 A 
HETATM   12  C           1     -20.376  -4.427 -10.184  0.00  0.00     0.010 A 
BRANCH  10  13
HETATM   13  O           1     -22.755  -2.481 -12.158  0.00  0.00    -0.247 OA
BRANCH  13  14
HETATM   14  P           1     -23.826  -3.199 -13.130  0.00  0.00     0.411 P 
HETATM   15  O           1     -23.514  -2.869 -14.538  0.00  0.00    -0.624 OA
HETATM   16  O           1     -25.188  -2.723 -12.799  0.00  0.00    -0.624 OA
BRANCH  14  17
HETATM   17  O           1     -23.752  -4.800 -12.923  0.00  0.00    -0.300 OA
HETATM   18  H           1     -24.148  -4.956 -12.083  0.00  0.00     0.223 HD
ENDBRANCH  14  17
ENDBRANCH  13  14
ENDBRANCH  10  13
ENDBRANCH   6   7
ENDBRANCH   1   6
BRANCH   1  19
HETATM   19  C           1     -21.597  -5.708  -5.691  0.00  0.00     0.249 C 
HETATM   20  O           1     -22.804  -5.669  -5.681  0.00  0.00    -0.271 OA
HETATM   21  N           1     -20.932  -6.579  -4.870  0.00  0.00    -0.345 N 
HETATM   22  H           1     -19.921  -6.612  -4.879  0.00  0.00     0.163 HD
BRANCH  21  23
HETATM   23  C           1     -21.679  -7.454  -3.987  0.00  0.00     0.186 C 
BRANCH  23  24
HETATM   24  C           1     -21.643  -6.900  -2.584  0.00  0.00     0.196 C 
HETATM   25  O           1     -22.368  -5.928  -2.278  0.00  0.00    -0.646 OA
HETATM   26  O           1     -20.890  -7.411  -1.728  0.00  0.00    -0.646 OA
ENDBRANCH  23  24
BRANCH  23  27
HETATM   27  C           1     -21.054  -8.843  -4.000  0.00  0.00     0.045 C 
BRANCH  27  28
HETATM   28  C           1     -19.763  -8.812  -4.806  0.00  0.00     0.105 C 
BRANCH  28  29
HETATM   29  C           1     -18.617  -9.279  -3.942  0.00  0.00     0.215 C 
HETATM   30  N           1     -18.783  -9.386  -2.587  0.00  0.00    -0.370 N 
HETATM   31  H           1     -18.015  -9.698  -2.006  0.00  0.00     0.159 HD
HETATM   32  H           1     -19.674  -9.154  -2.166  0.00  0.00     0.159 HD
HETATM   33  O           1     -17.555  -9.556  -4.444  0.00  0.00    -0.274 OA
ENDBRANCH  28  29
ENDBRANCH  27  28
ENDBRANCH  23  27
ENDBRANCH  21  23
ENDBRANCH   1  19
TORSDOF 12
ENDMDL
MODEL 2
REMARK VINA RESULT:      -7.9      1.284      1.783
REMARK  12 active torsions:
REMARK  status: ('A' for Active; 'I' for Inactive)
REMARK    1  A    between atoms: N_9  and  C_22 
REMARK    2  A    between atoms: O_14  and  P_15 
REMARK    3  A    between atoms: P_15  and  O_16 
REMARK    4  A    between atoms: O_16  and  C_17 
REMARK    5  A    between atoms: C_20  and  C_21 
REMARK    6  A    between atoms: C_21  and  C_22 
REMARK    7  A    between atoms: C_22  and  C_23 
REMARK       I    between atoms: C_23  and  N_24 
REMARK    8  A    between atoms: N_24  and  C_28 
REMARK    9  A    between atoms: C_27  and  C_28 
REMARK   10  A    between atoms: C_28  and  C_29 
REMARK   11  A    between atoms: C_29  and  C_30 
REMARK   12  A    between atoms: C_30  and  C_32 
REMARK       I    between atoms: N_31  and  C_32 
ROOT
HETATM    1  C           1     -20.913  -4.881  -6.429  0.00  0.00     0.278 C 
ENDROOT
BRANCH   1   2
HETATM    2  N           1     -19.599  -4.488  -5.822  0.00  0.00    -0.066 N 
HETATM    3  H           1     -18.821  -4.786  -6.452  0.00  0.00     0.275 HD
HETATM    4  H           1     -19.493  -4.953  -4.892  0.00  0.00     0.275 HD
HETATM    5  H           1     -19.569  -3.450  -5.697  0.00  0.00     0.275 HD
ENDBRANCH   1   2
BRANCH   1   6
HETATM    6  C           1     -20.668  -5.578  -7.760  0.00  0.00     0.081 C 
BRANCH   6   7
HETATM    7  C           1     -21.256  -4.762  -8.868  0.00  0.00    -0.056 A 
HETATM    8  C           1     -22.580  -4.328  -8.788  0.00  0.00     0.010 A 
HETATM    9  C           1     -23.128  -3.567  -9.820  0.00  0.00     0.038 A 
HETATM   10  C           1     -22.353  -3.238 -10.932  0.00  0.00     0.081 A 
HETATM   11  C           1     -21.029  -3.671 -11.012  0.00  0.00     0.038 A 
HETATM   12  C           1     -20.480  -4.433  -9.980  0.00  0.00     0.010 A 
BRANCH  10  13
HETATM   13  O           1     -22.885  -2.499 -11.934  0.00  0.00    -0.247 OA
BRANCH  13  14
HETATM   14  P           1     -23.910  -3.224 -12.950  0.00  0.00     0.411 P 
HETATM   15  O           1     -23.643  -2.767 -14.331  0.00  0.00    -0.624 OA
HETATM   16  O           1     -25.300  -2.881 -12.574  0.00  0.00    -0.624 OA
BRANCH  14  17
HETATM   17  O           1     -23.711  -4.825 -12.864  0.00  0.00    -0.300 OA
HETATM   18  H           1     -22.971  -5.009 -13.417  0.00  0.00     0.223 HD
ENDBRANCH  14  17
ENDBRANCH  13  14
ENDBRANCH  10  13
ENDBRANCH   6   7
ENDBRANCH   1   6
BRANCH   1  19
HETATM   19  C           1     -21.638  -5.818  -5.494  0.00  0.00     0.249 C 
HETATM   20  O           1     -22.844  -5.867  -5.503  0.00  0.00    -0.271 OA
HETATM   21  N           1     -20.926  -6.615  -4.637  0.00  0.00    -0.345 N 
HETATM   22  H           1     -19.916  -6.575  -4.630  0.00  0.00     0.163 HD
BRANCH  21  23
HETATM   23  C           1     -21.624  -7.517  -3.740  0.00  0.00     0.186 C 
BRANCH  23  24
HETATM   24  C           1     -21.633  -6.932  -2.349  0.00  0.00     0.196 C 
HETATM   25  O           1     -20.950  -7.459  -1.445  0.00  0.00    -0.646 OA
HETATM   26  O           1     -22.324  -5.920  -2.101  0.00  0.00    -0.646 OA
ENDBRANCH  23  24
BRANCH  23  27
HETATM   27  C           1     -20.914  -8.864  -3.720  0.00  0.00     0.045 C 
BRANCH  27  28
HETATM   28  C           1     -21.937  -9.980  -3.882  0.00  0.00     0.105 C 
BRANCH  28  29
HETATM   29  C           1     -22.223 -10.601  -2.536  0.00  0.00     0.215 C 
HETATM   30  N           1     -21.300 -10.508  -1.530  0.00  0.00    -0.370 N 
HETATM   31  H           1     -21.490 -10.925  -0.628  0.00  0.00     0.159 HD
HETATM   32  H           1     -20.425 -10.023  -1.688  0.00  0.00     0.159 HD
HETATM   33  O           1     -23.266 -11.181  -2.348  0.00  0.00    -0.274 OA
ENDBRANCH  28  29
ENDBRANCH  27  28
ENDBRANCH  23  27
ENDBRANCH  21  23
ENDBRANCH   1  19
TORSDOF 12
ENDMDL
MODEL 3
REMARK VINA RESULT:      -7.7      1.892      2.845
REMARK  12 active torsions:
REMARK  status: ('A' for Active; 'I' for Inactive)
REMARK    1  A    between atoms: N_9  and  C_22 
REMARK    2  A    between atoms: O_14  and  P_15 
REMARK    3  A    between atoms: P_15  and  O_16 
REMARK    4  A    between atoms: O_16  and  C_17 
REMARK    5  A    between atoms: C_20  and  C_21 
REMARK    6  A    between atoms: C_21  and  C_22 
REMARK    7  A    between atoms: C_22  and  C_23 
REMARK       I    between atoms: C_23  and  N_24 
REMARK    8  A    between atoms: N_24  and  C_28 
REMARK    9  A    between atoms: C_27  and  C_28 
REMARK   10  A    between atoms: C_28  and  C_29 
REMARK   11  A    between atoms: C_29  and  C_30 
REMARK   12  A    between atoms: C_30  and  C_32 
REMARK       I    between atoms: N_31  and  C_32 
ROOT
HETATM    1  C           1     -21.225  -6.217  -6.421  0.00  0.00     0.278 C 
ENDROOT
BRANCH   1   2
HETATM    2  N           1     -21.685  -5.201  -5.419  0.00  0.00    -0.066 N 
HETATM    3  H           1     -20.967  -4.447  -5.332  0.00  0.00     0.275 HD
HETATM    4  H           1     -21.820  -5.664  -4.492  0.00  0.00     0.275 HD
HETATM    5  H           1     -22.591  -4.785  -5.735  0.00  0.00     0.275 HD
ENDBRANCH   1   2
BRANCH   1   6
HETATM    6  C           1     -20.135  -5.610  -7.295  0.00  0.00     0.081 C 
BRANCH   6   7
HETATM    7  C           1     -20.762  -4.869  -8.433  0.00  0.00    -0.056 A 
HETATM    8  C           1     -22.047  -4.343  -8.300  0.00  0.00     0.010 A 
HETATM    9  C           1     -22.631  -3.652  -9.361  0.00  0.00     0.038 A 
HETATM   10  C           1     -21.931  -3.486 -10.556  0.00  0.00     0.081 A 
HETATM   11  C           1     -20.646  -4.012 -10.690  0.00  0.00     0.038 A 
HETATM   12  C           1     -20.061  -4.703  -9.628  0.00  0.00     0.010 A 
BRANCH  10  13
HETATM   13  O           1     -22.499  -2.815 -11.587  0.00  0.00    -0.247 OA
BRANCH  13  14
HETATM   14  P           1     -23.770  -3.489 -12.322  0.00  0.00     0.411 P 
HETATM   15  O           1     -23.845  -3.005 -13.718  0.00  0.00    -0.624 OA
HETATM   16  O           1     -25.009  -3.118 -11.601  0.00  0.00    -0.624 OA
BRANCH  14  17
HETATM   17  O           1     -23.606  -5.096 -12.316  0.00  0.00    -0.300 OA
HETATM   18  H           1     -23.469  -5.324 -11.413  0.00  0.00     0.223 HD
ENDBRANCH  14  17
ENDBRANCH  13  14
ENDBRANCH  10  13
ENDBRANCH   6   7
ENDBRANCH   1   6
BRANCH   1  19
HETATM   19  C           1     -20.677  -7.423  -5.698  0.00  0.00     0.249 C 
HETATM   20  O           1     -19.592  -7.863  -5.993  0.00  0.00    -0.271 OA
HETATM   21  N           1     -21.411  -8.019  -4.707  0.00  0.00    -0.345 N 
HETATM   22  H           1     -22.321  -7.651  -4.460  0.00  0.00     0.163 HD
BRANCH  21  23
HETATM   23  C           1     -20.884  -9.178  -4.012  0.00  0.00     0.186 C 
BRANCH  23  24
HETATM   24  C           1     -21.555 -10.424  -4.536  0.00  0.00     0.196 C 
HETATM   25  O           1     -22.516 -10.925  -3.914  0.00  0.00    -0.646 OA
HETATM   26  O           1     -21.149 -10.955  -5.592  0.00  0.00    -0.646 OA
ENDBRANCH  23  24
BRANCH  23  27
HETATM   27  C           1     -21.156  -9.044  -2.520  0.00  0.00     0.045 C 
BRANCH  27  28
HETATM   28  C           1     -20.736  -7.658  -2.049  0.00  0.00     0.105 C 
BRANCH  28  29
HETATM   29  C           1     -21.961  -6.854  -1.689  0.00  0.00     0.215 C 
HETATM   30  N           1     -22.608  -7.087  -0.506  0.00  0.00    -0.370 N 
HETATM   31  H           1     -23.430  -6.548  -0.264  0.00  0.00     0.159 HD
HETATM   32  H           1     -22.264  -7.797   0.129  0.00  0.00     0.159 HD
HETATM   33  O           1     -22.371  -6.007  -2.446  0.00  0.00    -0.274 OA
ENDBRANCH  28  29
ENDBRANCH  27  28
ENDBRANCH  23  27
ENDBRANCH  21  23
ENDBRANCH   1  19
TORSDOF 12
ENDMDL
MODEL 4
REMARK VINA RESULT:      -7.7      3.910      9.531
REMARK  12 active torsions:
REMARK  status: ('A' for Active; 'I' for Inactive)
REMARK    1  A    between atoms: N_9  and  C_22 
REMARK    2  A    between atoms: O_14  and  P_15 
REMARK    3  A    between atoms: P_15  and  O_16 
REMARK    4  A    between atoms: O_16  and  C_17 
REMARK    5  A    between atoms: C_20  and  C_21 
REMARK    6  A    between atoms: C_21  and  C_22 
REMARK    7  A    between atoms: C_22  and  C_23 
REMARK       I    between atoms: C_23  and  N_24 
REMARK    8  A    between atoms: N_24  and  C_28 
REMARK    9  A    between atoms: C_27  and  C_28 
REMARK   10  A    between atoms: C_28  and  C_29 
REMARK   11  A    between atoms: C_29  and  C_30 
REMARK   12  A    between atoms: C_30  and  C_32 
REMARK       I    between atoms: N_31  and  C_32 
ROOT
HETATM    1  C           1     -21.073  -5.696  -6.901  0.00  0.00     0.278 C 
ENDROOT
BRANCH   1   2
HETATM    2  N           1     -19.741  -6.104  -7.457  0.00  0.00    -0.066 N 
HETATM    3  H           1     -19.871  -6.892  -8.131  0.00  0.00     0.275 HD
HETATM    4  H           1     -19.118  -6.412  -6.676  0.00  0.00     0.275 HD
HETATM    5  H           1     -19.305  -5.292  -7.949  0.00  0.00     0.275 HD
ENDBRANCH   1   2
BRANCH   1   6
HETATM    6  C           1     -20.898  -5.216  -5.466  0.00  0.00     0.081 C 
BRANCH   6   7
HETATM    7  C           1     -21.164  -6.349  -4.525  0.00  0.00    -0.056 A 
HETATM    8  C           1     -21.243  -6.112  -3.153  0.00  0.00     0.010 A 
HETATM    9  C           1     -21.492  -7.167  -2.276  0.00  0.00     0.038 A 
HETATM   10  C           1     -21.664  -8.460  -2.770  0.00  0.00     0.081 A 
HETATM   11  C           1     -21.585  -8.697  -4.142  0.00  0.00     0.038 A 
HETATM   12  C           1     -21.336  -7.642  -5.020  0.00  0.00     0.010 A 
BRANCH  10  13
HETATM   13  O           1     -21.905  -9.485  -1.918  0.00  0.00    -0.247 OA
BRANCH  13  14
HETATM   14  P           1     -20.671 -10.447  -1.520  0.00  0.00     0.411 P 
HETATM   15  O           1     -20.853 -11.770  -2.157  0.00  0.00    -0.624 OA
HETATM   16  O           1     -20.625 -10.607  -0.049  0.00  0.00    -0.624 OA
BRANCH  14  17
HETATM   17  O           1     -19.287  -9.789  -2.031  0.00  0.00    -0.300 OA
HETATM   18  H           1     -19.018 -10.321  -2.759  0.00  0.00     0.223 HD
ENDBRANCH  14  17
ENDBRANCH  13  14
ENDBRANCH  10  13
ENDBRANCH   6   7
ENDBRANCH   1   6
BRANCH   1  19
HETATM   19  C           1     -21.646  -4.579  -7.739  0.00  0.00     0.249 C 
HETATM   20  O           1     -21.625  -3.444  -7.327  0.00  0.00    -0.271 OA
HETATM   21  N           1     -22.188  -4.853  -8.966  0.00  0.00    -0.345 N 
HETATM   22  H           1     -22.205  -5.804  -9.311  0.00  0.00     0.163 HD
BRANCH  21  23
HETATM   23  C           1     -22.737  -3.779  -9.771  0.00  0.00     0.186 C 
BRANCH  23  24
HETATM   24  C           1     -24.244  -3.849  -9.738  0.00  0.00     0.196 C 
HETATM   25  O           1     -24.825  -4.933  -9.966  0.00  0.00    -0.646 OA
HETATM   26  O           1     -24.912  -2.824  -9.483  0.00  0.00    -0.646 OA
ENDBRANCH  23  24
BRANCH  23  27
HETATM   27  C           1     -22.254  -3.922 -11.208  0.00  0.00     0.045 C 
BRANCH  27  28
HETATM   28  C           1     -22.490  -2.616 -11.956  0.00  0.00     0.105 C 
BRANCH  28  29
HETATM   29  C           1     -23.254  -2.895 -13.228  0.00  0.00     0.215 C 
HETATM   30  N           1     -22.583  -3.019 -14.414  0.00  0.00    -0.370 N 
HETATM   31  H           1     -23.094  -3.205 -15.268  0.00  0.00     0.159 HD
HETATM   32  H           1     -21.575  -2.925 -14.439  0.00  0.00     0.159 HD
HETATM   33  O           1     -24.456  -3.006 -13.198  0.00  0.00    -0.274 OA
ENDBRANCH  28  29
ENDBRANCH  27  28
ENDBRANCH  23  27
ENDBRANCH  21  23
ENDBRANCH   1  19
TORSDOF 12
ENDMDL
MODEL 5
REMARK VINA RESULT:      -7.6      1.594      3.173
REMARK  12 active torsions:
REMARK  status: ('A' for Active; 'I' for Inactive)
REMARK    1  A    between atoms: N_9  and  C_22 
REMARK    2  A    between atoms: O_14  and  P_15 
REMARK    3  A    between atoms: P_15  and  O_16 
REMARK    4  A    between atoms: O_16  and  C_17 
REMARK    5  A    between atoms: C_20  and  C_21 
REMARK    6  A    between atoms: C_21  and  C_22 
REMARK    7  A    between atoms: C_22  and  C_23 
REMARK       I    between atoms: C_23  and  N_24 
REMARK    8  A    between atoms: N_24  and  C_28 
REMARK    9  A    between atoms: C_27  and  C_28 
REMARK   10  A    between atoms: C_28  and  C_29 
REMARK   11  A    between atoms: C_29  and  C_30 
REMARK   12  A    between atoms: C_30  and  C_32 
REMARK       I    between atoms: N_31  and  C_32 
ROOT
HETATM    1  C           1     -22.256  -5.470  -6.636  0.00  0.00     0.278 C 
ENDROOT
BRANCH   1   2
HETATM    2  N           1     -23.611  -5.122  -6.095  0.00  0.00    -0.066 N 
HETATM    3  H           1     -23.943  -5.888  -5.467  0.00  0.00     0.275 HD
HETATM    4  H           1     -24.281  -5.004  -6.888  0.00  0.00     0.275 HD
HETATM    5  H           1     -23.551  -4.229  -5.555  0.00  0.00     0.275 HD
ENDBRANCH   1   2
BRANCH   1   6
HETATM    6  C           1     -21.604  -4.220  -7.213  0.00  0.00     0.081 C 
BRANCH   6   7
HETATM    7  C           1     -21.826  -4.178  -8.692  0.00  0.00    -0.056 A 
HETATM    8  C           1     -20.737  -4.095  -9.560  0.00  0.00     0.010 A 
HETATM    9  C           1     -20.945  -4.056 -10.938  0.00  0.00     0.038 A 
HETATM   10  C           1     -22.241  -4.102 -11.450  0.00  0.00     0.081 A 
HETATM   11  C           1     -23.330  -4.186 -10.583  0.00  0.00     0.038 A 
HETATM   12  C           1     -23.124  -4.224  -9.204  0.00  0.00     0.010 A 
BRANCH  10  13
HETATM   13  O           1     -22.443  -4.064 -12.789  0.00  0.00    -0.247 OA
BRANCH  13  14
HETATM   14  P           1     -23.447  -2.942 -13.374  0.00  0.00     0.411 P 
HETATM   15  O           1     -24.831  -3.254 -12.956  0.00  0.00    -0.624 OA
HETATM   16  O           1     -23.366  -2.932 -14.852  0.00  0.00    -0.624 OA
BRANCH  14  17
HETATM   17  O           1     -23.025  -1.491 -12.803  0.00  0.00    -0.300 OA
HETATM   18  H           1     -23.279  -0.882 -13.474  0.00  0.00     0.223 HD
ENDBRANCH  14  17
ENDBRANCH  13  14
ENDBRANCH  10  13
ENDBRANCH   6   7
ENDBRANCH   1   6
BRANCH   1  19
HETATM   19  C           1     -21.396  -6.019  -5.524  0.00  0.00     0.249 C 
HETATM   20  O           1     -20.814  -5.264  -4.782  0.00  0.00    -0.271 OA
HETATM   21  N           1     -21.278  -7.373  -5.354  0.00  0.00    -0.345 N 
HETATM   22  H           1     -21.765  -8.005  -5.975  0.00  0.00     0.163 HD
BRANCH  21  23
HETATM   23  C           1     -20.452  -7.899  -4.284  0.00  0.00     0.186 C 
BRANCH  23  24
HETATM   24  C           1     -19.576  -9.002  -4.823  0.00  0.00     0.196 C 
HETATM   25  O           1     -18.448  -9.206  -4.323  0.00  0.00    -0.646 OA
HETATM   26  O           1     -19.976  -9.713  -5.770  0.00  0.00    -0.646 OA
ENDBRANCH  23  24
BRANCH  23  27
HETATM   27  C           1     -21.343  -8.452  -3.180  0.00  0.00     0.045 C 
BRANCH  27  28
HETATM   28  C           1     -21.002  -7.769  -1.862  0.00  0.00     0.105 C 
BRANCH  28  29
HETATM   29  C           1     -22.124  -6.839  -1.470  0.00  0.00     0.215 C 
HETATM   30  N           1     -22.332  -5.685  -2.175  0.00  0.00    -0.370 N 
HETATM   31  H           1     -23.084  -5.060  -1.913  0.00  0.00     0.159 HD
HETATM   32  H           1     -21.734  -5.455  -2.960  0.00  0.00     0.159 HD
HETATM   33  O           1     -22.837  -7.113  -0.535  0.00  0.00    -0.274 OA
ENDBRANCH  28  29
ENDBRANCH  27  28
ENDBRANCH  23  27
ENDBRANCH  21  23
ENDBRANCH   1  19
TORSDOF 12
ENDMDL
MODEL 6
REMARK VINA RESULT:      -7.0      2.094      2.754
REMARK  12 active torsions:
REMARK  status: ('A' for Active; 'I' for Inactive)
REMARK    1  A    between atoms: N_9  and  C_22 
REMARK    2  A    between atoms: O_14  and  P_15 
REMARK    3  A    between atoms: P_15  and  O_16 
REMARK    4  A    between atoms: O_16  and  C_17 
REMARK    5  A    between atoms: C_20  and  C_21 
REMARK    6  A    between atoms: C_21  and  C_22 
REMARK    7  A    between atoms: C_22  and  C_23 
REMARK       I    between atoms: C_23  and  N_24 
REMARK    8  A    between atoms: N_24  and  C_28 
REMARK    9  A    between atoms: C_27  and  C_28 
REMARK   10  A    between atoms: C_28  and  C_29 
REMARK   11  A    between atoms: C_29  and  C_30 
REMARK   12  A    between atoms: C_30  and  C_32 
REMARK       I    between atoms: N_31  and  C_32 
ROOT
HETATM    1  C           1     -21.619  -6.573  -5.276  0.00  0.00     0.278 C 
ENDROOT
BRANCH   1   2
HETATM    2  N           1     -21.841  -5.960  -3.925  0.00  0.00    -0.066 N 
HETATM    3  H           1     -21.413  -6.569  -3.192  0.00  0.00     0.275 HD
HETATM    4  H           1     -22.867  -5.869  -3.749  0.00  0.00     0.275 HD
HETATM    5  H           1     -21.398  -5.013  -3.895  0.00  0.00     0.275 HD
ENDBRANCH   1   2
BRANCH   1   6
HETATM    6  C           1     -20.476  -5.852  -5.979  0.00  0.00     0.081 C 
BRANCH   6   7
HETATM    7  C           1     -20.999  -5.152  -7.194  0.00  0.00    -0.056 A 
HETATM    8  C           1     -22.276  -4.592  -7.181  0.00  0.00     0.010 A 
HETATM    9  C           1     -22.763  -3.940  -8.313  0.00  0.00     0.038 A 
HETATM   10  C           1     -21.972  -3.846  -9.459  0.00  0.00     0.081 A 
HETATM   11  C           1     -20.695  -4.406  -9.471  0.00  0.00     0.038 A 
HETATM   12  C           1     -20.207  -5.059  -8.339  0.00  0.00     0.010 A 
BRANCH  10  13
HETATM   13  O           1     -22.445  -3.212 -10.559  0.00  0.00    -0.247 OA
BRANCH  13  14
HETATM   14  P           1     -23.755  -3.822 -11.280  0.00  0.00     0.411 P 
HETATM   15  O           1     -23.751  -5.295 -11.146  0.00  0.00    -0.624 OA
HETATM   16  O           1     -23.743  -3.455 -12.714  0.00  0.00    -0.624 OA
BRANCH  14  17
HETATM   17  O           1     -25.083  -3.221 -10.584  0.00  0.00    -0.300 OA
HETATM   18  H           1     -25.782  -3.414 -11.184  0.00  0.00     0.223 HD
ENDBRANCH  14  17
ENDBRANCH  13  14
ENDBRANCH  10  13
ENDBRANCH   6   7
ENDBRANCH   1   6
BRANCH   1  19
HETATM   19  C           1     -21.271  -8.032  -5.114  0.00  0.00     0.249 C 
HETATM   20  O           1     -21.196  -8.746  -6.086  0.00  0.00    -0.271 OA
HETATM   21  N           1     -21.040  -8.547  -3.867  0.00  0.00    -0.345 N 
HETATM   22  H           1     -21.103  -7.949  -3.053  0.00  0.00     0.163 HD
BRANCH  21  23
HETATM   23  C           1     -20.705  -9.949  -3.712  0.00  0.00     0.186 C 
BRANCH  23  24
HETATM   24  C           1     -21.820 -10.654  -2.979  0.00  0.00     0.196 C 
HETATM   25  O           1     -21.674 -10.976  -1.780  0.00  0.00    -0.646 OA
HETATM   26  O           1     -22.889 -10.915  -3.570  0.00  0.00    -0.646 OA
ENDBRANCH  23  24
BRANCH  23  27
HETATM   27  C           1     -19.413 -10.079  -2.917  0.00  0.00     0.045 C 
BRANCH  27  28
HETATM   28  C           1     -18.284  -9.378  -3.662  0.00  0.00     0.105 C 
BRANCH  28  29
HETATM   29  C           1     -18.018 -10.094  -4.963  0.00  0.00     0.215 C 
HETATM   30  N           1     -18.166  -9.431  -6.151  0.00  0.00    -0.370 N 
HETATM   31  H           1     -17.988  -9.910  -7.025  0.00  0.00     0.159 HD
HETATM   32  H           1     -18.453  -8.460  -6.157  0.00  0.00     0.159 HD
HETATM   33  O           1     -17.675 -11.252  -4.956  0.00  0.00    -0.274 OA
ENDBRANCH  28  29
ENDBRANCH  27  28
ENDBRANCH  23  27
ENDBRANCH  21  23
ENDBRANCH   1  19
TORSDOF 12
ENDMDL
MODEL 7
REMARK VINA RESULT:      -6.5      2.032      3.060
REMARK  12 active torsions:
REMARK  status: ('A' for Active; 'I' for Inactive)
REMARK    1  A    between atoms: N_9  and  C_22 
REMARK    2  A    between atoms: O_14  and  P_15 
REMARK    3  A    between atoms: P_15  and  O_16 
REMARK    4  A    between atoms: O_16  and  C_17 
REMARK    5  A    between atoms: C_20  and  C_21 
REMARK    6  A    between atoms: C_21  and  C_22 
REMARK    7  A    between atoms: C_22  and  C_23 
REMARK       I    between atoms: C_23  and  N_24 
REMARK    8  A    between atoms: N_24  and  C_28 
REMARK    9  A    between atoms: C_27  and  C_28 
REMARK   10  A    between atoms: C_28  and  C_29 
REMARK   11  A    between atoms: C_29  and  C_30 
REMARK   12  A    between atoms: C_30  and  C_32 
REMARK       I    between atoms: N_31  and  C_32 
ROOT
HETATM    1  C           1     -21.453  -6.239  -6.215  0.00  0.00     0.278 C 
ENDROOT
BRANCH   1   2
HETATM    2  N           1     -22.203  -6.030  -4.933  0.00  0.00    -0.066 N 
HETATM    3  H           1     -21.987  -5.081  -4.553  0.00  0.00     0.275 HD
HETATM    4  H           1     -21.916  -6.758  -4.240  0.00  0.00     0.275 HD
HETATM    5  H           1     -23.230  -6.108  -5.114  0.00  0.00     0.275 HD
ENDBRANCH   1   2
BRANCH   1   6
HETATM    6  C           1     -20.873  -4.911  -6.684  0.00  0.00     0.081 C 
BRANCH   6   7
HETATM    7  C           1     -21.687  -4.384  -7.824  0.00  0.00    -0.056 A 
HETATM    8  C           1     -21.063  -4.010  -9.013  0.00  0.00     0.010 A 
HETATM    9  C           1     -21.822  -3.520 -10.075  0.00  0.00     0.038 A 
HETATM   10  C           1     -23.206  -3.405  -9.949  0.00  0.00     0.081 A 
HETATM   11  C           1     -23.831  -3.779  -8.759  0.00  0.00     0.038 A 
HETATM   12  C           1     -23.072  -4.269  -7.696  0.00  0.00     0.010 A 
BRANCH  10  13
HETATM   13  O           1     -23.944  -2.928 -10.981  0.00  0.00    -0.247 OA
BRANCH  13  14
HETATM   14  P           1     -23.808  -3.663 -12.413  0.00  0.00     0.411 P 
HETATM   15  O           1     -22.673  -3.078 -13.161  0.00  0.00    -0.624 OA
HETATM   16  O           1     -25.058  -3.475 -13.183  0.00  0.00    -0.624 OA
BRANCH  14  17
HETATM   17  O           1     -23.548  -5.241 -12.186  0.00  0.00    -0.300 OA
HETATM   18  H           1     -23.628  -5.626 -13.042  0.00  0.00     0.223 HD
ENDBRANCH  14  17
ENDBRANCH  13  14
ENDBRANCH  10  13
ENDBRANCH   6   7
ENDBRANCH   1   6
BRANCH   1  19
HETATM   19  C           1     -20.334  -7.225  -5.987  0.00  0.00     0.249 C 
HETATM   20  O           1     -19.346  -7.188  -6.681  0.00  0.00    -0.271 OA
HETATM   21  N           1     -20.437  -8.160  -4.992  0.00  0.00    -0.345 N 
HETATM   22  H           1     -21.264  -8.191  -4.410  0.00  0.00     0.163 HD
BRANCH  21  23
HETATM   23  C           1     -19.361  -9.107  -4.773  0.00  0.00     0.186 C 
BRANCH  23  24
HETATM   24  C           1     -19.802 -10.479  -5.221  0.00  0.00     0.196 C 
HETATM   25  O           1     -19.270 -11.498  -4.729  0.00  0.00    -0.646 OA
HETATM   26  O           1     -20.698 -10.597  -6.083  0.00  0.00    -0.646 OA
ENDBRANCH  23  24
BRANCH  23  27
HETATM   27  C           1     -19.010  -9.145  -3.292  0.00  0.00     0.045 C 
BRANCH  27  28
HETATM   28  C           1     -20.143  -8.527  -2.485  0.00  0.00     0.105 C 
BRANCH  28  29
HETATM   29  C           1     -20.896  -9.615  -1.758  0.00  0.00     0.215 C 
HETATM   30  N           1     -22.039 -10.136  -2.301  0.00  0.00    -0.370 N 
HETATM   31  H           1     -22.544 -10.865  -1.814  0.00  0.00     0.159 HD
HETATM   32  H           1     -22.379  -9.793  -3.191  0.00  0.00     0.159 HD
HETATM   33  O           1     -20.490 -10.024  -0.696  0.00  0.00    -0.274 OA
ENDBRANCH  28  29
ENDBRANCH  27  28
ENDBRANCH  23  27
ENDBRANCH  21  23
ENDBRANCH   1  19
TORSDOF 12
ENDMDL
MODEL 8
REMARK VINA RESULT:      -6.5      2.289      3.587
REMARK  12 active torsions:
REMARK  status: ('A' for Active; 'I' for Inactive)
REMARK    1  A    between atoms: N_9  and  C_22 
REMARK    2  A    between atoms: O_14  and  P_15 
REMARK    3  A    between atoms: P_15  and  O_16 
REMARK    4  A    between atoms: O_16  and  C_17 
REMARK    5  A    between atoms: C_20  and  C_21 
REMARK    6  A    between atoms: C_21  and  C_22 
REMARK    7  A    between atoms: C_22  and  C_23 
REMARK       I    between atoms: C_23  and  N_24 
REMARK    8  A    between atoms: N_24  and  C_28 
REMARK    9  A    between atoms: C_27  and  C_28 
REMARK   10  A    between atoms: C_28  and  C_29 
REMARK   11  A    between atoms: C_29  and  C_30 
REMARK   12  A    between atoms: C_30  and  C_32 
REMARK       I    between atoms: N_31  and  C_32 
ROOT
HETATM    1  C           1     -21.266  -6.840  -5.301  0.00  0.00     0.278 C 
ENDROOT
BRANCH   1   2
HETATM    2  N           1     -21.726  -6.109  -4.075  0.00  0.00    -0.066 N 
HETATM    3  H           1     -22.741  -5.880  -4.166  0.00  0.00     0.275 HD
HETATM    4  H           1     -21.177  -5.226  -3.970  0.00  0.00     0.275 HD
HETATM    5  H           1     -21.579  -6.712  -3.234  0.00  0.00     0.275 HD
ENDBRANCH   1   2
BRANCH   1   6
HETATM    6  C           1     -20.227  -5.999  -6.032  0.00  0.00     0.081 C 
BRANCH   6   7
HETATM    7  C           1     -20.887  -5.246  -7.144  0.00  0.00    -0.056 A 
HETATM    8  C           1     -22.152  -4.689  -6.955  0.00  0.00     0.010 A 
HETATM    9  C           1     -22.767  -3.987  -7.991  0.00  0.00     0.038 A 
HETATM   10  C           1     -22.118  -3.840  -9.216  0.00  0.00     0.081 A 
HETATM   11  C           1     -20.853  -4.396  -9.405  0.00  0.00     0.038 A 
HETATM   12  C           1     -20.237  -5.099  -8.369  0.00  0.00     0.010 A 
BRANCH  10  13
HETATM   13  O           1     -22.715  -3.158 -10.222  0.00  0.00    -0.247 OA
BRANCH  13  14
HETATM   14  P           1     -24.010  -3.821 -10.923  0.00  0.00     0.411 P 
HETATM   15  O           1     -23.626  -5.101 -11.557  0.00  0.00    -0.624 OA
HETATM   16  O           1     -24.540  -2.898 -11.952  0.00  0.00    -0.624 OA
BRANCH  14  17
HETATM   17  O           1     -25.148  -4.091  -9.809  0.00  0.00    -0.300 OA
HETATM   18  H           1     -25.481  -4.949 -10.004  0.00  0.00     0.223 HD
ENDBRANCH  14  17
ENDBRANCH  13  14
ENDBRANCH  10  13
ENDBRANCH   6   7
ENDBRANCH   1   6
BRANCH   1  19
HETATM   19  C           1     -20.654  -8.160  -4.899  0.00  0.00     0.249 C 
HETATM   20  O           1     -19.523  -8.197  -4.476  0.00  0.00    -0.271 OA
HETATM   21  N           1     -21.381  -9.315  -5.013  0.00  0.00    -0.345 N 
HETATM   22  H           1     -22.328  -9.284  -5.367  0.00  0.00     0.163 HD
BRANCH  21  23
HETATM   23  C           1     -20.792 -10.582  -4.626  0.00  0.00     0.186 C 
BRANCH  23  24
HETATM   24  C           1     -20.832 -11.532  -5.798  0.00  0.00     0.196 C 
HETATM   25  O           1     -20.269 -12.646  -5.719  0.00  0.00    -0.646 OA
HETATM   26  O           1     -21.430 -11.207  -6.846  0.00  0.00    -0.646 OA
ENDBRANCH  23  24
BRANCH  23  27
HETATM   27  C           1     -21.578 -11.175  -3.465  0.00  0.00     0.045 C 
BRANCH  27  28
HETATM   28  C           1     -20.834 -10.913  -2.162  0.00  0.00     0.105 C 
BRANCH  28  29
HETATM   29  C           1     -21.351  -9.643  -1.532  0.00  0.00     0.215 C 
HETATM   30  N           1     -20.530  -8.555  -1.415  0.00  0.00    -0.370 N 
HETATM   31  H           1     -20.875  -7.703  -0.992  0.00  0.00     0.159 HD
HETATM   32  H           1     -19.576  -8.601  -1.752  0.00  0.00     0.159 HD
HETATM   33  O           1     -22.488  -9.588  -1.129  0.00  0.00    -0.274 OA
ENDBRANCH  28  29
ENDBRANCH  27  28
ENDBRANCH  23  27
ENDBRANCH  21  23
ENDBRANCH   1  19
TORSDOF 12
ENDMDL
MODEL 9
REMARK VINA RESULT:      -6.4     14.404     17.123
REMARK  12 active torsions:
REMARK  status: ('A' for Active; 'I' for Inactive)
REMARK    1  A    between atoms: N_9  and  C_22 
REMARK    2  A    between atoms: O_14  and  P_15 
REMARK    3  A    between atoms: P_15  and  O_16 
REMARK    4  A    between atoms: O_16  and  C_17 
REMARK    5  A    between atoms: C_20  and  C_21 
REMARK    6  A    between atoms: C_21  and  C_22 
REMARK    7  A    between atoms: C_22  and  C_23 
REMARK       I    between atoms: C_23  and  N_24 
REMARK    8  A    between atoms: N_24  and  C_28 
REMARK    9  A    between atoms: C_27  and  C_28 
REMARK   10  A    between atoms: C_28  and  C_29 
REMARK   11  A    between atoms: C_29  and  C_30 
REMARK   12  A    between atoms: C_30  and  C_32 
REMARK       I    between atoms: N_31  and  C_32 
ROOT
HETATM    1  C           1     -34.306  -4.479 -12.479  0.00  0.00     0.278 C 
ENDROOT
BRANCH   1   2
HETATM    2  N           1     -33.424  -5.583 -11.976  0.00  0.00    -0.066 N 
HETATM    3  H           1     -32.760  -5.202 -11.265  0.00  0.00     0.275 HD
HETATM    4  H           1     -32.887  -5.989 -12.775  0.00  0.00     0.275 HD
HETATM    5  H           1     -34.013  -6.328 -11.539  0.00  0.00     0.275 HD
ENDBRANCH   1   2
BRANCH   1   6
HETATM    6  C           1     -33.666  -3.134 -12.161  0.00  0.00     0.081 C 
BRANCH   6   7
HETATM    7  C           1     -34.709  -2.193 -11.649  0.00  0.00    -0.056 A 
HETATM    8  C           1     -35.636  -2.627 -10.701  0.00  0.00     0.010 A 
HETATM    9  C           1     -36.609  -1.749 -10.223  0.00  0.00     0.038 A 
HETATM   10  C           1     -36.654  -0.436 -10.691  0.00  0.00     0.081 A 
HETATM   11  C           1     -35.728  -0.002 -11.639  0.00  0.00     0.038 A 
HETATM   12  C           1     -34.755  -0.879 -12.117  0.00  0.00     0.010 A 
BRANCH  10  13
HETATM   13  O           1     -37.599   0.416 -10.227  0.00  0.00    -0.247 OA
BRANCH  13  14
HETATM   14  P           1     -37.412   1.020  -8.740  0.00  0.00     0.411 P 
HETATM   15  O           1     -38.075   2.340  -8.657  0.00  0.00    -0.624 OA
HETATM   16  O           1     -35.969   1.170  -8.449  0.00  0.00    -0.624 OA
BRANCH  14  17
HETATM   17  O           1     -38.075   0.015  -7.664  0.00  0.00    -0.300 OA
HETATM   18  H           1     -38.187  -0.798  -8.125  0.00  0.00     0.223 HD
ENDBRANCH  14  17
ENDBRANCH  13  14
ENDBRANCH  10  13
ENDBRANCH   6   7
ENDBRANCH   1   6
BRANCH   1  19
HETATM   19  C           1     -34.479  -4.615 -13.972  0.00  0.00     0.249 C 
HETATM   20  O           1     -35.095  -5.549 -14.426  0.00  0.00    -0.271 OA
HETATM   21  N           1     -33.939  -3.677 -14.812  0.00  0.00    -0.345 N 
HETATM   22  H           1     -33.424  -2.895 -14.432  0.00  0.00     0.163 HD
BRANCH  21  23
HETATM   23  C           1     -34.107  -3.808 -16.246  0.00  0.00     0.186 C 
BRANCH  23  24
HETATM   24  C           1     -32.766  -4.073 -16.885  0.00  0.00     0.196 C 
HETATM   25  O           1     -32.224  -5.193 -16.761  0.00  0.00    -0.646 OA
HETATM   26  O           1     -32.197  -3.174 -17.540  0.00  0.00    -0.646 OA
ENDBRANCH  23  24
BRANCH  23  27
HETATM   27  C           1     -34.692  -2.521 -16.810  0.00  0.00     0.045 C 
BRANCH  27  28
HETATM   28  C           1     -35.146  -1.624 -15.665  0.00  0.00     0.105 C 
BRANCH  28  29
HETATM   29  C           1     -36.166  -0.635 -16.172  0.00  0.00     0.215 C 
HETATM   30  N           1     -36.097   0.676 -15.786  0.00  0.00    -0.370 N 
HETATM   31  H           1     -36.781   1.341 -16.125  0.00  0.00     0.159 HD
HETATM   32  H           1     -35.362   0.982 -15.160  0.00  0.00     0.159 HD
HETATM   33  O           1     -37.043  -1.000 -16.918  0.00  0.00    -0.274 OA
ENDBRANCH  28  29
ENDBRANCH  27  28
ENDBRANCH  23  27
ENDBRANCH  21  23
ENDBRANCH   1  19
TORSDOF 12
ENDMDL
