MODEL 1
REMARK VINA RESULT:      -7.5      0.000      0.000
REMARK  12 active torsions:
REMARK  status: ('A' for Active; 'I' for Inactive)
REMARK    1  A    between atoms: C_1  and  C_31 
REMARK    2  A    between atoms: C_1  and  C_28 
REMARK       I    between atoms: N_2  and  C_29 
REMARK    3  A    between atoms: N_2  and  C_23 
REMARK       I    between atoms: N_3  and  C_29 
REMARK    4  A    between atoms: C_5  and  C_32 
REMARK    5  A    between atoms: C_5  and  C_6 
REMARK    6  A    between atoms: C_5  and  N_18 
REMARK    7  A    between atoms: C_6  and  C_7 
REMARK    8  A    between atoms: C_7  and  C_11 
REMARK    9  A    between atoms: C_11  and  N_19 
REMARK   10  A    between atoms: C_23  and  C_31 
REMARK   11  A    between atoms: N_25  and  C_28 
REMARK       I    between atoms: N_25  and  C_32 
REMARK   12  A    between atoms: C_27  and  C_28 
ROOT
HETATM    1  H           1     -22.308  -5.888  -9.204  0.00  0.00     0.163 HD
HETATM    2  O           1     -21.448  -3.605  -7.231  0.00  0.00    -0.271 OA
HETATM    3  N           1     -22.182  -4.944  -8.861  0.00  0.00    -0.345 N 
HETATM    4  C           1     -21.598  -4.731  -7.641  0.00  0.00     0.249 C 
ENDROOT
BRANCH   3   5
HETATM    5  C           1     -22.622  -3.817  -9.660  0.00  0.00     0.185 C 
BRANCH   5   6
HETATM    6  C           1     -22.052  -3.939 -11.066  0.00  0.00     0.038 C 
BRANCH   6   7
HETATM    7  C           1     -22.330  -2.658 -11.841  0.00  0.00     0.023 C 
BRANCH   7   8
HETATM    8  C           1     -23.059  -2.995 -13.135  0.00  0.00     0.138 C 
BRANCH   8   9
HETATM    9  N           1     -23.879  -1.848 -13.549  0.00  0.00    -0.227 N 
HETATM   10  C           1     -23.724  -1.339 -14.697  0.00  0.00     0.665 C 
HETATM   11  N           1     -22.861  -1.819 -15.489  0.00  0.00    -0.235 N 
HETATM   12  N           1     -24.449  -0.325 -15.063  0.00  0.00    -0.235 N 
HETATM   13  H           1     -22.275  -2.639 -15.194  0.00  0.00     0.174 HD
HETATM   14  H           1     -22.731  -1.398 -16.443  0.00  0.00     0.174 HD
HETATM   15  H           1     -25.162   0.071 -14.409  0.00  0.00     0.174 HD
HETATM   16  H           1     -24.321   0.095 -16.012  0.00  0.00     0.174 HD
HETATM   17  H           1     -24.595  -1.450 -12.891  0.00  0.00     0.177 HD
ENDBRANCH   8   9
ENDBRANCH   7   8
ENDBRANCH   6   7
ENDBRANCH   5   6
BRANCH   5  18
HETATM   18  C           1     -24.130  -3.805  -9.726  0.00  0.00     0.196 C 
HETATM   19  O           1     -24.748  -4.842 -10.050  0.00  0.00    -0.646 OA
HETATM   20  O           1     -24.759  -2.760  -9.457  0.00  0.00    -0.646 OA
ENDBRANCH   5  18
ENDBRANCH   3   5
BRANCH   4  21
HETATM   21  C           1     -21.140  -5.904  -6.809  0.00  0.00     0.274 C 
BRANCH  21  22
HETATM   22  C           1     -21.174  -5.526  -5.334  0.00  0.00     0.044 C 
BRANCH  22  23
HETATM   23  C           1     -21.989  -6.556  -4.563  0.00  0.00     0.030 C 
BRANCH  23  24
HETATM   24  C           1     -21.456  -6.665  -3.141  0.00  0.00     0.230 C 
BRANCH  24  25
HETATM   25  N           1     -22.287  -5.814  -2.227  0.00  0.00    -0.079 N 
HETATM   26  H           1     -22.022  -6.005  -1.235  0.00  0.00     0.274 HD
HETATM   27  H           1     -22.121  -4.805  -2.445  0.00  0.00     0.274 HD
HETATM   28  H           1     -23.298  -6.039  -2.366  0.00  0.00     0.274 HD
ENDBRANCH  24  25
ENDBRANCH  23  24
ENDBRANCH  22  23
ENDBRANCH  21  22
BRANCH  21  29
HETATM   29  N           1     -19.739  -6.275  -7.197  0.00  0.00    -0.067 N 
HETATM   30  H           1     -19.077  -5.547  -6.847  0.00  0.00     0.275 HD
HETATM   31  H           1     -19.673  -6.338  -8.238  0.00  0.00     0.275 HD
HETATM   32  H           1     -19.495  -7.200  -6.776  0.00  0.00     0.275 HD
ENDBRANCH  21  29
ENDBRANCH   4  21
TORSDOF 12
ENDMDL
MODEL 2
REMARK VINA RESULT:      -7.1     12.035     14.920
REMARK  12 active torsions:
REMARK  status: ('A' for Active; 'I' for Inactive)
REMARK    1  A    between atoms: C_1  and  C_31 
REMARK    2  A    between atoms: C_1  and  C_28 
REMARK       I    between atoms: N_2  and  C_29 
REMARK    3  A    between atoms: N_2  and  C_23 
REMARK       I    between atoms: N_3  and  C_29 
REMARK    4  A    between atoms: C_5  and  C_32 
REMARK    5  A    between atoms: C_5  and  C_6 
REMARK    6  A    between atoms: C_5  and  N_18 
REMARK    7  A    between atoms: C_6  and  C_7 
REMARK    8  A    between atoms: C_7  and  C_11 
REMARK    9  A    between atoms: C_11  and  N_19 
REMARK   10  A    between atoms: C_23  and  C_31 
REMARK   11  A    between atoms: N_25  and  C_28 
REMARK       I    between atoms: N_25  and  C_32 
REMARK   12  A    between atoms: C_27  and  C_28 
ROOT
HETATM    1  H           1     -33.961  -1.343 -13.578  0.00  0.00     0.163 HD
HETATM    2  O           1     -37.000  -1.031 -12.864  0.00  0.00    -0.271 OA
HETATM    3  N           1     -34.830  -1.511 -13.087  0.00  0.00    -0.345 N 
HETATM    4  C           1     -35.963  -0.832 -13.450  0.00  0.00     0.249 C 
ENDROOT
BRANCH   3   5
HETATM    5  C           1     -34.876  -2.468 -11.999  0.00  0.00     0.185 C 
BRANCH   5   6
HETATM    6  C           1     -33.963  -3.643 -12.319  0.00  0.00     0.038 C 
BRANCH   6   7
HETATM    7  C           1     -34.706  -4.948 -12.068  0.00  0.00     0.023 C 
BRANCH   7   8
HETATM    8  C           1     -34.363  -5.470 -10.680  0.00  0.00     0.138 C 
BRANCH   8   9
HETATM    9  N           1     -33.691  -6.772 -10.799  0.00  0.00    -0.227 N 
HETATM   10  C           1     -34.167  -7.786 -10.210  0.00  0.00     0.665 C 
HETATM   11  N           1     -35.222  -7.680  -9.520  0.00  0.00    -0.235 N 
HETATM   12  N           1     -33.572  -8.937 -10.315  0.00  0.00    -0.235 N 
HETATM   13  H           1     -35.703  -6.750  -9.436  0.00  0.00     0.174 HD
HETATM   14  H           1     -35.618  -8.522  -9.032  0.00  0.00     0.174 HD
HETATM   15  H           1     -32.700  -9.026 -10.885  0.00  0.00     0.174 HD
HETATM   16  H           1     -33.965  -9.775  -9.829  0.00  0.00     0.174 HD
HETATM   17  H           1     -32.814  -6.860 -11.371  0.00  0.00     0.177 HD
ENDBRANCH   8   9
ENDBRANCH   7   8
ENDBRANCH   6   7
ENDBRANCH   5   6
BRANCH   5  18
HETATM   18  C           1     -34.415  -1.803 -10.725  0.00  0.00     0.196 C 
HETATM   19  O           1     -35.247  -1.250  -9.973  0.00  0.00    -0.646 OA
HETATM   20  O           1     -33.203  -1.806 -10.422  0.00  0.00    -0.646 OA
ENDBRANCH   5  18
ENDBRANCH   3   5
BRANCH   4  21
HETATM   21  C           1     -35.915   0.164 -14.583  0.00  0.00     0.274 C 
BRANCH  21  22
HETATM   22  C           1     -36.466  -0.478 -15.849  0.00  0.00     0.044 C 
BRANCH  22  23
HETATM   23  C           1     -35.311  -0.919 -16.739  0.00  0.00     0.030 C 
BRANCH  23  24
HETATM   24  C           1     -35.105  -2.421 -16.597  0.00  0.00     0.230 C 
BRANCH  24  25
HETATM   25  N           1     -33.821  -2.816 -17.264  0.00  0.00    -0.079 N 
HETATM   26  H           1     -33.158  -3.192 -16.550  0.00  0.00     0.274 HD
HETATM   27  H           1     -34.015  -3.552 -17.982  0.00  0.00     0.274 HD
HETATM   28  H           1     -33.397  -1.980 -17.726  0.00  0.00     0.274 HD
ENDBRANCH  24  25
ENDBRANCH  23  24
ENDBRANCH  22  23
ENDBRANCH  21  22
BRANCH  21  29
HETATM   29  N           1     -34.495   0.588 -14.815  0.00  0.00    -0.067 N 
HETATM   30  H           1     -33.856  -0.216 -14.624  0.00  0.00     0.275 HD
HETATM   31  H           1     -34.260   1.381 -14.177  0.00  0.00     0.275 HD
HETATM   32  H           1     -34.381   0.895 -15.808  0.00  0.00     0.275 HD
ENDBRANCH  21  29
ENDBRANCH   4  21
TORSDOF 12
ENDMDL
MODEL 3
REMARK VINA RESULT:      -6.9      9.927     12.269
REMARK  12 active torsions:
REMARK  status: ('A' for Active; 'I' for Inactive)
REMARK    1  A    between atoms: C_1  and  C_31 
REMARK    2  A    between atoms: C_1  and  C_28 
REMARK       I    between atoms: N_2  and  C_29 
REMARK    3  A    between atoms: N_2  and  C_23 
REMARK       I    between atoms: N_3  and  C_29 
REMARK    4  A    between atoms: C_5  and  C_32 
REMARK    5  A    between atoms: C_5  and  C_6 
REMARK    6  A    between atoms: C_5  and  N_18 
REMARK    7  A    between atoms: C_6  and  C_7 
REMARK    8  A    between atoms: C_7  and  C_11 
REMARK    9  A    between atoms: C_11  and  N_19 
REMARK   10  A    between atoms: C_23  and  C_31 
REMARK   11  A    between atoms: N_25  and  C_28 
REMARK       I    between atoms: N_25  and  C_32 
REMARK   12  A    between atoms: C_27  and  C_28 
ROOT
HETATM    1  H           1     -26.267  -7.221 -17.005  0.00  0.00     0.163 HD
HETATM    2  O           1     -27.541  -5.973 -19.586  0.00  0.00    -0.271 OA
HETATM    3  N           1     -26.982  -6.811 -17.592  0.00  0.00    -0.345 N 
HETATM    4  C           1     -26.689  -6.463 -18.884  0.00  0.00     0.249 C 
ENDROOT
BRANCH   3   5
HETATM    5  C           1     -28.315  -6.590 -17.067  0.00  0.00     0.185 C 
BRANCH   5   6
HETATM    6  C           1     -29.223  -7.735 -17.492  0.00  0.00     0.038 C 
BRANCH   6   7
HETATM    7  C           1     -30.503  -7.171 -18.095  0.00  0.00     0.023 C 
BRANCH   7   8
HETATM    8  C           1     -30.650  -5.709 -17.700  0.00  0.00     0.138 C 
BRANCH   8   9
HETATM    9  N           1     -31.853  -5.542 -16.873  0.00  0.00    -0.227 N 
HETATM   10  C           1     -32.414  -4.410 -16.792  0.00  0.00     0.665 C 
HETATM   11  N           1     -31.938  -3.422 -17.424  0.00  0.00    -0.235 N 
HETATM   12  N           1     -33.478  -4.263 -16.060  0.00  0.00    -0.235 N 
HETATM   13  H           1     -31.079  -3.541 -18.015  0.00  0.00     0.174 HD
HETATM   14  H           1     -32.404  -2.482 -17.357  0.00  0.00     0.174 HD
HETATM   15  H           1     -33.871  -5.079 -15.538  0.00  0.00     0.174 HD
HETATM   16  H           1     -33.942  -3.328 -15.993  0.00  0.00     0.174 HD
HETATM   17  H           1     -32.248  -6.362 -16.348  0.00  0.00     0.177 HD
ENDBRANCH   8   9
ENDBRANCH   7   8
ENDBRANCH   6   7
ENDBRANCH   5   6
BRANCH   5  18
HETATM   18  C           1     -28.257  -6.526 -15.560  0.00  0.00     0.196 C 
HETATM   19  O           1     -27.826  -7.503 -14.910  0.00  0.00    -0.646 OA
HETATM   20  O           1     -28.637  -5.496 -14.963  0.00  0.00    -0.646 OA
ENDBRANCH   5  18
ENDBRANCH   3   5
BRANCH   4  21
HETATM   21  C           1     -25.301  -6.693 -19.431  0.00  0.00     0.274 C 
BRANCH  21  22
HETATM   22  C           1     -25.373  -7.648 -20.615  0.00  0.00     0.044 C 
BRANCH  22  23
HETATM   23  C           1     -24.560  -7.084 -21.773  0.00  0.00     0.030 C 
BRANCH  23  24
HETATM   24  C           1     -23.628  -8.161 -22.311  0.00  0.00     0.230 C 
BRANCH  24  25
HETATM   25  N           1     -23.025  -8.920 -21.166  0.00  0.00    -0.079 N 
HETATM   26  H           1     -22.095  -8.510 -20.927  0.00  0.00     0.274 HD
HETATM   27  H           1     -23.658  -8.858 -20.337  0.00  0.00     0.274 HD
HETATM   28  H           1     -22.903  -9.922 -21.439  0.00  0.00     0.274 HD
ENDBRANCH  24  25
ENDBRANCH  23  24
ENDBRANCH  22  23
ENDBRANCH  21  22
BRANCH  21  29
HETATM   29  N           1     -24.435  -7.288 -18.361  0.00  0.00    -0.067 N 
HETATM   30  H           1     -24.455  -8.330 -18.437  0.00  0.00     0.275 HD
HETATM   31  H           1     -24.793  -6.999 -17.424  0.00  0.00     0.275 HD
HETATM   32  H           1     -23.453  -6.949 -18.479  0.00  0.00     0.275 HD
ENDBRANCH  21  29
ENDBRANCH   4  21
TORSDOF 12
ENDMDL
MODEL 4
REMARK VINA RESULT:      -6.4      2.276      8.472
REMARK  12 active torsions:
REMARK  status: ('A' for Active; 'I' for Inactive)
REMARK    1  A    between atoms: C_1  and  C_31 
REMARK    2  A    between atoms: C_1  and  C_28 
REMARK       I    between atoms: N_2  and  C_29 
REMARK    3  A    between atoms: N_2  and  C_23 
REMARK       I    between atoms: N_3  and  C_29 
REMARK    4  A    between atoms: C_5  and  C_32 
REMARK    5  A    between atoms: C_5  and  C_6 
REMARK    6  A    between atoms: C_5  and  N_18 
REMARK    7  A    between atoms: C_6  and  C_7 
REMARK    8  A    between atoms: C_7  and  C_11 
REMARK    9  A    between atoms: C_11  and  N_19 
REMARK   10  A    between atoms: C_23  and  C_31 
REMARK   11  A    between atoms: N_25  and  C_28 
REMARK       I    between atoms: N_25  and  C_32 
REMARK   12  A    between atoms: C_27  and  C_28 
ROOT
HETATM    1  H           1     -22.420  -6.213  -8.910  0.00  0.00     0.163 HD
HETATM    2  O           1     -23.076  -3.172  -8.506  0.00  0.00    -0.271 OA
HETATM    3  N           1     -22.320  -5.273  -8.548  0.00  0.00    -0.345 N 
HETATM    4  C           1     -23.194  -4.294  -8.938  0.00  0.00     0.249 C 
ENDROOT
BRANCH   3   5
HETATM    5  C           1     -21.253  -4.963  -7.617  0.00  0.00     0.185 C 
BRANCH   5   6
HETATM    6  C           1     -21.014  -6.158  -6.704  0.00  0.00     0.038 C 
BRANCH   6   7
HETATM    7  C           1     -21.927  -6.061  -5.490  0.00  0.00     0.023 C 
BRANCH   7   8
HETATM    8  C           1     -21.086  -6.035  -4.221  0.00  0.00     0.138 C 
BRANCH   8   9
HETATM    9  N           1     -21.969  -6.037  -3.046  0.00  0.00    -0.227 N 
HETATM   10  C           1     -21.722  -6.805  -2.071  0.00  0.00     0.665 C 
HETATM   11  N           1     -20.714  -7.570  -2.107  0.00  0.00    -0.235 N 
HETATM   12  N           1     -22.503  -6.807  -1.031  0.00  0.00    -0.235 N 
HETATM   13  H           1     -20.083  -7.568  -2.946  0.00  0.00     0.174 HD
HETATM   14  H           1     -20.509  -8.207  -1.297  0.00  0.00     0.174 HD
HETATM   15  H           1     -23.335  -6.175  -1.001  0.00  0.00     0.174 HD
HETATM   16  H           1     -22.299  -7.441  -0.226  0.00  0.00     0.174 HD
HETATM   17  H           1     -22.805  -5.402  -3.017  0.00  0.00     0.177 HD
ENDBRANCH   8   9
ENDBRANCH   7   8
ENDBRANCH   6   7
ENDBRANCH   5   6
BRANCH   5  18
HETATM   18  C           1     -19.991  -4.655  -8.385  0.00  0.00     0.196 C 
HETATM   19  O           1     -19.982  -4.739  -9.632  0.00  0.00    -0.646 OA
HETATM   20  O           1     -18.955  -4.314  -7.773  0.00  0.00    -0.646 OA
ENDBRANCH   5  18
ENDBRANCH   3   5
BRANCH   4  21
HETATM   21  C           1     -24.305  -4.616  -9.907  0.00  0.00     0.274 C 
BRANCH  21  22
HETATM   22  C           1     -23.745  -4.675 -11.322  0.00  0.00     0.044 C 
BRANCH  22  23
HETATM   23  C           1     -23.854  -3.301 -11.970  0.00  0.00     0.030 C 
BRANCH  23  24
HETATM   24  C           1     -22.459  -2.755 -12.242  0.00  0.00     0.230 C 
BRANCH  24  25
HETATM   25  N           1     -21.474  -3.887 -12.271  0.00  0.00    -0.079 N 
HETATM   26  H           1     -20.528  -3.520 -12.518  0.00  0.00     0.274 HD
HETATM   27  H           1     -21.438  -4.341 -11.330  0.00  0.00     0.274 HD
HETATM   28  H           1     -21.772  -4.589 -12.986  0.00  0.00     0.274 HD
ENDBRANCH  24  25
ENDBRANCH  23  24
ENDBRANCH  22  23
ENDBRANCH  21  22
BRANCH  21  29
HETATM   29  N           1     -25.358  -3.550  -9.832  0.00  0.00    -0.067 N 
HETATM   30  H           1     -26.130  -3.775 -10.499  0.00  0.00     0.275 HD
HETATM   31  H           1     -24.937  -2.628 -10.082  0.00  0.00     0.275 HD
HETATM   32  H           1     -25.740  -3.506  -8.860  0.00  0.00     0.275 HD
ENDBRANCH  21  29
ENDBRANCH   4  21
TORSDOF 12
ENDMDL
MODEL 5
REMARK VINA RESULT:      -6.4      2.366      3.601
REMARK  12 active torsions:
REMARK  status: ('A' for Active; 'I' for Inactive)
REMARK    1  A    between atoms: C_1  and  C_31 
REMARK    2  A    between atoms: C_1  and  C_28 
REMARK       I    between atoms: N_2  and  C_29 
REMARK    3  A    between atoms: N_2  and  C_23 
REMARK       I    between atoms: N_3  and  C_29 
REMARK    4  A    between atoms: C_5  and  C_32 
REMARK    5  A    between atoms: C_5  and  C_6 
REMARK    6  A    between atoms: C_5  and  N_18 
REMARK    7  A    between atoms: C_6  and  C_7 
REMARK    8  A    between atoms: C_7  and  C_11 
REMARK    9  A    between atoms: C_11  and  N_19 
REMARK   10  A    between atoms: C_23  and  C_31 
REMARK   11  A    between atoms: N_25  and  C_28 
REMARK       I    between atoms: N_25  and  C_32 
REMARK   12  A    between atoms: C_27  and  C_28 
ROOT
HETATM    1  H           1     -21.329  -4.107  -6.118  0.00  0.00     0.163 HD
HETATM    2  O           1     -21.231  -7.148  -6.886  0.00  0.00    -0.271 OA
HETATM    3  N           1     -21.360  -4.925  -6.714  0.00  0.00    -0.345 N 
HETATM    4  C           1     -21.195  -6.172  -6.174  0.00  0.00     0.249 C 
ENDROOT
BRANCH   3   5
HETATM    5  C           1     -21.579  -4.775  -8.140  0.00  0.00     0.185 C 
BRANCH   5   6
HETATM    6  C           1     -22.547  -3.626  -8.386  0.00  0.00     0.038 C 
BRANCH   6   7
HETATM    7  C           1     -23.870  -4.178  -8.901  0.00  0.00     0.023 C 
BRANCH   7   8
HETATM    8  C           1     -24.115  -3.672 -10.316  0.00  0.00     0.138 C 
BRANCH   8   9
HETATM    9  N           1     -22.984  -4.050 -11.175  0.00  0.00    -0.227 N 
HETATM   10  C           1     -22.656  -3.314 -12.151  0.00  0.00     0.665 C 
HETATM   11  N           1     -23.303  -2.252 -12.386  0.00  0.00    -0.235 N 
HETATM   12  N           1     -21.656  -3.648 -12.910  0.00  0.00    -0.235 N 
HETATM   13  H           1     -24.111  -1.982 -11.773  0.00  0.00     0.174 HD
HETATM   14  H           1     -23.031  -1.640 -13.196  0.00  0.00     0.174 HD
HETATM   15  H           1     -21.122  -4.526 -12.716  0.00  0.00     0.174 HD
HETATM   16  H           1     -21.385  -3.040 -13.716  0.00  0.00     0.174 HD
HETATM   17  H           1     -22.448  -4.932 -10.979  0.00  0.00     0.177 HD
ENDBRANCH   8   9
ENDBRANCH   7   8
ENDBRANCH   6   7
ENDBRANCH   5   6
BRANCH   5  18
HETATM   18  C           1     -20.265  -4.481  -8.821  0.00  0.00     0.196 C 
HETATM   19  O           1     -20.163  -4.606 -10.061  0.00  0.00    -0.646 OA
HETATM   20  O           1     -19.280  -4.110  -8.147  0.00  0.00    -0.646 OA
ENDBRANCH   5  18
ENDBRANCH   3   5
BRANCH   4  21
HETATM   21  C           1     -20.967  -6.328  -4.691  0.00  0.00     0.274 C 
BRANCH  21  22
HETATM   22  C           1     -20.390  -7.709  -4.408  0.00  0.00     0.044 C 
BRANCH  22  23
HETATM   23  C           1     -21.419  -8.546  -3.658  0.00  0.00     0.030 C 
BRANCH  23  24
HETATM   24  C           1     -21.556  -9.905  -4.331  0.00  0.00     0.230 C 
BRANCH  24  25
HETATM   25  N           1     -20.897  -9.867  -5.678  0.00  0.00    -0.079 N 
HETATM   26  H           1     -20.343 -10.740  -5.820  0.00  0.00     0.274 HD
HETATM   27  H           1     -21.629  -9.793  -6.421  0.00  0.00     0.274 HD
HETATM   28  H           1     -20.261  -9.039  -5.731  0.00  0.00     0.274 HD
ENDBRANCH  24  25
ENDBRANCH  23  24
ENDBRANCH  22  23
ENDBRANCH  21  22
BRANCH  21  29
HETATM   29  N           1     -22.272  -6.175  -3.967  0.00  0.00    -0.067 N 
HETATM   30  H           1     -22.172  -6.533  -2.991  0.00  0.00     0.275 HD
HETATM   31  H           1     -23.012  -6.718  -4.466  0.00  0.00     0.275 HD
HETATM   32  H           1     -22.539  -5.165  -3.941  0.00  0.00     0.275 HD
ENDBRANCH  21  29
ENDBRANCH   4  21
TORSDOF 12
ENDMDL
MODEL 6
REMARK VINA RESULT:      -6.3      2.608      8.176
REMARK  12 active torsions:
REMARK  status: ('A' for Active; 'I' for Inactive)
REMARK    1  A    between atoms: C_1  and  C_31 
REMARK    2  A    between atoms: C_1  and  C_28 
REMARK       I    between atoms: N_2  and  C_29 
REMARK    3  A    between atoms: N_2  and  C_23 
REMARK       I    between atoms: N_3  and  C_29 
REMARK    4  A    between atoms: C_5  and  C_32 
REMARK    5  A    between atoms: C_5  and  C_6 
REMARK    6  A    between atoms: C_5  and  N_18 
REMARK    7  A    between atoms: C_6  and  C_7 
REMARK    8  A    between atoms: C_7  and  C_11 
REMARK    9  A    between atoms: C_11  and  N_19 
REMARK   10  A    between atoms: C_23  and  C_31 
REMARK   11  A    between atoms: N_25  and  C_28 
REMARK       I    between atoms: N_25  and  C_32 
REMARK   12  A    between atoms: C_27  and  C_28 
ROOT
HETATM    1  H           1     -22.604  -5.831  -7.073  0.00  0.00     0.163 HD
HETATM    2  O           1     -21.688  -3.173  -8.467  0.00  0.00    -0.271 OA
HETATM    3  N           1     -22.036  -5.011  -7.246  0.00  0.00    -0.345 N 
HETATM    4  C           1     -22.366  -4.151  -8.259  0.00  0.00     0.249 C 
ENDROOT
BRANCH   3   5
HETATM    5  C           1     -20.871  -4.749  -6.424  0.00  0.00     0.185 C 
BRANCH   5   6
HETATM    6  C           1     -21.024  -5.460  -5.087  0.00  0.00     0.038 C 
BRANCH   6   7
HETATM    7  C           1     -22.188  -6.438  -5.161  0.00  0.00     0.023 C 
BRANCH   7   8
HETATM    8  C           1     -21.738  -7.803  -4.659  0.00  0.00     0.138 C 
BRANCH   8   9
HETATM    9  N           1     -20.707  -8.341  -5.557  0.00  0.00    -0.227 N 
HETATM   10  C           1     -19.634  -8.811  -5.079  0.00  0.00     0.665 C 
HETATM   11  N           1     -19.449  -8.819  -3.827  0.00  0.00    -0.235 N 
HETATM   12  N           1     -18.721  -9.287  -5.874  0.00  0.00    -0.235 N 
HETATM   13  H           1     -20.185  -8.434  -3.185  0.00  0.00     0.174 HD
HETATM   14  H           1     -18.558  -9.209  -3.430  0.00  0.00     0.174 HD
HETATM   15  H           1     -18.874  -9.281  -6.908  0.00  0.00     0.174 HD
HETATM   16  H           1     -17.835  -9.676  -5.479  0.00  0.00     0.174 HD
HETATM   17  H           1     -20.861  -8.335  -6.597  0.00  0.00     0.177 HD
ENDBRANCH   8   9
ENDBRANCH   7   8
ENDBRANCH   6   7
ENDBRANCH   5   6
BRANCH   5  18
HETATM   18  C           1     -19.635  -5.256  -7.126  0.00  0.00     0.196 C 
HETATM   19  O           1     -19.536  -6.467  -7.419  0.00  0.00    -0.646 OA
HETATM   20  O           1     -18.712  -4.464  -7.415  0.00  0.00    -0.646 OA
ENDBRANCH   5  18
ENDBRANCH   3   5
BRANCH   4  21
HETATM   21  C           1     -23.578  -4.424  -9.116  0.00  0.00     0.274 C 
BRANCH  21  22
HETATM   22  C           1     -23.158  -4.516 -10.577  0.00  0.00     0.044 C 
BRANCH  22  23
HETATM   23  C           1     -23.808  -3.386 -11.365  0.00  0.00     0.030 C 
BRANCH  23  24
HETATM   24  C           1     -22.744  -2.651 -12.169  0.00  0.00     0.230 C 
BRANCH  24  25
HETATM   25  N           1     -21.385  -2.996 -11.636  0.00  0.00    -0.079 N 
HETATM   26  H           1     -20.857  -2.118 -11.431  0.00  0.00     0.274 HD
HETATM   27  H           1     -21.487  -3.555 -10.759  0.00  0.00     0.274 HD
HETATM   28  H           1     -20.864  -3.555 -12.349  0.00  0.00     0.274 HD
ENDBRANCH  24  25
ENDBRANCH  23  24
ENDBRANCH  22  23
ENDBRANCH  21  22
BRANCH  21  29
HETATM   29  N           1     -24.568  -3.309  -8.950  0.00  0.00    -0.067 N 
HETATM   30  H           1     -25.530  -3.666  -9.146  0.00  0.00     0.275 HD
HETATM   31  H           1     -24.338  -2.539  -9.618  0.00  0.00     0.275 HD
HETATM   32  H           1     -24.524  -2.946  -7.971  0.00  0.00     0.275 HD
ENDBRANCH  21  29
ENDBRANCH   4  21
TORSDOF 12
ENDMDL
MODEL 7
REMARK VINA RESULT:      -6.2      2.893      9.592
REMARK  12 active torsions:
REMARK  status: ('A' for Active; 'I' for Inactive)
REMARK    1  A    between atoms: C_1  and  C_31 
REMARK    2  A    between atoms: C_1  and  C_28 
REMARK       I    between atoms: N_2  and  C_29 
REMARK    3  A    between atoms: N_2  and  C_23 
REMARK       I    between atoms: N_3  and  C_29 
REMARK    4  A    between atoms: C_5  and  C_32 
REMARK    5  A    between atoms: C_5  and  C_6 
REMARK    6  A    between atoms: C_5  and  N_18 
REMARK    7  A    between atoms: C_6  and  C_7 
REMARK    8  A    between atoms: C_7  and  C_11 
REMARK    9  A    between atoms: C_11  and  N_19 
REMARK   10  A    between atoms: C_23  and  C_31 
REMARK   11  A    between atoms: N_25  and  C_28 
REMARK       I    between atoms: N_25  and  C_32 
REMARK   12  A    between atoms: C_27  and  C_28 
ROOT
HETATM    1  H           1     -21.737  -7.115  -7.297  0.00  0.00     0.163 HD
HETATM    2  O           1     -20.455  -4.431  -6.298  0.00  0.00    -0.271 OA
HETATM    3  N           1     -21.248  -6.485  -6.673  0.00  0.00    -0.345 N 
HETATM    4  C           1     -21.039  -5.183  -7.042  0.00  0.00     0.249 C 
ENDROOT
BRANCH   3   5
HETATM    5  C           1     -20.769  -6.961  -5.390  0.00  0.00     0.185 C 
BRANCH   5   6
HETATM    6  C           1     -21.898  -6.894  -4.371  0.00  0.00     0.038 C 
BRANCH   6   7
HETATM    7  C           1     -21.407  -6.192  -3.112  0.00  0.00     0.023 C 
BRANCH   7   8
HETATM    8  C           1     -21.235  -7.212  -1.995  0.00  0.00     0.138 C 
BRANCH   8   9
HETATM    9  N           1     -22.395  -7.153  -1.094  0.00  0.00    -0.227 N 
HETATM   10  C           1     -22.480  -7.955  -0.119  0.00  0.00     0.665 C 
HETATM   11  N           1     -21.566  -8.808   0.081  0.00  0.00    -0.235 N 
HETATM   12  N           1     -23.506  -7.903   0.678  0.00  0.00    -0.235 N 
HETATM   13  H           1     -20.738  -8.850  -0.563  0.00  0.00     0.174 HD
HETATM   14  H           1     -21.637  -9.474   0.890  0.00  0.00     0.174 HD
HETATM   15  H           1     -24.261  -7.199   0.513  0.00  0.00     0.174 HD
HETATM   16  H           1     -23.577  -8.565   1.484  0.00  0.00     0.174 HD
HETATM   17  H           1     -23.153  -6.445  -1.260  0.00  0.00     0.177 HD
ENDBRANCH   8   9
ENDBRANCH   7   8
ENDBRANCH   6   7
ENDBRANCH   5   6
BRANCH   5  18
HETATM   18  C           1     -20.298  -8.388  -5.527  0.00  0.00     0.196 C 
HETATM   19  O           1     -19.074  -8.643  -5.540  0.00  0.00    -0.646 OA
HETATM   20  O           1     -21.131  -9.315  -5.627  0.00  0.00    -0.646 OA
ENDBRANCH   5  18
ENDBRANCH   3   5
BRANCH   4  21
HETATM   21  C           1     -21.537  -4.688  -8.378  0.00  0.00     0.274 C 
BRANCH  21  22
HETATM   22  C           1     -20.372  -4.115  -9.174  0.00  0.00     0.044 C 
BRANCH  22  23
HETATM   23  C           1     -20.568  -4.422 -10.653  0.00  0.00     0.030 C 
BRANCH  23  24
HETATM   24  C           1     -21.227  -3.231 -11.336  0.00  0.00     0.230 C 
BRANCH  24  25
HETATM   25  N           1     -21.655  -3.619 -12.720  0.00  0.00    -0.079 N 
HETATM   26  H           1     -22.419  -4.330 -12.663  0.00  0.00     0.274 HD
HETATM   27  H           1     -22.003  -2.773 -13.227  0.00  0.00     0.274 HD
HETATM   28  H           1     -20.841  -4.025 -13.235  0.00  0.00     0.274 HD
ENDBRANCH  24  25
ENDBRANCH  23  24
ENDBRANCH  22  23
ENDBRANCH  21  22
BRANCH  21  29
HETATM   29  N           1     -22.567  -3.619  -8.161  0.00  0.00    -0.067 N 
HETATM   30  H           1     -23.429  -4.045  -7.751  0.00  0.00     0.275 HD
HETATM   31  H           1     -22.799  -3.170  -9.075  0.00  0.00     0.275 HD
HETATM   32  H           1     -22.189  -2.899  -7.505  0.00  0.00     0.275 HD
ENDBRANCH  21  29
ENDBRANCH   4  21
TORSDOF 12
ENDMDL
MODEL 8
REMARK VINA RESULT:      -6.2      3.339      4.921
REMARK  12 active torsions:
REMARK  status: ('A' for Active; 'I' for Inactive)
REMARK    1  A    between atoms: C_1  and  C_31 
REMARK    2  A    between atoms: C_1  and  C_28 
REMARK       I    between atoms: N_2  and  C_29 
REMARK    3  A    between atoms: N_2  and  C_23 
REMARK       I    between atoms: N_3  and  C_29 
REMARK    4  A    between atoms: C_5  and  C_32 
REMARK    5  A    between atoms: C_5  and  C_6 
REMARK    6  A    between atoms: C_5  and  N_18 
REMARK    7  A    between atoms: C_6  and  C_7 
REMARK    8  A    between atoms: C_7  and  C_11 
REMARK    9  A    between atoms: C_11  and  N_19 
REMARK   10  A    between atoms: C_23  and  C_31 
REMARK   11  A    between atoms: N_25  and  C_28 
REMARK       I    between atoms: N_25  and  C_32 
REMARK   12  A    between atoms: C_27  and  C_28 
ROOT
HETATM    1  H           1     -20.914  -4.557  -4.562  0.00  0.00     0.163 HD
HETATM    2  O           1     -21.462  -7.646  -4.542  0.00  0.00    -0.271 OA
HETATM    3  N           1     -21.085  -5.481  -4.939  0.00  0.00    -0.345 N 
HETATM    4  C           1     -21.258  -6.543  -4.093  0.00  0.00     0.249 C 
ENDROOT
BRANCH   3   5
HETATM    5  C           1     -21.144  -5.679  -6.373  0.00  0.00     0.185 C 
BRANCH   5   6
HETATM    6  C           1     -21.855  -4.498  -7.020  0.00  0.00     0.038 C 
BRANCH   6   7
HETATM    7  C           1     -22.053  -4.774  -8.504  0.00  0.00     0.023 C 
BRANCH   7   8
HETATM    8  C           1     -22.644  -3.542  -9.175  0.00  0.00     0.138 C 
BRANCH   8   9
HETATM    9  N           1     -24.081  -3.464  -8.878  0.00  0.00    -0.227 N 
HETATM   10  C           1     -24.923  -3.436  -9.823  0.00  0.00     0.665 C 
HETATM   11  N           1     -24.526  -3.475 -11.025  0.00  0.00    -0.235 N 
HETATM   12  N           1     -26.194  -3.367  -9.561  0.00  0.00    -0.235 N 
HETATM   13  H           1     -23.499  -3.531 -11.237  0.00  0.00     0.174 HD
HETATM   14  H           1     -25.224  -3.452 -11.810  0.00  0.00     0.174 HD
HETATM   15  H           1     -26.522  -3.334  -8.569  0.00  0.00     0.174 HD
HETATM   16  H           1     -26.889  -3.344 -10.341  0.00  0.00     0.174 HD
HETATM   17  H           1     -24.410  -3.431  -7.881  0.00  0.00     0.177 HD
ENDBRANCH   8   9
ENDBRANCH   7   8
ENDBRANCH   6   7
ENDBRANCH   5   6
BRANCH   5  18
HETATM   18  C           1     -19.743  -5.787  -6.925  0.00  0.00     0.196 C 
HETATM   19  O           1     -19.099  -4.751  -7.199  0.00  0.00    -0.646 OA
HETATM   20  O           1     -19.227  -6.910  -7.105  0.00  0.00    -0.646 OA
ENDBRANCH   5  18
ENDBRANCH   3   5
BRANCH   4  21
HETATM   21  C           1     -21.196  -6.337  -2.599  0.00  0.00     0.274 C 
BRANCH  21  22
HETATM   22  C           1     -20.831  -7.650  -1.919  0.00  0.00     0.044 C 
BRANCH  22  23
HETATM   23  C           1     -21.813  -7.926  -0.788  0.00  0.00     0.030 C 
BRANCH  23  24
HETATM   24  C           1     -22.352  -9.344  -0.918  0.00  0.00     0.230 C 
BRANCH  24  25
HETATM   25  N           1     -21.514 -10.112  -1.897  0.00  0.00    -0.079 N 
HETATM   26  H           1     -21.000  -9.445  -2.515  0.00  0.00     0.274 HD
HETATM   27  H           1     -20.827 -10.705  -1.377  0.00  0.00     0.274 HD
HETATM   28  H           1     -22.130 -10.721  -2.480  0.00  0.00     0.274 HD
ENDBRANCH  24  25
ENDBRANCH  23  24
ENDBRANCH  22  23
ENDBRANCH  21  22
BRANCH  21  29
HETATM   29  N           1     -22.534  -5.873  -2.103  0.00  0.00    -0.067 N 
HETATM   30  H           1     -22.898  -5.125  -2.735  0.00  0.00     0.275 HD
HETATM   31  H           1     -22.433  -5.496  -1.135  0.00  0.00     0.275 HD
HETATM   32  H           1     -23.201  -6.678  -2.096  0.00  0.00     0.275 HD
ENDBRANCH  21  29
ENDBRANCH   4  21
TORSDOF 12
ENDMDL
MODEL 9
REMARK VINA RESULT:      -6.1      1.696      2.153
REMARK  12 active torsions:
REMARK  status: ('A' for Active; 'I' for Inactive)
REMARK    1  A    between atoms: C_1  and  C_31 
REMARK    2  A    between atoms: C_1  and  C_28 
REMARK       I    between atoms: N_2  and  C_29 
REMARK    3  A    between atoms: N_2  and  C_23 
REMARK       I    between atoms: N_3  and  C_29 
REMARK    4  A    between atoms: C_5  and  C_32 
REMARK    5  A    between atoms: C_5  and  C_6 
REMARK    6  A    between atoms: C_5  and  N_18 
REMARK    7  A    between atoms: C_6  and  C_7 
REMARK    8  A    between atoms: C_7  and  C_11 
REMARK    9  A    between atoms: C_11  and  N_19 
REMARK   10  A    between atoms: C_23  and  C_31 
REMARK   11  A    between atoms: N_25  and  C_28 
REMARK       I    between atoms: N_25  and  C_32 
REMARK   12  A    between atoms: C_27  and  C_28 
ROOT
HETATM    1  H           1     -23.238  -5.541  -7.659  0.00  0.00     0.163 HD
HETATM    2  O           1     -20.699  -3.858  -6.908  0.00  0.00    -0.271 OA
HETATM    3  N           1     -22.520  -4.833  -7.755  0.00  0.00    -0.345 N 
HETATM    4  C           1     -21.555  -4.703  -6.794  0.00  0.00     0.249 C 
ENDROOT
BRANCH   3   5
HETATM    5  C           1     -22.517  -3.957  -8.910  0.00  0.00     0.185 C 
BRANCH   5   6
HETATM    6  C           1     -21.509  -4.468  -9.931  0.00  0.00     0.038 C 
BRANCH   6   7
HETATM    7  C           1     -21.110  -3.332 -10.864  0.00  0.00     0.023 C 
BRANCH   7   8
HETATM    8  C           1     -21.517  -3.678 -12.289  0.00  0.00     0.138 C 
BRANCH   8   9
HETATM    9  N           1     -22.331  -2.588 -12.845  0.00  0.00    -0.227 N 
HETATM   10  C           1     -23.517  -2.815 -13.226  0.00  0.00     0.665 C 
HETATM   11  N           1     -24.001  -3.980 -13.128  0.00  0.00    -0.235 N 
HETATM   12  N           1     -24.237  -1.851 -13.718  0.00  0.00    -0.235 N 
HETATM   13  H           1     -23.419  -4.759 -12.731  0.00  0.00     0.174 HD
HETATM   14  H           1     -24.985  -4.169 -13.444  0.00  0.00     0.174 HD
HETATM   15  H           1     -23.837  -0.888 -13.799  0.00  0.00     0.174 HD
HETATM   16  H           1     -25.216  -2.037 -14.033  0.00  0.00     0.174 HD
HETATM   17  H           1     -21.929  -1.621 -12.926  0.00  0.00     0.177 HD
ENDBRANCH   8   9
ENDBRANCH   7   8
ENDBRANCH   6   7
ENDBRANCH   5   6
BRANCH   5  18
HETATM   18  C           1     -23.893  -3.934  -9.528  0.00  0.00     0.196 C 
HETATM   19  O           1     -24.305  -4.923 -10.172  0.00  0.00    -0.646 OA
HETATM   20  O           1     -24.622  -2.927  -9.396  0.00  0.00    -0.646 OA
ENDBRANCH   5  18
ENDBRANCH   3   5
BRANCH   4  21
HETATM   21  C           1     -21.558  -5.615  -5.591  0.00  0.00     0.274 C 
BRANCH  21  22
HETATM   22  C           1     -20.735  -6.860  -5.895  0.00  0.00     0.044 C 
BRANCH  22  23
HETATM   23  C           1     -21.232  -8.018  -5.040  0.00  0.00     0.030 C 
BRANCH  23  24
HETATM   24  C           1     -20.094  -8.529  -4.166  0.00  0.00     0.230 C 
BRANCH  24  25
HETATM   25  N           1     -19.613  -9.849  -4.689  0.00  0.00    -0.079 N 
HETATM   26  H           1     -20.239 -10.168  -5.462  0.00  0.00     0.274 HD
HETATM   27  H           1     -18.637  -9.745  -5.052  0.00  0.00     0.274 HD
HETATM   28  H           1     -19.625 -10.555  -3.919  0.00  0.00     0.274 HD
ENDBRANCH  24  25
ENDBRANCH  23  24
ENDBRANCH  22  23
ENDBRANCH  21  22
BRANCH  21  29
HETATM   29  N           1     -22.969  -6.015  -5.273  0.00  0.00    -0.067 N 
HETATM   30  H           1     -23.011  -6.395  -4.301  0.00  0.00     0.275 HD
HETATM   31  H           1     -23.283  -6.746  -5.949  0.00  0.00     0.275 HD
HETATM   32  H           1     -23.593  -5.180  -5.348  0.00  0.00     0.275 HD
ENDBRANCH  21  29
ENDBRANCH   4  21
TORSDOF 12
ENDMDL
