MODEL 1
REMARK VINA RESULT:      -6.5      0.000      0.000
REMARK  4 active torsions:
REMARK  status: ('A' for Active; 'I' for Inactive)
REMARK    1  A    between atoms: C_2  and  C_3 
REMARK    2  A    between atoms: C_3  and  C_15 
REMARK    3  A    between atoms: C_3  and  N_7 
REMARK       I    between atoms: N_7  and  C_13 
REMARK    4  A    between atoms: C_9  and  C_13 
ROOT
HETATM    1  O           1     -34.519  -3.209 -13.458  0.00  0.00    -0.271 OA
HETATM    2  H           1     -34.501  -0.834 -11.408  0.00  0.00     0.163 HD
HETATM    3  N           1     -34.758  -1.354 -12.237  0.00  0.00    -0.344 N 
HETATM    4  C           1     -34.210  -2.588 -12.469  0.00  0.00     0.251 C 
ENDROOT
BRANCH   3   5
HETATM    5  C           1     -35.708  -0.794 -13.179  0.00  0.00     0.189 C 
BRANCH   5   6
HETATM    6  C           1     -36.786  -0.030 -12.421  0.00  0.00     0.010 C 
HETATM    7  C           1     -37.031  -0.697 -11.075  0.00  0.00     0.012 C 
HETATM    8  C           1     -38.074  -0.035 -13.233  0.00  0.00     0.012 C 
ENDBRANCH   5   6
BRANCH   5   9
HETATM    9  C           1     -34.991   0.146 -14.117  0.00  0.00     0.197 C 
HETATM   10  O           1     -34.681   1.295 -13.733  0.00  0.00    -0.646 OA
HETATM   11  O           1     -34.708  -0.223 -15.276  0.00  0.00    -0.646 OA
ENDBRANCH   5   9
ENDBRANCH   3   5
BRANCH   4  12
HETATM   12  C           1     -33.223  -3.171 -11.487  0.00  0.00     0.311 C 
HETATM   13  N           1     -33.893  -3.571 -10.253  0.00  0.00     0.097 N 
HETATM   14  C           1     -34.531  -4.846 -10.567  0.00  0.00     0.271 C 
HETATM   15  H           1     -33.216  -3.705  -9.502  0.00  0.00     0.317 HD
HETATM   16  C           1     -33.500  -5.570 -11.415  0.00  0.00     0.033 C 
HETATM   17  C           1     -32.637  -4.468 -12.018  0.00  0.00     0.047 C 
ENDBRANCH   4  12
TORSDOF 4
ENDMDL
MODEL 2
REMARK VINA RESULT:      -6.4     11.922     13.920
REMARK  4 active torsions:
REMARK  status: ('A' for Active; 'I' for Inactive)
REMARK    1  A    between atoms: C_2  and  C_3 
REMARK    2  A    between atoms: C_3  and  C_15 
REMARK    3  A    between atoms: C_3  and  N_7 
REMARK       I    between atoms: N_7  and  C_13 
REMARK    4  A    between atoms: C_9  and  C_13 
ROOT
HETATM    1  O           1     -22.807  -3.978  -7.402  0.00  0.00    -0.271 OA
HETATM    2  H           1     -21.434  -5.431  -9.820  0.00  0.00     0.163 HD
HETATM    3  N           1     -22.011  -4.752  -9.340  0.00  0.00    -0.344 N 
HETATM    4  C           1     -22.119  -4.789  -7.975  0.00  0.00     0.251 C 
ENDROOT
BRANCH   3   5
HETATM    5  C           1     -22.723  -3.741 -10.097  0.00  0.00     0.189 C 
BRANCH   5   6
HETATM    6  C           1     -22.086  -3.592 -11.472  0.00  0.00     0.010 C 
HETATM    7  C           1     -20.598  -3.305 -11.315  0.00  0.00     0.012 C 
HETATM    8  C           1     -22.749  -2.440 -12.214  0.00  0.00     0.012 C 
ENDBRANCH   5   6
BRANCH   5   9
HETATM    9  C           1     -24.166  -4.153 -10.253  0.00  0.00     0.197 C 
HETATM   10  O           1     -24.449  -5.332 -10.562  0.00  0.00    -0.646 OA
HETATM   11  O           1     -25.078  -3.318 -10.075  0.00  0.00    -0.646 OA
ENDBRANCH   5   9
ENDBRANCH   3   5
BRANCH   4  12
HETATM   12  C           1     -21.376  -5.841  -7.188  0.00  0.00     0.311 C 
HETATM   13  N           1     -19.985  -5.929  -7.622  0.00  0.00     0.097 N 
HETATM   14  C           1     -19.319  -4.796  -6.985  0.00  0.00     0.271 C 
HETATM   15  H           1     -19.560  -6.798  -7.301  0.00  0.00     0.317 HD
HETATM   16  C           1     -19.922  -4.758  -5.592  0.00  0.00     0.033 C 
HETATM   17  C           1     -21.274  -5.449  -5.724  0.00  0.00     0.047 C 
ENDBRANCH   4  12
TORSDOF 4
ENDMDL
MODEL 3
REMARK VINA RESULT:      -6.3      2.441      5.224
REMARK  4 active torsions:
REMARK  status: ('A' for Active; 'I' for Inactive)
REMARK    1  A    between atoms: C_2  and  C_3 
REMARK    2  A    between atoms: C_3  and  C_15 
REMARK    3  A    between atoms: C_3  and  N_7 
REMARK       I    between atoms: N_7  and  C_13 
REMARK    4  A    between atoms: C_9  and  C_13 
ROOT
HETATM    1  O           1     -36.910  -1.035 -12.960  0.00  0.00    -0.271 OA
HETATM    2  H           1     -33.835  -1.351 -13.495  0.00  0.00     0.163 HD
HETATM    3  N           1     -34.730  -1.512 -13.051  0.00  0.00    -0.344 N 
HETATM    4  C           1     -35.841  -0.842 -13.489  0.00  0.00     0.251 C 
ENDROOT
BRANCH   3   5
HETATM    5  C           1     -34.836  -2.452 -11.952  0.00  0.00     0.189 C 
BRANCH   5   6
HETATM    6  C           1     -33.890  -3.622 -12.190  0.00  0.00     0.010 C 
HETATM    7  C           1     -33.981  -4.063 -13.645  0.00  0.00     0.012 C 
HETATM    8  C           1     -34.280  -4.780 -11.283  0.00  0.00     0.012 C 
ENDBRANCH   5   6
BRANCH   5   9
HETATM    9  C           1     -34.468  -1.762 -10.663  0.00  0.00     0.197 C 
HETATM   10  O           1     -33.270  -1.700 -10.307  0.00  0.00    -0.646 OA
HETATM   11  O           1     -35.358  -1.252  -9.949  0.00  0.00    -0.646 OA
ENDBRANCH   5   9
ENDBRANCH   3   5
BRANCH   4  12
HETATM   12  C           1     -35.730   0.136 -14.634  0.00  0.00     0.311 C 
HETATM   13  N           1     -34.783  -0.345 -15.636  0.00  0.00     0.097 N 
HETATM   14  C           1     -35.518  -1.351 -16.397  0.00  0.00     0.271 C 
HETATM   15  H           1     -34.501   0.413 -16.258  0.00  0.00     0.317 HD
HETATM   16  C           1     -36.904  -0.751 -16.550  0.00  0.00     0.033 C 
HETATM   17  C           1     -37.043   0.230 -15.392  0.00  0.00     0.047 C 
ENDBRANCH   4  12
TORSDOF 4
ENDMDL
MODEL 4
REMARK VINA RESULT:      -5.5      1.968      5.165
REMARK  4 active torsions:
REMARK  status: ('A' for Active; 'I' for Inactive)
REMARK    1  A    between atoms: C_2  and  C_3 
REMARK    2  A    between atoms: C_3  and  C_15 
REMARK    3  A    between atoms: C_3  and  N_7 
REMARK       I    between atoms: N_7  and  C_13 
REMARK    4  A    between atoms: C_9  and  C_13 
ROOT
HETATM    1  O           1     -34.379   0.059 -14.055  0.00  0.00    -0.271 OA
HETATM    2  H           1     -36.722  -1.672 -12.890  0.00  0.00     0.163 HD
HETATM    3  N           1     -35.769  -1.392 -13.079  0.00  0.00    -0.344 N 
HETATM    4  C           1     -35.519  -0.275 -13.830  0.00  0.00     0.251 C 
ENDROOT
BRANCH   3   5
HETATM    5  C           1     -34.666  -2.175 -12.554  0.00  0.00     0.189 C 
BRANCH   5   6
HETATM    6  C           1     -34.889  -2.437 -11.071  0.00  0.00     0.010 C 
HETATM    7  C           1     -35.974  -1.506 -10.547  0.00  0.00     0.012 C 
HETATM    8  C           1     -33.593  -2.183 -10.313  0.00  0.00     0.012 C 
ENDBRANCH   5   6
BRANCH   5   9
HETATM    9  C           1     -34.588  -3.490 -13.290  0.00  0.00     0.197 C 
HETATM   10  O           1     -34.325  -3.506 -14.513  0.00  0.00    -0.646 OA
HETATM   11  O           1     -34.786  -4.562 -12.680  0.00  0.00    -0.646 OA
ENDBRANCH   5   9
ENDBRANCH   3   5
BRANCH   4  12
HETATM   12  C           1     -36.666   0.540 -14.375  0.00  0.00     0.311 C 
HETATM   13  N           1     -36.437   0.888 -15.775  0.00  0.00     0.097 N 
HETATM   14  C           1     -36.770  -0.321 -16.523  0.00  0.00     0.271 C 
HETATM   15  H           1     -37.054   1.647 -16.063  0.00  0.00     0.317 HD
HETATM   16  C           1     -38.009  -0.852 -15.823  0.00  0.00     0.033 C 
HETATM   17  C           1     -37.943  -0.283 -14.411  0.00  0.00     0.047 C 
ENDBRANCH   4  12
TORSDOF 4
ENDMDL
MODEL 5
REMARK VINA RESULT:      -5.5      1.637      2.340
REMARK  4 active torsions:
REMARK  status: ('A' for Active; 'I' for Inactive)
REMARK    1  A    between atoms: C_2  and  C_3 
REMARK    2  A    between atoms: C_3  and  C_15 
REMARK    3  A    between atoms: C_3  and  N_7 
REMARK       I    between atoms: N_7  and  C_13 
REMARK    4  A    between atoms: C_9  and  C_13 
ROOT
HETATM    1  O           1     -34.652  -2.637 -14.122  0.00  0.00    -0.271 OA
HETATM    2  H           1     -36.161  -0.408 -12.511  0.00  0.00     0.163 HD
HETATM    3  N           1     -35.721  -0.854 -13.305  0.00  0.00    -0.344 N 
HETATM    4  C           1     -35.178  -2.105 -13.173  0.00  0.00     0.251 C 
ENDROOT
BRANCH   3   5
HETATM    5  C           1     -35.664  -0.170 -14.582  0.00  0.00     0.189 C 
BRANCH   5   6
HETATM    6  C           1     -37.079   0.072 -15.092  0.00  0.00     0.010 C 
HETATM    7  C           1     -38.075  -0.173 -13.967  0.00  0.00     0.012 C 
HETATM    8  C           1     -37.370  -0.879 -16.245  0.00  0.00     0.012 C 
ENDBRANCH   5   6
BRANCH   5   9
HETATM    9  C           1     -34.958   1.152 -14.413  0.00  0.00     0.197 C 
HETATM   10  O           1     -35.172   2.082 -15.221  0.00  0.00    -0.646 OA
HETATM   11  O           1     -34.159   1.319 -13.467  0.00  0.00    -0.646 OA
ENDBRANCH   5   9
ENDBRANCH   3   5
BRANCH   4  12
HETATM   12  C           1     -35.238  -2.817 -11.844  0.00  0.00     0.311 C 
HETATM   13  N           1     -34.287  -3.925 -11.806  0.00  0.00     0.097 N 
HETATM   14  C           1     -32.990  -3.300 -11.560  0.00  0.00     0.271 C 
HETATM   15  H           1     -34.507  -4.563 -11.042  0.00  0.00     0.317 HD
HETATM   16  C           1     -33.295  -2.220 -10.537  0.00  0.00     0.033 C 
HETATM   17  C           1     -34.775  -1.904 -10.722  0.00  0.00     0.047 C 
ENDBRANCH   4  12
TORSDOF 4
ENDMDL
MODEL 6
REMARK VINA RESULT:      -5.5     12.075     13.847
REMARK  4 active torsions:
REMARK  status: ('A' for Active; 'I' for Inactive)
REMARK    1  A    between atoms: C_2  and  C_3 
REMARK    2  A    between atoms: C_3  and  C_15 
REMARK    3  A    between atoms: C_3  and  N_7 
REMARK       I    between atoms: N_7  and  C_13 
REMARK    4  A    between atoms: C_9  and  C_13 
ROOT
HETATM    1  O           1     -20.056  -5.082  -9.783  0.00  0.00    -0.271 OA
HETATM    2  H           1     -22.397  -3.108  -9.099  0.00  0.00     0.163 HD
HETATM    3  N           1     -21.861  -3.774  -9.640  0.00  0.00    -0.344 N 
HETATM    4  C           1     -20.695  -4.286  -9.136  0.00  0.00     0.251 C 
ENDROOT
BRANCH   3   5
HETATM    5  C           1     -22.328  -4.186 -10.950  0.00  0.00     0.189 C 
BRANCH   5   6
HETATM    6  C           1     -23.833  -4.419 -10.903  0.00  0.00     0.010 C 
HETATM    7  C           1     -24.508  -3.247 -10.204  0.00  0.00     0.012 C 
HETATM    8  C           1     -24.123  -5.703 -10.138  0.00  0.00     0.012 C 
ENDBRANCH   5   6
BRANCH   5   9
HETATM    9  C           1     -22.018  -3.108 -11.957  0.00  0.00     0.197 C 
HETATM   10  O           1     -21.268  -2.157 -11.643  0.00  0.00    -0.646 OA
HETATM   11  O           1     -22.508  -3.164 -13.105  0.00  0.00    -0.646 OA
ENDBRANCH   5   9
ENDBRANCH   3   5
BRANCH   4  12
HETATM   12  C           1     -20.210  -3.857  -7.773  0.00  0.00     0.311 C 
HETATM   13  N           1     -21.314  -3.823  -6.817  0.00  0.00     0.097 N 
HETATM   14  C           1     -21.532  -5.217  -6.443  0.00  0.00     0.271 C 
HETATM   15  H           1     -21.058  -3.285  -5.989  0.00  0.00     0.317 HD
HETATM   16  C           1     -20.128  -5.784  -6.318  0.00  0.00     0.033 C 
HETATM   17  C           1     -19.258  -4.886  -7.190  0.00  0.00     0.047 C 
ENDBRANCH   4  12
TORSDOF 4
ENDMDL
MODEL 7
REMARK VINA RESULT:      -5.5     15.064     17.022
REMARK  4 active torsions:
REMARK  status: ('A' for Active; 'I' for Inactive)
REMARK    1  A    between atoms: C_2  and  C_3 
REMARK    2  A    between atoms: C_3  and  C_15 
REMARK    3  A    between atoms: C_3  and  N_7 
REMARK       I    between atoms: N_7  and  C_13 
REMARK    4  A    between atoms: C_9  and  C_13 
ROOT
HETATM    1  O           1     -22.544  -5.570  -5.728  0.00  0.00    -0.271 OA
HETATM    2  H           1     -19.709  -6.142  -4.514  0.00  0.00     0.163 HD
HETATM    3  N           1     -20.701  -6.258  -4.670  0.00  0.00    -0.344 N 
HETATM    4  C           1     -21.359  -5.430  -5.541  0.00  0.00     0.251 C 
ENDROOT
BRANCH   3   5
HETATM    5  C           1     -21.428  -7.301  -3.972  0.00  0.00     0.189 C 
BRANCH   5   6
HETATM    6  C           1     -20.621  -8.592  -4.003  0.00  0.00     0.010 C 
HETATM    7  C           1     -19.551  -8.498  -5.083  0.00  0.00     0.012 C 
HETATM    8  C           1     -21.548  -9.761  -4.307  0.00  0.00     0.012 C 
ENDBRANCH   5   6
BRANCH   5   9
HETATM    9  C           1     -21.655  -6.884  -2.541  0.00  0.00     0.197 C 
HETATM   10  O           1     -22.459  -5.963  -2.278  0.00  0.00    -0.646 OA
HETATM   11  O           1     -21.040  -7.458  -1.617  0.00  0.00    -0.646 OA
ENDBRANCH   5   9
ENDBRANCH   3   5
BRANCH   4  12
HETATM   12  C           1     -20.602  -4.346  -6.268  0.00  0.00     0.311 C 
HETATM   13  N           1     -19.489  -4.910  -7.027  0.00  0.00     0.097 N 
HETATM   14  C           1     -20.098  -5.470  -8.230  0.00  0.00     0.271 C 
HETATM   15  H           1     -18.825  -4.181  -7.290  0.00  0.00     0.317 HD
HETATM   16  C           1     -21.144  -4.441  -8.620  0.00  0.00     0.033 C 
HETATM   17  C           1     -21.473  -3.698  -7.330  0.00  0.00     0.047 C 
ENDBRANCH   4  12
TORSDOF 4
ENDMDL
MODEL 8
REMARK VINA RESULT:      -5.3     12.394     14.590
REMARK  4 active torsions:
REMARK  status: ('A' for Active; 'I' for Inactive)
REMARK    1  A    between atoms: C_2  and  C_3 
REMARK    2  A    between atoms: C_3  and  C_15 
REMARK    3  A    between atoms: C_3  and  N_7 
REMARK       I    between atoms: N_7  and  C_13 
REMARK    4  A    between atoms: C_9  and  C_13 
ROOT
HETATM    1  O           1     -20.599  -3.068 -10.673  0.00  0.00    -0.271 OA
HETATM    2  H           1     -22.197  -5.235  -9.063  0.00  0.00     0.163 HD
HETATM    3  N           1     -21.532  -4.491  -9.226  0.00  0.00    -0.344 N 
HETATM    4  C           1     -21.394  -3.957 -10.480  0.00  0.00     0.251 C 
ENDROOT
BRANCH   3   5
HETATM    5  C           1     -20.724  -3.989  -8.131  0.00  0.00     0.189 C 
BRANCH   5   6
HETATM    6  C           1     -21.574  -3.897  -6.871  0.00  0.00     0.010 C 
HETATM    7  C           1     -20.870  -4.615  -5.728  0.00  0.00     0.012 C 
HETATM    8  C           1     -22.926  -4.549  -7.125  0.00  0.00     0.012 C 
ENDBRANCH   5   6
BRANCH   5   9
HETATM    9  C           1     -19.566  -4.925  -7.889  0.00  0.00     0.197 C 
HETATM   10  O           1     -18.432  -4.464  -7.634  0.00  0.00    -0.646 OA
HETATM   11  O           1     -19.740  -6.162  -7.944  0.00  0.00    -0.646 OA
ENDBRANCH   5   9
ENDBRANCH   3   5
BRANCH   4  12
HETATM   12  C           1     -22.236  -4.480 -11.618  0.00  0.00     0.311 C 
HETATM   13  N           1     -23.593  -4.775 -11.167  0.00  0.00     0.097 N 
HETATM   14  C           1     -24.258  -3.477 -11.098  0.00  0.00     0.271 C 
HETATM   15  H           1     -24.076  -5.370 -11.840  0.00  0.00     0.317 HD
HETATM   16  C           1     -23.761  -2.749 -12.335  0.00  0.00     0.033 C 
HETATM   17  C           1     -22.432  -3.410 -12.679  0.00  0.00     0.047 C 
ENDBRANCH   4  12
TORSDOF 4
ENDMDL
MODEL 9
REMARK VINA RESULT:      -5.3      1.960      4.936
REMARK  4 active torsions:
REMARK  status: ('A' for Active; 'I' for Inactive)
REMARK    1  A    between atoms: C_2  and  C_3 
REMARK    2  A    between atoms: C_3  and  C_15 
REMARK    3  A    between atoms: C_3  and  N_7 
REMARK       I    between atoms: N_7  and  C_13 
REMARK    4  A    between atoms: C_9  and  C_13 
ROOT
HETATM    1  O           1     -33.731  -1.165 -11.430  0.00  0.00    -0.271 OA
HETATM    2  H           1     -36.098  -2.412 -13.069  0.00  0.00     0.163 HD
HETATM    3  N           1     -35.221  -2.382 -12.566  0.00  0.00    -0.344 N 
HETATM    4  C           1     -34.779  -1.201 -12.030  0.00  0.00     0.251 C 
ENDROOT
BRANCH   3   5
HETATM    5  C           1     -34.431  -3.588 -12.413  0.00  0.00     0.189 C 
BRANCH   5   6
HETATM    6  C           1     -35.072  -4.487 -11.365  0.00  0.00     0.010 C 
HETATM    7  C           1     -36.096  -3.690 -10.568  0.00  0.00     0.012 C 
HETATM    8  C           1     -33.997  -5.015 -10.425  0.00  0.00     0.012 C 
ENDBRANCH   5   6
BRANCH   5   9
HETATM    9  C           1     -34.368  -4.319 -13.731  0.00  0.00     0.197 C 
HETATM   10  O           1     -35.043  -5.357 -13.902  0.00  0.00    -0.646 OA
HETATM   11  O           1     -33.642  -3.887 -14.652  0.00  0.00    -0.646 OA
ENDBRANCH   5   9
ENDBRANCH   3   5
BRANCH   4  12
HETATM   12  C           1     -35.602   0.054 -12.189  0.00  0.00     0.311 C 
HETATM   13  N           1     -34.804   1.128 -12.773  0.00  0.00     0.097 N 
HETATM   14  C           1     -34.752   0.826 -14.201  0.00  0.00     0.271 C 
HETATM   15  H           1     -35.256   2.031 -12.633  0.00  0.00     0.317 HD
HETATM   16  C           1     -36.157   0.347 -14.522  0.00  0.00     0.033 C 
HETATM   17  C           1     -36.718  -0.157 -13.198  0.00  0.00     0.047 C 
ENDBRANCH   4  12
TORSDOF 4
ENDMDL
