MODEL 1
REMARK VINA RESULT:      -7.4      0.000      0.000
REMARK  7 active torsions:
REMARK  status: ('A' for Active; 'I' for Inactive)
REMARK    1  A    between atoms: C_3  and  C_5 
REMARK    2  A    between atoms: C_3  and  C_13 
REMARK    3  A    between atoms: C_3  and  N_17 
REMARK       I    between atoms: C_5  and  N_8 
REMARK    4  A    between atoms: C_6  and  O_20 
REMARK    5  A    between atoms: N_8  and  C_16 
REMARK    6  A    between atoms: C_13  and  C_18 
REMARK    7  A    between atoms: C_15  and  C_16 
ROOT
HETATM    1  C           1     -35.922  -0.466 -11.312  0.00  0.00     0.278 C 
ENDROOT
BRANCH   1   2
HETATM    2  C           1     -36.742  -0.358 -12.573  0.00  0.00     0.249 C 
HETATM    3  N           1     -36.137  -0.039 -13.759  0.00  0.00    -0.349 N 
HETATM    4  H           1     -35.139   0.125 -13.789  0.00  0.00     0.163 HD
HETATM    5  O           1     -37.934  -0.555 -12.537  0.00  0.00    -0.271 OA
BRANCH   3   6
HETATM    6  C           1     -36.926   0.064 -14.971  0.00  0.00     0.235 C 
BRANCH   6   7
HETATM    7  C           1     -36.284  -0.760 -16.061  0.00  0.00     0.191 C 
HETATM    8  O           1     -35.253  -1.422 -15.817  0.00  0.00    -0.647 OA
HETATM    9  O           1     -36.784  -0.778 -17.206  0.00  0.00    -0.647 OA
ENDBRANCH   6   7
ENDBRANCH   3   6
ENDBRANCH   1   2
BRANCH   1  10
HETATM   10  C           1     -36.269  -1.760 -10.588  0.00  0.00     0.081 C 
BRANCH  10  11
HETATM   11  C           1     -35.218  -2.789 -10.870  0.00  0.00    -0.056 A 
HETATM   12  C           1     -33.911  -2.391 -11.151  0.00  0.00     0.010 A 
HETATM   13  C           1     -32.932  -3.349 -11.414  0.00  0.00     0.037 A 
HETATM   14  C           1     -33.260  -4.705 -11.396  0.00  0.00     0.065 A 
HETATM   15  C           1     -34.567  -5.102 -11.114  0.00  0.00     0.037 A 
HETATM   16  C           1     -35.546  -4.144 -10.852  0.00  0.00     0.010 A 
BRANCH  14  17
HETATM   17  O           1     -32.308  -5.636 -11.650  0.00  0.00    -0.361 OA
HETATM   18  H           1     -31.527  -5.420 -11.114  0.00  0.00     0.217 HD
ENDBRANCH  14  17
ENDBRANCH  10  11
ENDBRANCH   1  10
BRANCH   1  19
HETATM   19  N           1     -36.223   0.701 -10.420  0.00  0.00    -0.066 N 
HETATM   20  H           1     -36.013   0.445  -9.429  0.00  0.00     0.275 HD
HETATM   21  H           1     -37.232   0.956 -10.508  0.00  0.00     0.275 HD
HETATM   22  H           1     -35.632   1.517 -10.700  0.00  0.00     0.275 HD
ENDBRANCH   1  19
TORSDOF 7
ENDMDL
MODEL 2
REMARK VINA RESULT:      -7.1     11.497     13.386
REMARK  7 active torsions:
REMARK  status: ('A' for Active; 'I' for Inactive)
REMARK    1  A    between atoms: C_3  and  C_5 
REMARK    2  A    between atoms: C_3  and  C_13 
REMARK    3  A    between atoms: C_3  and  N_17 
REMARK       I    between atoms: C_5  and  N_8 
REMARK    4  A    between atoms: C_6  and  O_20 
REMARK    5  A    between atoms: N_8  and  C_16 
REMARK    6  A    between atoms: C_13  and  C_18 
REMARK    7  A    between atoms: C_15  and  C_16 
ROOT
HETATM    1  C           1     -23.806  -3.652 -10.241  0.00  0.00     0.278 C 
ENDROOT
BRANCH   1   2
HETATM    2  C           1     -24.193  -3.027 -11.558  0.00  0.00     0.249 C 
HETATM    3  N           1     -23.241  -2.431 -12.340  0.00  0.00    -0.349 N 
HETATM    4  H           1     -22.276  -2.410 -12.034  0.00  0.00     0.163 HD
HETATM    5  O           1     -25.345  -3.052 -11.922  0.00  0.00    -0.271 OA
BRANCH   3   6
HETATM    6  C           1     -23.614  -1.831 -13.606  0.00  0.00     0.235 C 
BRANCH   6   7
HETATM    7  C           1     -23.276  -2.779 -14.732  0.00  0.00     0.191 C 
HETATM    8  O           1     -23.913  -3.846 -14.861  0.00  0.00    -0.647 OA
HETATM    9  O           1     -22.359  -2.495 -15.533  0.00  0.00    -0.647 OA
ENDBRANCH   6   7
ENDBRANCH   3   6
ENDBRANCH   1   2
BRANCH   1  10
HETATM   10  C           1     -22.559  -4.506 -10.430  0.00  0.00     0.081 C 
BRANCH  10  11
HETATM   11  C           1     -21.759  -4.511  -9.164  0.00  0.00    -0.056 A 
HETATM   12  C           1     -20.366  -4.539  -9.220  0.00  0.00     0.010 A 
HETATM   13  C           1     -19.621  -4.544  -8.040  0.00  0.00     0.037 A 
HETATM   14  C           1     -20.271  -4.521  -6.805  0.00  0.00     0.065 A 
HETATM   15  C           1     -21.664  -4.493  -6.751  0.00  0.00     0.037 A 
HETATM   16  C           1     -22.408  -4.489  -7.930  0.00  0.00     0.010 A 
BRANCH  14  17
HETATM   17  O           1     -19.546  -4.526  -5.659  0.00  0.00    -0.361 OA
HETATM   18  H           1     -19.014  -3.713  -5.638  0.00  0.00     0.217 HD
ENDBRANCH  14  17
ENDBRANCH  10  11
ENDBRANCH   1  10
BRANCH   1  19
HETATM   19  N           1     -24.930  -4.513  -9.747  0.00  0.00    -0.066 N 
HETATM   20  H           1     -24.555  -5.447  -9.466  0.00  0.00     0.275 HD
HETATM   21  H           1     -25.636  -4.635 -10.508  0.00  0.00     0.275 HD
HETATM   22  H           1     -25.382  -4.057  -8.923  0.00  0.00     0.275 HD
ENDBRANCH   1  19
TORSDOF 7
ENDMDL
MODEL 3
REMARK VINA RESULT:      -6.9     12.366     15.756
REMARK  7 active torsions:
REMARK  status: ('A' for Active; 'I' for Inactive)
REMARK    1  A    between atoms: C_3  and  C_5 
REMARK    2  A    between atoms: C_3  and  C_13 
REMARK    3  A    between atoms: C_3  and  N_17 
REMARK       I    between atoms: C_5  and  N_8 
REMARK    4  A    between atoms: C_6  and  O_20 
REMARK    5  A    between atoms: N_8  and  C_16 
REMARK    6  A    between atoms: C_13  and  C_18 
REMARK    7  A    between atoms: C_15  and  C_16 
ROOT
HETATM    1  C           1     -21.771  -4.517  -7.841  0.00  0.00     0.278 C 
ENDROOT
BRANCH   1   2
HETATM    2  C           1     -21.170  -5.631  -7.022  0.00  0.00     0.249 C 
HETATM    3  N           1     -21.649  -5.894  -5.766  0.00  0.00    -0.349 N 
HETATM    4  H           1     -22.406  -5.339  -5.388  0.00  0.00     0.163 HD
HETATM    5  O           1     -20.265  -6.293  -7.474  0.00  0.00    -0.271 OA
BRANCH   3   6
HETATM    6  C           1     -21.070  -6.965  -4.979  0.00  0.00     0.235 C 
BRANCH   6   7
HETATM    7  C           1     -21.466  -6.798  -3.532  0.00  0.00     0.191 C 
HETATM    8  O           1     -22.395  -6.020  -3.226  0.00  0.00    -0.647 OA
HETATM    9  O           1     -20.864  -7.436  -2.642  0.00  0.00    -0.647 OA
ENDBRANCH   6   7
ENDBRANCH   3   6
ENDBRANCH   1   2
BRANCH   1  10
HETATM   10  C           1     -21.070  -4.443  -9.191  0.00  0.00     0.081 C 
BRANCH  10  11
HETATM   11  C           1     -22.022  -3.916 -10.221  0.00  0.00    -0.056 A 
HETATM   12  C           1     -21.535  -3.415 -11.428  0.00  0.00     0.010 A 
HETATM   13  C           1     -22.421  -2.925 -12.387  0.00  0.00     0.037 A 
HETATM   14  C           1     -23.794  -2.936 -12.138  0.00  0.00     0.065 A 
HETATM   15  C           1     -24.280  -3.438 -10.931  0.00  0.00     0.037 A 
HETATM   16  C           1     -23.394  -3.927  -9.972  0.00  0.00     0.010 A 
BRANCH  14  17
HETATM   17  O           1     -24.655  -2.460 -13.071  0.00  0.00    -0.361 OA
HETATM   18  H           1     -25.427  -2.093 -12.608  0.00  0.00     0.217 HD
ENDBRANCH  14  17
ENDBRANCH  10  11
ENDBRANCH   1  10
BRANCH   1  19
HETATM   19  N           1     -21.599  -3.215  -7.116  0.00  0.00    -0.066 N 
HETATM   20  H           1     -21.903  -2.430  -7.735  0.00  0.00     0.275 HD
HETATM   21  H           1     -20.594  -3.089  -6.862  0.00  0.00     0.275 HD
HETATM   22  H           1     -22.180  -3.220  -6.248  0.00  0.00     0.275 HD
ENDBRANCH   1  19
TORSDOF 7
ENDMDL
MODEL 4
REMARK VINA RESULT:      -6.9     12.069     14.082
REMARK  7 active torsions:
REMARK  status: ('A' for Active; 'I' for Inactive)
REMARK    1  A    between atoms: C_3  and  C_5 
REMARK    2  A    between atoms: C_3  and  C_13 
REMARK    3  A    between atoms: C_3  and  N_17 
REMARK       I    between atoms: C_5  and  N_8 
REMARK    4  A    between atoms: C_6  and  O_20 
REMARK    5  A    between atoms: N_8  and  C_16 
REMARK    6  A    between atoms: C_13  and  C_18 
REMARK    7  A    between atoms: C_15  and  C_16 
ROOT
HETATM    1  C           1     -21.433  -4.231 -10.771  0.00  0.00     0.278 C 
ENDROOT
BRANCH   1   2
HETATM    2  C           1     -22.684  -4.056 -11.595  0.00  0.00     0.249 C 
HETATM    3  N           1     -22.836  -2.947 -12.383  0.00  0.00    -0.349 N 
HETATM    4  H           1     -22.109  -2.244 -12.412  0.00  0.00     0.163 HD
HETATM    5  O           1     -23.553  -4.896 -11.559  0.00  0.00    -0.271 OA
BRANCH   3   6
HETATM    6  C           1     -24.038  -2.781 -13.176  0.00  0.00     0.235 C 
BRANCH   6   7
HETATM    7  C           1     -23.690  -2.114 -14.485  0.00  0.00     0.191 C 
HETATM    8  O           1     -24.389  -1.169 -14.909  0.00  0.00    -0.647 OA
HETATM    9  O           1     -22.704  -2.508 -15.143  0.00  0.00    -0.647 OA
ENDBRANCH   6   7
ENDBRANCH   3   6
ENDBRANCH   1   2
BRANCH   1  10
HETATM   10  C           1     -21.576  -3.466  -9.461  0.00  0.00     0.081 C 
BRANCH  10  11
HETATM   11  C           1     -21.258  -4.374  -8.314  0.00  0.00    -0.056 A 
HETATM   12  C           1     -20.023  -5.021  -8.259  0.00  0.00     0.010 A 
HETATM   13  C           1     -19.727  -5.867  -7.190  0.00  0.00     0.037 A 
HETATM   14  C           1     -20.666  -6.066  -6.177  0.00  0.00     0.065 A 
HETATM   15  C           1     -21.900  -5.418  -6.233  0.00  0.00     0.037 A 
HETATM   16  C           1     -22.196  -4.573  -7.302  0.00  0.00     0.010 A 
BRANCH  14  17
HETATM   17  O           1     -20.377  -6.888  -5.138  0.00  0.00    -0.361 OA
HETATM   18  H           1     -19.658  -7.479  -5.414  0.00  0.00     0.217 HD
ENDBRANCH  14  17
ENDBRANCH  10  11
ENDBRANCH   1  10
BRANCH   1  19
HETATM   19  N           1     -20.255  -3.701 -11.533  0.00  0.00    -0.066 N 
HETATM   20  H           1     -20.232  -2.659 -11.457  0.00  0.00     0.275 HD
HETATM   21  H           1     -20.338  -3.975 -12.538  0.00  0.00     0.275 HD
HETATM   22  H           1     -19.375  -4.098 -11.135  0.00  0.00     0.275 HD
ENDBRANCH   1  19
TORSDOF 7
ENDMDL
MODEL 5
REMARK VINA RESULT:      -6.8     13.427     16.263
REMARK  7 active torsions:
REMARK  status: ('A' for Active; 'I' for Inactive)
REMARK    1  A    between atoms: C_3  and  C_5 
REMARK    2  A    between atoms: C_3  and  C_13 
REMARK    3  A    between atoms: C_3  and  N_17 
REMARK       I    between atoms: C_5  and  N_8 
REMARK    4  A    between atoms: C_6  and  O_20 
REMARK    5  A    between atoms: N_8  and  C_16 
REMARK    6  A    between atoms: C_13  and  C_18 
REMARK    7  A    between atoms: C_15  and  C_16 
ROOT
HETATM    1  C           1     -22.342  -5.160  -6.926  0.00  0.00     0.278 C 
ENDROOT
BRANCH   1   2
HETATM    2  C           1     -21.459  -5.786  -5.876  0.00  0.00     0.249 C 
HETATM    3  N           1     -21.992  -6.173  -4.676  0.00  0.00    -0.349 N 
HETATM    4  H           1     -22.978  -6.039  -4.494  0.00  0.00     0.163 HD
HETATM    5  O           1     -20.281  -5.947  -6.094  0.00  0.00    -0.271 OA
BRANCH   3   6
HETATM    6  C           1     -21.143  -6.776  -3.667  0.00  0.00     0.235 C 
BRANCH   6   7
HETATM    7  C           1     -21.869  -6.793  -2.343  0.00  0.00     0.191 C 
HETATM    8  O           1     -21.806  -7.803  -1.610  0.00  0.00    -0.647 OA
HETATM    9  O           1     -22.532  -5.797  -1.982  0.00  0.00    -0.647 OA
ENDBRANCH   6   7
ENDBRANCH   3   6
ENDBRANCH   1   2
BRANCH   1  10
HETATM   10  C           1     -21.717  -3.855  -7.404  0.00  0.00     0.081 C 
BRANCH  10  11
HETATM   11  C           1     -21.718  -3.818  -8.901  0.00  0.00    -0.056 A 
HETATM   12  C           1     -22.897  -3.534  -9.591  0.00  0.00     0.010 A 
HETATM   13  C           1     -22.898  -3.500 -10.985  0.00  0.00     0.037 A 
HETATM   14  C           1     -21.719  -3.750 -11.689  0.00  0.00     0.065 A 
HETATM   15  C           1     -20.541  -4.034 -10.999  0.00  0.00     0.037 A 
HETATM   16  C           1     -20.541  -4.069  -9.605  0.00  0.00     0.010 A 
BRANCH  14  17
HETATM   17  O           1     -21.721  -3.716 -13.045  0.00  0.00    -0.361 OA
HETATM   18  H           1     -22.062  -4.567 -13.366  0.00  0.00     0.217 HD
ENDBRANCH  14  17
ENDBRANCH  10  11
ENDBRANCH   1  10
BRANCH   1  19
HETATM   19  N           1     -23.694  -4.881  -6.341  0.00  0.00    -0.066 N 
HETATM   20  H           1     -24.143  -4.095  -6.862  0.00  0.00     0.275 HD
HETATM   21  H           1     -23.591  -4.618  -5.335  0.00  0.00     0.275 HD
HETATM   22  H           1     -24.291  -5.735  -6.417  0.00  0.00     0.275 HD
ENDBRANCH   1  19
TORSDOF 7
ENDMDL
MODEL 6
REMARK VINA RESULT:      -6.7      8.913     10.429
REMARK  7 active torsions:
REMARK  status: ('A' for Active; 'I' for Inactive)
REMARK    1  A    between atoms: C_3  and  C_5 
REMARK    2  A    between atoms: C_3  and  C_13 
REMARK    3  A    between atoms: C_3  and  N_17 
REMARK       I    between atoms: C_5  and  N_8 
REMARK    4  A    between atoms: C_6  and  O_20 
REMARK    5  A    between atoms: N_8  and  C_16 
REMARK    6  A    between atoms: C_13  and  C_18 
REMARK    7  A    between atoms: C_15  and  C_16 
ROOT
HETATM    1  C           1     -29.113  -6.916 -17.613  0.00  0.00     0.278 C 
ENDROOT
BRANCH   1   2
HETATM    2  C           1     -30.101  -6.052 -16.870  0.00  0.00     0.249 C 
HETATM    3  N           1     -31.290  -5.711 -17.456  0.00  0.00    -0.349 N 
HETATM    4  H           1     -31.506  -6.039 -18.389  0.00  0.00     0.163 HD
HETATM    5  O           1     -29.843  -5.661 -15.756  0.00  0.00    -0.271 OA
BRANCH   3   6
HETATM    6  C           1     -32.239  -4.881 -16.741  0.00  0.00     0.235 C 
BRANCH   6   7
HETATM    7  C           1     -32.236  -3.491 -17.329  0.00  0.00     0.191 C 
HETATM    8  O           1     -31.152  -2.933 -17.606  0.00  0.00    -0.647 OA
HETATM    9  O           1     -33.317  -2.898 -17.539  0.00  0.00    -0.647 OA
ENDBRANCH   6   7
ENDBRANCH   3   6
ENDBRANCH   1   2
BRANCH   1  10
HETATM   10  C           1     -28.468  -6.106 -18.730  0.00  0.00     0.081 C 
BRANCH  10  11
HETATM   11  C           1     -27.011  -6.445 -18.816  0.00  0.00    -0.056 A 
HETATM   12  C           1     -26.430  -6.711 -20.055  0.00  0.00     0.010 A 
HETATM   13  C           1     -25.074  -7.026 -20.135  0.00  0.00     0.037 A 
HETATM   14  C           1     -24.299  -7.076 -18.975  0.00  0.00     0.065 A 
HETATM   15  C           1     -24.882  -6.809 -17.736  0.00  0.00     0.037 A 
HETATM   16  C           1     -26.238  -6.495 -17.656  0.00  0.00     0.010 A 
BRANCH  14  17
HETATM   17  O           1     -22.981  -7.381 -19.054  0.00  0.00    -0.361 OA
HETATM   18  H           1     -22.904  -8.327 -19.265  0.00  0.00     0.217 HD
ENDBRANCH  14  17
ENDBRANCH  10  11
ENDBRANCH   1  10
BRANCH   1  19
HETATM   19  N           1     -29.827  -8.097 -18.201  0.00  0.00    -0.066 N 
HETATM   20  H           1     -29.318  -8.421 -19.054  0.00  0.00     0.275 HD
HETATM   21  H           1     -30.801  -7.822 -18.460  0.00  0.00     0.275 HD
HETATM   22  H           1     -29.858  -8.871 -17.499  0.00  0.00     0.275 HD
ENDBRANCH   1  19
TORSDOF 7
ENDMDL
MODEL 7
REMARK VINA RESULT:      -6.3     14.319     17.163
REMARK  7 active torsions:
REMARK  status: ('A' for Active; 'I' for Inactive)
REMARK    1  A    between atoms: C_3  and  C_5 
REMARK    2  A    between atoms: C_3  and  C_13 
REMARK    3  A    between atoms: C_3  and  N_17 
REMARK       I    between atoms: C_5  and  N_8 
REMARK    4  A    between atoms: C_6  and  O_20 
REMARK    5  A    between atoms: N_8  and  C_16 
REMARK    6  A    between atoms: C_13  and  C_18 
REMARK    7  A    between atoms: C_15  and  C_16 
ROOT
HETATM    1  C           1     -20.470  -6.137  -5.433  0.00  0.00     0.278 C 
ENDROOT
BRANCH   1   2
HETATM    2  C           1     -21.538  -6.172  -4.369  0.00  0.00     0.249 C 
HETATM    3  N           1     -21.188  -6.150  -3.046  0.00  0.00    -0.349 N 
HETATM    4  H           1     -20.212  -6.110  -2.782  0.00  0.00     0.163 HD
HETATM    5  O           1     -22.704  -6.221  -4.685  0.00  0.00    -0.271 OA
BRANCH   3   6
HETATM    6  C           1     -22.215  -6.184  -2.023  0.00  0.00     0.235 C 
BRANCH   6   7
HETATM    7  C           1     -22.042  -7.421  -1.176  0.00  0.00     0.191 C 
HETATM    8  O           1     -21.689  -8.496  -1.707  0.00  0.00    -0.647 OA
HETATM    9  O           1     -22.253  -7.370   0.055  0.00  0.00    -0.647 OA
ENDBRANCH   6   7
ENDBRANCH   3   6
ENDBRANCH   1   2
BRANCH   1  10
HETATM   10  C           1     -20.187  -4.691  -5.822  0.00  0.00     0.081 C 
BRANCH  10  11
HETATM   11  C           1     -20.694  -4.438  -7.208  0.00  0.00    -0.056 A 
HETATM   12  C           1     -19.835  -4.565  -8.299  0.00  0.00     0.010 A 
HETATM   13  C           1     -20.307  -4.328  -9.589  0.00  0.00     0.037 A 
HETATM   14  C           1     -21.640  -3.965  -9.789  0.00  0.00     0.065 A 
HETATM   15  C           1     -22.499  -3.839  -8.697  0.00  0.00     0.037 A 
HETATM   16  C           1     -22.026  -4.074  -7.407  0.00  0.00     0.010 A 
BRANCH  14  17
HETATM   17  O           1     -22.099  -3.736 -11.044  0.00  0.00    -0.361 OA
HETATM   18  H           1     -21.368  -3.368 -11.568  0.00  0.00     0.217 HD
ENDBRANCH  14  17
ENDBRANCH  10  11
ENDBRANCH   1  10
BRANCH   1  19
HETATM   19  N           1     -20.941  -6.895  -6.638  0.00  0.00    -0.066 N 
HETATM   20  H           1     -21.869  -6.524  -6.942  0.00  0.00     0.275 HD
HETATM   21  H           1     -21.031  -7.908  -6.399  0.00  0.00     0.275 HD
HETATM   22  H           1     -20.250  -6.781  -7.414  0.00  0.00     0.275 HD
ENDBRANCH   1  19
TORSDOF 7
ENDMDL
MODEL 8
REMARK VINA RESULT:      -6.3      1.977      5.503
REMARK  7 active torsions:
REMARK  status: ('A' for Active; 'I' for Inactive)
REMARK    1  A    between atoms: C_3  and  C_5 
REMARK    2  A    between atoms: C_3  and  C_13 
REMARK    3  A    between atoms: C_3  and  N_17 
REMARK       I    between atoms: C_5  and  N_8 
REMARK    4  A    between atoms: C_6  and  O_20 
REMARK    5  A    between atoms: N_8  and  C_16 
REMARK    6  A    between atoms: C_13  and  C_18 
REMARK    7  A    between atoms: C_15  and  C_16 
ROOT
HETATM    1  C           1     -36.204  -0.853 -10.910  0.00  0.00     0.278 C 
ENDROOT
BRANCH   1   2
HETATM    2  C           1     -35.076  -1.853 -10.911  0.00  0.00     0.249 C 
HETATM    3  N           1     -35.350  -3.194 -10.909  0.00  0.00    -0.349 N 
HETATM    4  H           1     -36.310  -3.514 -10.905  0.00  0.00     0.163 HD
HETATM    5  O           1     -33.929  -1.471 -10.916  0.00  0.00    -0.271 OA
BRANCH   3   6
HETATM    6  C           1     -34.265  -4.156 -10.911  0.00  0.00     0.235 C 
BRANCH   6   7
HETATM    7  C           1     -34.666  -5.366 -11.720  0.00  0.00     0.191 C 
HETATM    8  O           1     -35.127  -5.221 -12.872  0.00  0.00    -0.647 OA
HETATM    9  O           1     -34.536  -6.511 -11.236  0.00  0.00    -0.647 OA
ENDBRANCH   6   7
ENDBRANCH   3   6
ENDBRANCH   1   2
BRANCH   1  10
HETATM   10  C           1     -35.812   0.358 -11.746  0.00  0.00     0.081 C 
BRANCH  10  11
HETATM   11  C           1     -36.099   0.083 -13.190  0.00  0.00    -0.056 A 
HETATM   12  C           1     -37.410  -0.139 -13.610  0.00  0.00     0.010 A 
HETATM   13  C           1     -37.677  -0.395 -14.955  0.00  0.00     0.037 A 
HETATM   14  C           1     -36.633  -0.429 -15.879  0.00  0.00     0.065 A 
HETATM   15  C           1     -35.322  -0.206 -15.459  0.00  0.00     0.037 A 
HETATM   16  C           1     -35.054   0.049 -14.114  0.00  0.00     0.010 A 
BRANCH  14  17
HETATM   17  O           1     -36.893  -0.677 -17.186  0.00  0.00    -0.361 OA
HETATM   18  H           1     -37.856  -0.645 -17.312  0.00  0.00     0.217 HD
ENDBRANCH  14  17
ENDBRANCH  10  11
ENDBRANCH   1  10
BRANCH   1  19
HETATM   19  N           1     -36.483  -0.417  -9.502  0.00  0.00    -0.066 N 
HETATM   20  H           1     -35.613  -0.508  -8.931  0.00  0.00     0.275 HD
HETATM   21  H           1     -37.233  -1.020  -9.093  0.00  0.00     0.275 HD
HETATM   22  H           1     -36.799   0.579  -9.500  0.00  0.00     0.275 HD
ENDBRANCH   1  19
TORSDOF 7
ENDMDL
MODEL 9
REMARK VINA RESULT:      -6.2     13.585     16.607
REMARK  7 active torsions:
REMARK  status: ('A' for Active; 'I' for Inactive)
REMARK    1  A    between atoms: C_3  and  C_5 
REMARK    2  A    between atoms: C_3  and  C_13 
REMARK    3  A    between atoms: C_3  and  N_17 
REMARK       I    between atoms: C_5  and  N_8 
REMARK    4  A    between atoms: C_6  and  O_20 
REMARK    5  A    between atoms: N_8  and  C_16 
REMARK    6  A    between atoms: C_13  and  C_18 
REMARK    7  A    between atoms: C_15  and  C_16 
ROOT
HETATM    1  C           1     -21.828  -5.504  -7.049  0.00  0.00     0.278 C 
ENDROOT
BRANCH   1   2
HETATM    2  C           1     -20.822  -6.449  -6.440  0.00  0.00     0.249 C 
HETATM    3  N           1     -21.132  -7.139  -5.300  0.00  0.00    -0.349 N 
HETATM    4  H           1     -22.037  -7.014  -4.864  0.00  0.00     0.163 HD
HETATM    5  O           1     -19.741  -6.597  -6.961  0.00  0.00    -0.271 OA
BRANCH   3   6
HETATM    6  C           1     -20.165  -8.047  -4.716  0.00  0.00     0.235 C 
BRANCH   6   7
HETATM    7  C           1     -20.625  -9.470  -4.918  0.00  0.00     0.191 C 
HETATM    8  O           1     -21.384 -10.006  -4.082  0.00  0.00    -0.647 OA
HETATM    9  O           1     -20.246 -10.113  -5.921  0.00  0.00    -0.647 OA
ENDBRANCH   6   7
ENDBRANCH   3   6
ENDBRANCH   1   2
BRANCH   1  10
HETATM   10  C           1     -21.122  -4.237  -7.511  0.00  0.00     0.081 C 
BRANCH  10  11
HETATM   11  C           1     -21.328  -4.058  -8.984  0.00  0.00    -0.056 A 
HETATM   12  C           1     -20.266  -4.261  -9.866  0.00  0.00     0.010 A 
HETATM   13  C           1     -20.458  -4.095 -11.237  0.00  0.00     0.037 A 
HETATM   14  C           1     -21.712  -3.725 -11.726  0.00  0.00     0.065 A 
HETATM   15  C           1     -22.772  -3.523 -10.844  0.00  0.00     0.037 A 
HETATM   16  C           1     -22.580  -3.689  -9.473  0.00  0.00     0.010 A 
BRANCH  14  17
HETATM   17  O           1     -21.898  -3.565 -13.059  0.00  0.00    -0.361 OA
HETATM   18  H           1     -22.586  -4.189 -13.344  0.00  0.00     0.217 HD
ENDBRANCH  14  17
ENDBRANCH  10  11
ENDBRANCH   1  10
BRANCH   1  19
HETATM   19  N           1     -22.866  -5.152  -6.024  0.00  0.00    -0.066 N 
HETATM   20  H           1     -22.682  -5.687  -5.145  0.00  0.00     0.275 HD
HETATM   21  H           1     -23.814  -5.398  -6.389  0.00  0.00     0.275 HD
HETATM   22  H           1     -22.825  -4.128  -5.823  0.00  0.00     0.275 HD
ENDBRANCH   1  19
TORSDOF 7
ENDMDL
