MODEL 1
REMARK VINA RESULT:      -5.9      0.000      0.000
REMARK  6 active torsions:
REMARK  status: ('A' for Active; 'I' for Inactive)
REMARK    1  A    between atoms: N_1  and  C_2 
REMARK       I    between atoms: N_1  and  C_6 
REMARK    2  A    between atoms: C_2  and  C_3 
REMARK    3  A    between atoms: C_6  and  C_11 
REMARK    4  A    between atoms: N_7  and  C_11 
REMARK    5  A    between atoms: C_9  and  C_11 
REMARK    6  A    between atoms: C_9  and  O_14 
ROOT
HETATM    1  N           1     -34.999  -0.497 -14.021  0.00  0.00    -0.345 N 
HETATM    2  O           1     -36.618  -1.258 -12.682  0.00  0.00    -0.271 OA
HETATM    3  C           1     -35.435  -1.104 -12.874  0.00  0.00     0.251 C 
HETATM    4  H           1     -34.008  -0.368 -14.181  0.00  0.00     0.163 HD
ENDROOT
BRANCH   3   5
HETATM    5  C           1     -34.437  -1.582 -11.847  0.00  0.00     0.302 C 
BRANCH   5   6
HETATM    6  N           1     -35.066  -1.547 -10.486  0.00  0.00    -0.064 N 
HETATM    7  H           1     -34.618  -2.268  -9.876  0.00  0.00     0.275 HD
HETATM    8  H           1     -34.929  -0.601 -10.063  0.00  0.00     0.275 HD
HETATM    9  H           1     -36.089  -1.747 -10.569  0.00  0.00     0.275 HD
ENDBRANCH   5   6
BRANCH   5  10
HETATM   10  C           1     -34.014  -3.008 -12.173  0.00  0.00     0.153 C 
HETATM   11  C           1     -34.677  -3.969 -11.195  0.00  0.00     0.042 C 
BRANCH  10  12
HETATM   12  O           1     -34.409  -3.326 -13.480  0.00  0.00    -0.393 OA
HETATM   13  H           1     -34.130  -4.211 -13.642  0.00  0.00     0.210 HD
ENDBRANCH  10  12
ENDBRANCH   5  10
ENDBRANCH   3   5
BRANCH   1  14
HETATM   14  C           1     -35.959  -0.038 -15.007  0.00  0.00     0.181 C 
HETATM   15  C           1     -35.602   1.378 -15.440  0.00  0.00     0.043 C 
BRANCH  14  16
HETATM   16  C           1     -35.926  -0.955 -16.204  0.00  0.00     0.196 C 
HETATM   17  O           1     -36.682  -0.741 -17.177  0.00  0.00    -0.646 OA
HETATM   18  O           1     -35.142  -1.929 -16.224  0.00  0.00    -0.646 OA
ENDBRANCH  14  16
ENDBRANCH   1  14
TORSDOF 6
ENDMDL
MODEL 2
REMARK VINA RESULT:      -5.6      1.980      2.363
REMARK  6 active torsions:
REMARK  status: ('A' for Active; 'I' for Inactive)
REMARK    1  A    between atoms: N_1  and  C_2 
REMARK       I    between atoms: N_1  and  C_6 
REMARK    2  A    between atoms: C_2  and  C_3 
REMARK    3  A    between atoms: C_6  and  C_11 
REMARK    4  A    between atoms: N_7  and  C_11 
REMARK    5  A    between atoms: C_9  and  C_11 
REMARK    6  A    between atoms: C_9  and  O_14 
ROOT
HETATM    1  N           1     -35.118  -1.428 -13.412  0.00  0.00    -0.345 N 
HETATM    2  O           1     -34.511  -1.247 -11.270  0.00  0.00    -0.271 OA
HETATM    3  C           1     -34.554  -1.926 -12.268  0.00  0.00     0.251 C 
HETATM    4  H           1     -35.154  -1.996 -14.248  0.00  0.00     0.163 HD
ENDROOT
BRANCH   3   5
HETATM    5  C           1     -33.985  -3.324 -12.254  0.00  0.00     0.302 C 
BRANCH   5   6
HETATM    6  N           1     -32.706  -3.334 -11.471  0.00  0.00    -0.064 N 
HETATM    7  H           1     -31.930  -3.687 -12.075  0.00  0.00     0.275 HD
HETATM    8  H           1     -32.484  -2.363 -11.153  0.00  0.00     0.275 HD
HETATM    9  H           1     -32.812  -3.957 -10.638  0.00  0.00     0.275 HD
ENDBRANCH   5   6
BRANCH   5  10
HETATM   10  C           1     -34.984  -4.273 -11.606  0.00  0.00     0.153 C 
HETATM   11  C           1     -34.276  -5.107 -10.546  0.00  0.00     0.042 C 
BRANCH  10  12
HETATM   12  O           1     -36.013  -3.532 -11.008  0.00  0.00    -0.393 OA
HETATM   13  H           1     -36.057  -3.803 -10.107  0.00  0.00     0.210 HD
ENDBRANCH  10  12
ENDBRANCH   5  10
ENDBRANCH   3   5
BRANCH   1  14
HETATM   14  C           1     -35.664  -0.084 -13.424  0.00  0.00     0.181 C 
HETATM   15  C           1     -34.699   0.848 -14.146  0.00  0.00     0.043 C 
BRANCH  14  16
HETATM   16  C           1     -36.992  -0.088 -14.140  0.00  0.00     0.196 C 
HETATM   17  O           1     -37.967  -0.695 -13.646  0.00  0.00    -0.646 OA
HETATM   18  O           1     -37.117   0.515 -15.228  0.00  0.00    -0.646 OA
ENDBRANCH  14  16
ENDBRANCH   1  14
TORSDOF 6
ENDMDL
MODEL 3
REMARK VINA RESULT:      -5.5      2.192      3.034
REMARK  6 active torsions:
REMARK  status: ('A' for Active; 'I' for Inactive)
REMARK    1  A    between atoms: N_1  and  C_2 
REMARK       I    between atoms: N_1  and  C_6 
REMARK    2  A    between atoms: C_2  and  C_3 
REMARK    3  A    between atoms: C_6  and  C_11 
REMARK    4  A    between atoms: N_7  and  C_11 
REMARK    5  A    between atoms: C_9  and  C_11 
REMARK    6  A    between atoms: C_9  and  O_14 
ROOT
HETATM    1  N           1     -35.019  -1.741 -13.330  0.00  0.00    -0.345 N 
HETATM    2  O           1     -34.441  -2.176 -11.216  0.00  0.00    -0.271 OA
HETATM    3  C           1     -34.551  -2.576 -12.351  0.00  0.00     0.251 C 
HETATM    4  H           1     -35.111  -2.077 -14.280  0.00  0.00     0.163 HD
ENDROOT
BRANCH   3   5
HETATM    5  C           1     -34.170  -3.997 -12.689  0.00  0.00     0.302 C 
BRANCH   5   6
HETATM    6  N           1     -33.590  -4.042 -14.071  0.00  0.00    -0.064 N 
HETATM    7  H           1     -33.895  -4.920 -14.549  0.00  0.00     0.275 HD
HETATM    8  H           1     -33.925  -3.216 -14.617  0.00  0.00     0.275 HD
HETATM    9  H           1     -32.546  -4.021 -14.013  0.00  0.00     0.275 HD
ENDBRANCH   5   6
BRANCH   5  10
HETATM   10  C           1     -33.136  -4.498 -11.689  0.00  0.00     0.153 C 
HETATM   11  C           1     -33.681  -5.725 -10.970  0.00  0.00     0.042 C 
BRANCH  10  12
HETATM   12  O           1     -31.957  -4.838 -12.366  0.00  0.00    -0.393 OA
HETATM   13  H           1     -31.475  -4.039 -12.494  0.00  0.00     0.210 HD
ENDBRANCH  10  12
ENDBRANCH   5  10
ENDBRANCH   3   5
BRANCH   1  14
HETATM   14  C           1     -35.385  -0.376 -13.003  0.00  0.00     0.181 C 
HETATM   15  C           1     -34.862   0.560 -14.085  0.00  0.00     0.043 C 
BRANCH  14  16
HETATM   16  C           1     -36.887  -0.264 -12.922  0.00  0.00     0.196 C 
HETATM   17  O           1     -37.421   0.276 -11.929  0.00  0.00    -0.646 OA
HETATM   18  O           1     -37.598  -0.712 -13.848  0.00  0.00    -0.646 OA
ENDBRANCH  14  16
ENDBRANCH   1  14
TORSDOF 6
ENDMDL
MODEL 4
REMARK VINA RESULT:      -5.4      1.707      4.913
REMARK  6 active torsions:
REMARK  status: ('A' for Active; 'I' for Inactive)
REMARK    1  A    between atoms: N_1  and  C_2 
REMARK       I    between atoms: N_1  and  C_6 
REMARK    2  A    between atoms: C_2  and  C_3 
REMARK    3  A    between atoms: C_6  and  C_11 
REMARK    4  A    between atoms: N_7  and  C_11 
REMARK    5  A    between atoms: C_9  and  C_11 
REMARK    6  A    between atoms: C_9  and  O_14 
ROOT
HETATM    1  N           1     -34.709  -1.864 -12.195  0.00  0.00    -0.345 N 
HETATM    2  O           1     -34.966  -2.142 -14.397  0.00  0.00    -0.271 OA
HETATM    3  C           1     -34.992  -1.393 -13.449  0.00  0.00     0.251 C 
HETATM    4  H           1     -34.731  -1.236 -11.402  0.00  0.00     0.163 HD
ENDROOT
BRANCH   3   5
HETATM    5  C           1     -35.337   0.063 -13.649  0.00  0.00     0.302 C 
BRANCH   5   6
HETATM    6  N           1     -34.586   0.595 -14.833  0.00  0.00    -0.064 N 
HETATM    7  H           1     -33.589   0.763 -14.566  0.00  0.00     0.275 HD
HETATM    8  H           1     -34.624  -0.101 -15.611  0.00  0.00     0.275 HD
HETATM    9  H           1     -35.019   1.494 -15.146  0.00  0.00     0.275 HD
ENDBRANCH   5   6
BRANCH   5  10
HETATM   10  C           1     -36.834   0.202 -13.895  0.00  0.00     0.153 C 
HETATM   11  C           1     -37.095   0.288 -15.392  0.00  0.00     0.042 C 
BRANCH  10  12
HETATM   12  O           1     -37.500  -0.913 -13.367  0.00  0.00    -0.393 OA
HETATM   13  H           1     -37.309  -0.934 -12.445  0.00  0.00     0.210 HD
ENDBRANCH  10  12
ENDBRANCH   5  10
ENDBRANCH   3   5
BRANCH   1  14
HETATM   14  C           1     -34.378  -3.263 -12.004  0.00  0.00     0.181 C 
HETATM   15  C           1     -32.969  -3.376 -11.436  0.00  0.00     0.043 C 
BRANCH  14  16
HETATM   16  C           1     -35.360  -3.885 -11.043  0.00  0.00     0.196 C 
HETATM   17  O           1     -36.382  -3.254 -10.698  0.00  0.00    -0.646 OA
HETATM   18  O           1     -35.152  -5.033 -10.592  0.00  0.00    -0.646 OA
ENDBRANCH  14  16
ENDBRANCH   1  14
TORSDOF 6
ENDMDL
MODEL 5
REMARK VINA RESULT:      -5.3     12.914     14.392
REMARK  6 active torsions:
REMARK  status: ('A' for Active; 'I' for Inactive)
REMARK    1  A    between atoms: N_1  and  C_2 
REMARK       I    between atoms: N_1  and  C_6 
REMARK    2  A    between atoms: C_2  and  C_3 
REMARK    3  A    between atoms: C_6  and  C_11 
REMARK    4  A    between atoms: N_7  and  C_11 
REMARK    5  A    between atoms: C_9  and  C_11 
REMARK    6  A    between atoms: C_9  and  O_14 
ROOT
HETATM    1  N           1     -22.767  -4.505  -9.463  0.00  0.00    -0.345 N 
HETATM    2  O           1     -20.574  -4.079  -9.481  0.00  0.00    -0.271 OA
HETATM    3  C           1     -21.507  -4.624  -8.941  0.00  0.00     0.251 C 
HETATM    4  H           1     -23.548  -4.962  -9.010  0.00  0.00     0.163 HD
ENDROOT
BRANCH   3   5
HETATM    5  C           1     -21.282  -5.438  -7.689  0.00  0.00     0.302 C 
BRANCH   5   6
HETATM    6  N           1     -19.906  -6.033  -7.722  0.00  0.00    -0.064 N 
HETATM    7  H           1     -19.858  -6.837  -7.055  0.00  0.00     0.275 HD
HETATM    8  H           1     -19.696  -6.372  -8.688  0.00  0.00     0.275 HD
HETATM    9  H           1     -19.205  -5.309  -7.446  0.00  0.00     0.275 HD
ENDBRANCH   5   6
BRANCH   5  10
HETATM   10  C           1     -21.416  -4.538  -6.467  0.00  0.00     0.153 C 
HETATM   11  C           1     -20.160  -4.653  -5.614  0.00  0.00     0.042 C 
BRANCH  10  12
HETATM   12  O           1     -21.581  -3.209  -6.881  0.00  0.00    -0.393 OA
HETATM   13  H           1     -21.677  -3.224  -7.818  0.00  0.00     0.210 HD
ENDBRANCH  10  12
ENDBRANCH   5  10
ENDBRANCH   3   5
BRANCH   1  14
HETATM   14  C           1     -22.981  -3.724 -10.666  0.00  0.00     0.181 C 
HETATM   15  C           1     -22.729  -4.597 -11.888  0.00  0.00     0.043 C 
BRANCH  14  16
HETATM   16  C           1     -24.403  -3.220 -10.690  0.00  0.00     0.196 C 
HETATM   17  O           1     -25.002  -3.089 -11.780  0.00  0.00    -0.646 OA
HETATM   18  O           1     -24.984  -2.934  -9.620  0.00  0.00    -0.646 OA
ENDBRANCH  14  16
ENDBRANCH   1  14
TORSDOF 6
ENDMDL
MODEL 6
REMARK VINA RESULT:      -5.1     12.802     14.786
REMARK  6 active torsions:
REMARK  status: ('A' for Active; 'I' for Inactive)
REMARK    1  A    between atoms: N_1  and  C_2 
REMARK       I    between atoms: N_1  and  C_6 
REMARK    2  A    between atoms: C_2  and  C_3 
REMARK    3  A    between atoms: C_6  and  C_11 
REMARK    4  A    between atoms: N_7  and  C_11 
REMARK    5  A    between atoms: C_9  and  C_11 
REMARK    6  A    between atoms: C_9  and  O_14 
ROOT
HETATM    1  N           1     -21.769  -3.717  -9.294  0.00  0.00    -0.345 N 
HETATM    2  O           1     -20.898  -4.787 -11.051  0.00  0.00    -0.271 OA
HETATM    3  C           1     -21.609  -3.900 -10.641  0.00  0.00     0.251 C 
HETATM    4  H           1     -22.364  -2.974  -8.951  0.00  0.00     0.163 HD
ENDROOT
BRANCH   3   5
HETATM    5  C           1     -22.320  -2.993 -11.616  0.00  0.00     0.302 C 
BRANCH   5   6
HETATM    6  N           1     -21.971  -3.395 -13.018  0.00  0.00    -0.064 N 
HETATM    7  H           1     -21.554  -4.354 -13.012  0.00  0.00     0.275 HD
HETATM    8  H           1     -22.835  -3.396 -13.605  0.00  0.00     0.275 HD
HETATM    9  H           1     -21.280  -2.718 -13.414  0.00  0.00     0.275 HD
ENDBRANCH   5   6
BRANCH   5  10
HETATM   10  C           1     -23.825  -3.110 -11.415  0.00  0.00     0.153 C 
HETATM   11  C           1     -24.528  -2.970 -12.758  0.00  0.00     0.042 C 
BRANCH  10  12
HETATM   12  O           1     -24.126  -4.360 -10.857  0.00  0.00    -0.393 OA
HETATM   13  H           1     -24.242  -4.959 -11.575  0.00  0.00     0.210 HD
ENDBRANCH  10  12
ENDBRANCH   5  10
ENDBRANCH   3   5
BRANCH   1  14
HETATM   14  C           1     -21.085  -4.589  -8.359  0.00  0.00     0.181 C 
HETATM   15  C           1     -19.754  -3.963  -7.963  0.00  0.00     0.043 C 
BRANCH  14  16
HETATM   16  C           1     -21.939  -4.776  -7.130  0.00  0.00     0.196 C 
HETATM   17  O           1     -23.147  -4.454  -7.152  0.00  0.00    -0.646 OA
HETATM   18  O           1     -21.440  -5.255  -6.088  0.00  0.00    -0.646 OA
ENDBRANCH  14  16
ENDBRANCH   1  14
TORSDOF 6
ENDMDL
MODEL 7
REMARK VINA RESULT:      -5.0     13.323     14.903
REMARK  6 active torsions:
REMARK  status: ('A' for Active; 'I' for Inactive)
REMARK    1  A    between atoms: N_1  and  C_2 
REMARK       I    between atoms: N_1  and  C_6 
REMARK    2  A    between atoms: C_2  and  C_3 
REMARK    3  A    between atoms: C_6  and  C_11 
REMARK    4  A    between atoms: N_7  and  C_11 
REMARK    5  A    between atoms: C_9  and  C_11 
REMARK    6  A    between atoms: C_9  and  O_14 
ROOT
HETATM    1  N           1     -22.583  -4.617  -7.958  0.00  0.00    -0.345 N 
HETATM    2  O           1     -20.892  -3.345  -7.241  0.00  0.00    -0.271 OA
HETATM    3  C           1     -21.599  -4.307  -7.058  0.00  0.00     0.251 C 
HETATM    4  H           1     -23.174  -5.423  -7.804  0.00  0.00     0.163 HD
ENDROOT
BRANCH   3   5
HETATM    5  C           1     -21.396  -5.170  -5.835  0.00  0.00     0.302 C 
BRANCH   5   6
HETATM    6  N           1     -22.672  -5.889  -5.515  0.00  0.00    -0.064 N 
HETATM    7  H           1     -22.475  -6.671  -4.850  0.00  0.00     0.275 HD
HETATM    8  H           1     -23.348  -5.223  -5.077  0.00  0.00     0.275 HD
HETATM    9  H           1     -23.085  -6.276  -6.395  0.00  0.00     0.275 HD
ENDBRANCH   5   6
BRANCH   5  10
HETATM   10  C           1     -20.295  -6.187  -6.107  0.00  0.00     0.153 C 
HETATM   11  C           1     -20.708  -7.541  -5.548  0.00  0.00     0.042 C 
BRANCH  10  12
HETATM   12  O           1     -20.089  -6.294  -7.489  0.00  0.00    -0.393 OA
HETATM   13  H           1     -20.818  -5.870  -7.908  0.00  0.00     0.210 HD
ENDBRANCH  10  12
ENDBRANCH   5  10
ENDBRANCH   3   5
BRANCH   1  14
HETATM   14  C           1     -22.776  -3.788  -9.132  0.00  0.00     0.181 C 
HETATM   15  C           1     -21.903  -4.306 -10.267  0.00  0.00     0.043 C 
BRANCH  14  16
HETATM   16  C           1     -24.226  -3.837  -9.548  0.00  0.00     0.196 C 
HETATM   17  O           1     -24.728  -4.913  -9.940  0.00  0.00    -0.646 OA
HETATM   18  O           1     -24.925  -2.802  -9.502  0.00  0.00    -0.646 OA
ENDBRANCH  14  16
ENDBRANCH   1  14
TORSDOF 6
ENDMDL
MODEL 8
REMARK VINA RESULT:      -4.8     12.863     14.860
REMARK  6 active torsions:
REMARK  status: ('A' for Active; 'I' for Inactive)
REMARK    1  A    between atoms: N_1  and  C_2 
REMARK       I    between atoms: N_1  and  C_6 
REMARK    2  A    between atoms: C_2  and  C_3 
REMARK    3  A    between atoms: C_6  and  C_11 
REMARK    4  A    between atoms: N_7  and  C_11 
REMARK    5  A    between atoms: C_9  and  C_11 
REMARK    6  A    between atoms: C_9  and  O_14 
ROOT
HETATM    1  N           1     -22.219  -5.238  -8.592  0.00  0.00    -0.345 N 
HETATM    2  O           1     -22.979  -3.137  -8.621  0.00  0.00    -0.271 OA
HETATM    3  C           1     -23.082  -4.269  -9.031  0.00  0.00     0.251 C 
HETATM    4  H           1     -22.305  -6.185  -8.935  0.00  0.00     0.163 HD
ENDROOT
BRANCH   3   5
HETATM    5  C           1     -24.162  -4.615 -10.027  0.00  0.00     0.302 C 
BRANCH   5   6
HETATM    6  N           1     -25.346  -3.722  -9.808  0.00  0.00    -0.064 N 
HETATM    7  H           1     -26.136  -4.281  -9.413  0.00  0.00     0.275 HD
HETATM    8  H           1     -25.091  -2.961  -9.138  0.00  0.00     0.275 HD
HETATM    9  H           1     -25.639  -3.301 -10.719  0.00  0.00     0.275 HD
ENDBRANCH   5   6
BRANCH   5  10
HETATM   10  C           1     -23.632  -4.416 -11.441  0.00  0.00     0.153 C 
HETATM   11  C           1     -24.236  -3.151 -12.035  0.00  0.00     0.042 C 
BRANCH  10  12
HETATM   12  O           1     -22.236  -4.295 -11.405  0.00  0.00    -0.393 OA
HETATM   13  H           1     -21.891  -4.920 -12.019  0.00  0.00     0.210 HD
ENDBRANCH  10  12
ENDBRANCH   5  10
ENDBRANCH   3   5
BRANCH   1  14
HETATM   14  C           1     -21.182  -4.904  -7.635  0.00  0.00     0.181 C 
HETATM   15  C           1     -21.004  -6.060  -6.659  0.00  0.00     0.043 C 
BRANCH  14  16
HETATM   16  C           1     -19.885  -4.656  -8.365  0.00  0.00     0.196 C 
HETATM   17  O           1     -18.865  -4.315  -7.729  0.00  0.00    -0.646 OA
HETATM   18  O           1     -19.831  -4.793  -9.607  0.00  0.00    -0.646 OA
ENDBRANCH  14  16
ENDBRANCH   1  14
TORSDOF 6
ENDMDL
MODEL 9
REMARK VINA RESULT:      -4.7      2.038      5.047
REMARK  6 active torsions:
REMARK  status: ('A' for Active; 'I' for Inactive)
REMARK    1  A    between atoms: N_1  and  C_2 
REMARK       I    between atoms: N_1  and  C_6 
REMARK    2  A    between atoms: C_2  and  C_3 
REMARK    3  A    between atoms: C_6  and  C_11 
REMARK    4  A    between atoms: N_7  and  C_11 
REMARK    5  A    between atoms: C_9  and  C_11 
REMARK    6  A    between atoms: C_9  and  O_14 
ROOT
HETATM    1  N           1     -34.751  -1.873 -13.427  0.00  0.00    -0.345 N 
HETATM    2  O           1     -36.828  -1.053 -13.484  0.00  0.00    -0.271 OA
HETATM    3  C           1     -35.745  -1.135 -14.012  0.00  0.00     0.251 C 
HETATM    4  H           1     -33.844  -1.942 -13.870  0.00  0.00     0.163 HD
ENDROOT
BRANCH   3   5
HETATM    5  C           1     -35.488  -0.425 -15.319  0.00  0.00     0.302 C 
BRANCH   5   6
HETATM    6  N           1     -36.771  -0.315 -16.088  0.00  0.00    -0.064 N 
HETATM    7  H           1     -37.516   0.080 -15.469  0.00  0.00     0.275 HD
HETATM    8  H           1     -36.633   0.315 -16.909  0.00  0.00     0.275 HD
HETATM    9  H           1     -37.061  -1.263 -16.420  0.00  0.00     0.275 HD
ENDBRANCH   5   6
BRANCH   5  10
HETATM   10  C           1     -34.943   0.970 -15.042  0.00  0.00     0.153 C 
HETATM   11  C           1     -35.863   2.007 -15.669  0.00  0.00     0.042 C 
BRANCH  10  12
HETATM   12  O           1     -34.877   1.179 -13.657  0.00  0.00    -0.393 OA
HETATM   13  H           1     -34.064   1.624 -13.486  0.00  0.00     0.210 HD
ENDBRANCH  10  12
ENDBRANCH   5  10
ENDBRANCH   3   5
BRANCH   1  14
HETATM   14  C           1     -34.999  -2.555 -12.171  0.00  0.00     0.181 C 
HETATM   15  C           1     -34.222  -3.864 -12.145  0.00  0.00     0.043 C 
BRANCH  14  16
HETATM   16  C           1     -34.551  -1.680 -11.027  0.00  0.00     0.196 C 
HETATM   17  O           1     -33.370  -1.737 -10.621  0.00  0.00    -0.646 OA
HETATM   18  O           1     -35.361  -0.897 -10.485  0.00  0.00    -0.646 OA
ENDBRANCH  14  16
ENDBRANCH   1  14
TORSDOF 6
ENDMDL
