MODEL 1
REMARK VINA RESULT:      -5.8      0.000      0.000
REMARK  7 active torsions:
REMARK  status: ('A' for Active; 'I' for Inactive)
REMARK    1  A    between atoms: N_5  and  C_8 
REMARK    2  A    between atoms: Se_6  and  C_7 
REMARK    3  A    between atoms: C_7  and  C_8 
REMARK    4  A    between atoms: C_8  and  C_9 
REMARK       I    between atoms: C_9  and  N_10 
REMARK    5  A    between atoms: N_10  and  C_14 
REMARK    6  A    between atoms: C_13  and  C_14 
REMARK    7  A    between atoms: C_14  and  C_16 
ROOT
HETATM    1  O           1     -21.575  -3.428  -7.236  0.00  0.00    -0.271 OA
HETATM    2  C           1     -21.611  -4.567  -7.636  0.00  0.00     0.249 C 
HETATM    3  N           1     -22.126  -4.842  -8.874  0.00  0.00    -0.344 N 
HETATM    4  H           1     -22.155  -5.797  -9.210  0.00  0.00     0.163 HD
ENDROOT
BRANCH   2   5
HETATM    5  C           1     -21.088  -5.688  -6.771  0.00  0.00     0.274 C 
BRANCH   5   6
HETATM    6  N           1     -19.878  -6.295  -7.418  0.00  0.00    -0.067 N 
HETATM    7  H           1     -19.325  -5.546  -7.894  0.00  0.00     0.275 HD
HETATM    8  H           1     -19.288  -6.755  -6.689  0.00  0.00     0.275 HD
HETATM    9  H           1     -20.179  -7.005  -8.122  0.00  0.00     0.275 HD
ENDBRANCH   5   6
BRANCH   5  10
HETATM   10  C           1     -20.709  -5.138  -5.402  0.00  0.00     0.045 C 
BRANCH  10  11
HETATM   11 Se           1     -21.410  -6.311  -4.013  0.00  0.00     0.000 Se
HETATM   12  H           1     -21.774  -5.210  -3.105  0.00  0.00     0.000 HD
ENDBRANCH  10  11
ENDBRANCH   5  10
ENDBRANCH   2   5
BRANCH   3  13
HETATM   13  C           1     -22.629  -3.765  -9.707  0.00  0.00     0.189 C 
BRANCH  13  14
HETATM   14  C           1     -24.135  -3.829  -9.752  0.00  0.00     0.197 C 
HETATM   15  O           1     -24.813  -2.814  -9.481  0.00  0.00    -0.646 OA
HETATM   16  O           1     -24.707  -4.897 -10.060  0.00  0.00    -0.646 OA
ENDBRANCH  13  14
BRANCH  13  17
HETATM   17  C           1     -22.070  -3.910 -11.115  0.00  0.00     0.010 C 
HETATM   18  C           1     -22.494  -2.712 -11.954  0.00  0.00     0.012 C 
HETATM   19  C           1     -20.550  -3.976 -11.055  0.00  0.00     0.012 C 
ENDBRANCH  13  17
ENDBRANCH   3  13
TORSDOF 7
ENDMDL
MODEL 2
REMARK VINA RESULT:      -5.5     13.376     14.529
REMARK  7 active torsions:
REMARK  status: ('A' for Active; 'I' for Inactive)
REMARK    1  A    between atoms: N_5  and  C_8 
REMARK    2  A    between atoms: Se_6  and  C_7 
REMARK    3  A    between atoms: C_7  and  C_8 
REMARK    4  A    between atoms: C_8  and  C_9 
REMARK       I    between atoms: C_9  and  N_10 
REMARK    5  A    between atoms: N_10  and  C_14 
REMARK    6  A    between atoms: C_13  and  C_14 
REMARK    7  A    between atoms: C_14  and  C_16 
ROOT
HETATM    1  O           1     -36.388  -1.501 -12.310  0.00  0.00    -0.271 OA
HETATM    2  C           1     -35.279  -1.808 -12.676  0.00  0.00     0.249 C 
HETATM    3  N           1     -34.809  -1.362 -13.882  0.00  0.00    -0.344 N 
HETATM    4  H           1     -33.879  -1.618 -14.188  0.00  0.00     0.163 HD
ENDROOT
BRANCH   2   5
HETATM    5  C           1     -34.412  -2.682 -11.804  0.00  0.00     0.274 C 
BRANCH   5   6
HETATM    6  N           1     -33.761  -1.841 -10.745  0.00  0.00    -0.067 N 
HETATM    7  H           1     -33.637  -2.408  -9.877  0.00  0.00     0.275 HD
HETATM    8  H           1     -32.829  -1.513 -11.085  0.00  0.00     0.275 HD
HETATM    9  H           1     -34.365  -1.014 -10.536  0.00  0.00     0.275 HD
ENDBRANCH   5   6
BRANCH   5  10
HETATM   10  C           1     -35.269  -3.753 -11.144  0.00  0.00     0.045 C 
BRANCH  10  11
HETATM   11 Se           1     -34.182  -5.330 -10.789  0.00  0.00     0.000 Se
HETATM   12  H           1     -34.333  -5.248  -9.327  0.00  0.00     0.000 HD
ENDBRANCH  10  11
ENDBRANCH   5  10
ENDBRANCH   2   5
BRANCH   3  13
HETATM   13  C           1     -35.643  -0.521 -14.720  0.00  0.00     0.189 C 
BRANCH  13  14
HETATM   14  C           1     -35.858  -1.199 -16.051  0.00  0.00     0.197 C 
HETATM   15  O           1     -37.014  -1.308 -16.517  0.00  0.00    -0.646 OA
HETATM   16  O           1     -34.883  -1.652 -16.688  0.00  0.00    -0.646 OA
ENDBRANCH  13  14
BRANCH  13  17
HETATM   17  C           1     -34.955   0.819 -14.938  0.00  0.00     0.010 C 
HETATM   18  C           1     -35.909   1.768 -15.651  0.00  0.00     0.012 C 
HETATM   19  C           1     -34.562   1.413 -13.591  0.00  0.00     0.012 C 
ENDBRANCH  13  17
ENDBRANCH   3  13
TORSDOF 7
ENDMDL
MODEL 3
REMARK VINA RESULT:      -5.5     12.244     14.008
REMARK  7 active torsions:
REMARK  status: ('A' for Active; 'I' for Inactive)
REMARK    1  A    between atoms: N_5  and  C_8 
REMARK    2  A    between atoms: Se_6  and  C_7 
REMARK    3  A    between atoms: C_7  and  C_8 
REMARK    4  A    between atoms: C_8  and  C_9 
REMARK       I    between atoms: C_9  and  N_10 
REMARK    5  A    between atoms: N_10  and  C_14 
REMARK    6  A    between atoms: C_13  and  C_14 
REMARK    7  A    between atoms: C_14  and  C_16 
ROOT
HETATM    1  O           1     -33.612  -2.149 -11.276  0.00  0.00    -0.271 OA
HETATM    2  C           1     -34.393  -2.607 -12.075  0.00  0.00     0.249 C 
HETATM    3  N           1     -35.390  -1.820 -12.586  0.00  0.00    -0.344 N 
HETATM    4  H           1     -36.044  -2.203 -13.257  0.00  0.00     0.163 HD
ENDROOT
BRANCH   2   5
HETATM    5  C           1     -34.270  -4.046 -12.511  0.00  0.00     0.274 C 
BRANCH   5   6
HETATM    6  N           1     -33.722  -4.100 -13.907  0.00  0.00    -0.067 N 
HETATM    7  H           1     -32.977  -3.375 -14.017  0.00  0.00     0.275 HD
HETATM    8  H           1     -33.319  -5.046 -14.087  0.00  0.00     0.275 HD
HETATM    9  H           1     -34.491  -3.914 -14.590  0.00  0.00     0.275 HD
ENDBRANCH   5   6
BRANCH   5  10
HETATM   10  C           1     -33.328  -4.784 -11.569  0.00  0.00     0.045 C 
BRANCH  10  11
HETATM   11 Se           1     -34.315  -6.164 -10.612  0.00  0.00     0.000 Se
HETATM   12  H           1     -34.786  -6.839 -11.833  0.00  0.00     0.000 HD
ENDBRANCH  10  11
ENDBRANCH   5  10
ENDBRANCH   2   5
BRANCH   3  13
HETATM   13  C           1     -35.508  -0.436 -12.167  0.00  0.00     0.189 C 
BRANCH  13  14
HETATM   14  C           1     -36.632  -0.310 -11.167  0.00  0.00     0.197 C 
HETATM   15  O           1     -37.639  -1.044 -11.264  0.00  0.00    -0.646 OA
HETATM   16  O           1     -36.556   0.528 -10.244  0.00  0.00    -0.646 OA
ENDBRANCH  13  14
BRANCH  13  17
HETATM   17  C           1     -35.805   0.437 -13.378  0.00  0.00     0.010 C 
HETATM   18  C           1     -34.533   1.153 -13.810  0.00  0.00     0.012 C 
HETATM   19  C           1     -36.310  -0.435 -14.521  0.00  0.00     0.012 C 
ENDBRANCH  13  17
ENDBRANCH   3  13
TORSDOF 7
ENDMDL
MODEL 4
REMARK VINA RESULT:      -5.2     12.542     14.237
REMARK  7 active torsions:
REMARK  status: ('A' for Active; 'I' for Inactive)
REMARK    1  A    between atoms: N_5  and  C_8 
REMARK    2  A    between atoms: Se_6  and  C_7 
REMARK    3  A    between atoms: C_7  and  C_8 
REMARK    4  A    between atoms: C_8  and  C_9 
REMARK       I    between atoms: C_9  and  N_10 
REMARK    5  A    between atoms: N_10  and  C_14 
REMARK    6  A    between atoms: C_13  and  C_14 
REMARK    7  A    between atoms: C_14  and  C_16 
ROOT
HETATM    1  O           1     -34.452  -2.930 -13.448  0.00  0.00    -0.271 OA
HETATM    2  C           1     -34.423  -2.305 -12.416  0.00  0.00     0.249 C 
HETATM    3  N           1     -35.015  -1.073 -12.344  0.00  0.00    -0.344 N 
HETATM    4  H           1     -34.992  -0.549 -11.478  0.00  0.00     0.163 HD
ENDROOT
BRANCH   2   5
HETATM    5  C           1     -33.733  -2.882 -11.203  0.00  0.00     0.274 C 
BRANCH   5   6
HETATM    6  N           1     -33.555  -1.808 -10.171  0.00  0.00    -0.067 N 
HETATM    7  H           1     -34.455  -1.664  -9.659  0.00  0.00     0.275 HD
HETATM    8  H           1     -32.811  -2.094  -9.496  0.00  0.00     0.275 HD
HETATM    9  H           1     -33.276  -0.917 -10.640  0.00  0.00     0.275 HD
ENDBRANCH   5   6
BRANCH   5  10
HETATM   10  C           1     -34.581  -4.006 -10.624  0.00  0.00     0.045 C 
BRANCH  10  11
HETATM   11 Se           1     -33.787  -5.725 -11.087  0.00  0.00     0.000 Se
HETATM   12  H           1     -34.064  -5.596 -12.527  0.00  0.00     0.000 HD
ENDBRANCH  10  11
ENDBRANCH   5  10
ENDBRANCH   2   5
BRANCH   3  13
HETATM   13  C           1     -35.678  -0.518 -13.509  0.00  0.00     0.189 C 
BRANCH  13  14
HETATM   14  C           1     -34.769   0.489 -14.170  0.00  0.00     0.197 C 
HETATM   15  O           1     -34.423   0.331 -15.361  0.00  0.00    -0.646 OA
HETATM   16  O           1     -34.362   1.481 -13.528  0.00  0.00    -0.646 OA
ENDBRANCH  13  14
BRANCH  13  17
HETATM   17  C           1     -36.969   0.166 -13.081  0.00  0.00     0.010 C 
HETATM   18  C           1     -38.075  -0.174 -14.070  0.00  0.00     0.012 C 
HETATM   19  C           1     -37.363  -0.319 -11.692  0.00  0.00     0.012 C 
ENDBRANCH  13  17
ENDBRANCH   3  13
TORSDOF 7
ENDMDL
MODEL 5
REMARK VINA RESULT:      -4.4      6.540      8.872
REMARK  7 active torsions:
REMARK  status: ('A' for Active; 'I' for Inactive)
REMARK    1  A    between atoms: N_5  and  C_8 
REMARK    2  A    between atoms: Se_6  and  C_7 
REMARK    3  A    between atoms: C_7  and  C_8 
REMARK    4  A    between atoms: C_8  and  C_9 
REMARK       I    between atoms: C_9  and  N_10 
REMARK    5  A    between atoms: N_10  and  C_14 
REMARK    6  A    between atoms: C_13  and  C_14 
REMARK    7  A    between atoms: C_14  and  C_16 
ROOT
HETATM    1  O           1     -19.163  -8.967  -2.713  0.00  0.00    -0.271 OA
HETATM    2  C           1     -20.158  -8.662  -3.325  0.00  0.00     0.249 C 
HETATM    3  N           1     -21.374  -8.656  -2.698  0.00  0.00    -0.344 N 
HETATM    4  H           1     -22.207  -8.399  -3.211  0.00  0.00     0.163 HD
ENDROOT
BRANCH   2   5
HETATM    5  C           1     -20.059  -8.285  -4.783  0.00  0.00     0.274 C 
BRANCH   5   6
HETATM    6  N           1     -19.945  -9.529  -5.614  0.00  0.00    -0.067 N 
HETATM    7  H           1     -19.348 -10.227  -5.115  0.00  0.00     0.275 HD
HETATM    8  H           1     -20.896  -9.931  -5.770  0.00  0.00     0.275 HD
HETATM    9  H           1     -19.511  -9.295  -6.535  0.00  0.00     0.275 HD
ENDBRANCH   5   6
BRANCH   5  10
HETATM   10  C           1     -21.305  -7.513  -5.194  0.00  0.00     0.045 C 
BRANCH  10  11
HETATM   11 Se           1     -20.877  -5.618  -5.347  0.00  0.00     0.000 Se
HETATM   12  H           1     -19.841  -5.649  -4.301  0.00  0.00     0.000 HD
ENDBRANCH  10  11
ENDBRANCH   5  10
ENDBRANCH   2   5
BRANCH   3  13
HETATM   13  C           1     -21.469  -9.018  -1.296  0.00  0.00     0.189 C 
BRANCH  13  14
HETATM   14  C           1     -22.016 -10.419  -1.176  0.00  0.00     0.197 C 
HETATM   15  O           1     -21.234 -11.386  -1.041  0.00  0.00    -0.646 OA
HETATM   16  O           1     -23.250 -10.614  -1.214  0.00  0.00    -0.646 OA
ENDBRANCH  13  14
BRANCH  13  17
HETATM   17  C           1     -22.399  -8.046  -0.583  0.00  0.00     0.010 C 
HETATM   18  C           1     -22.031  -7.984   0.894  0.00  0.00     0.012 C 
HETATM   19  C           1     -22.255  -6.661  -1.201  0.00  0.00     0.012 C 
ENDBRANCH  13  17
ENDBRANCH   3  13
TORSDOF 7
ENDMDL
MODEL 6
REMARK VINA RESULT:      -4.3      1.651      2.080
REMARK  7 active torsions:
REMARK  status: ('A' for Active; 'I' for Inactive)
REMARK    1  A    between atoms: N_5  and  C_8 
REMARK    2  A    between atoms: Se_6  and  C_7 
REMARK    3  A    between atoms: C_7  and  C_8 
REMARK    4  A    between atoms: C_8  and  C_9 
REMARK       I    between atoms: C_9  and  N_10 
REMARK    5  A    between atoms: N_10  and  C_14 
REMARK    6  A    between atoms: C_13  and  C_14 
REMARK    7  A    between atoms: C_14  and  C_16 
ROOT
HETATM    1  O           1     -21.672  -2.819  -7.182  0.00  0.00    -0.271 OA
HETATM    2  C           1     -21.719  -4.007  -7.394  0.00  0.00     0.249 C 
HETATM    3  N           1     -22.245  -4.473  -8.569  0.00  0.00    -0.344 N 
HETATM    4  H           1     -22.283  -5.468  -8.747  0.00  0.00     0.163 HD
ENDROOT
BRANCH   2   5
HETATM    5  C           1     -21.195  -4.979  -6.365  0.00  0.00     0.274 C 
BRANCH   5   6
HETATM    6  N           1     -22.295  -5.913  -5.954  0.00  0.00    -0.067 N 
HETATM    7  H           1     -23.197  -5.387  -5.903  0.00  0.00     0.275 HD
HETATM    8  H           1     -22.379  -6.681  -6.656  0.00  0.00     0.275 HD
HETATM    9  H           1     -22.076  -6.319  -5.017  0.00  0.00     0.275 HD
ENDBRANCH   5   6
BRANCH   5  10
HETATM   10  C           1     -20.045  -5.780  -6.960  0.00  0.00     0.045 C 
BRANCH  10  11
HETATM   11 Se           1     -18.653  -4.563  -7.573  0.00  0.00     0.000 Se
HETATM   12  H           1     -17.545  -5.387  -7.062  0.00  0.00     0.000 HD
ENDBRANCH  10  11
ENDBRANCH   5  10
ENDBRANCH   2   5
BRANCH   3  13
HETATM   13  C           1     -22.748  -3.539  -9.559  0.00  0.00     0.189 C 
BRANCH  13  14
HETATM   14  C           1     -23.988  -4.111 -10.202  0.00  0.00     0.197 C 
HETATM   15  O           1     -24.019  -5.316 -10.536  0.00  0.00    -0.646 OA
HETATM   16  O           1     -24.982  -3.381 -10.402  0.00  0.00    -0.646 OA
ENDBRANCH  13  14
BRANCH  13  17
HETATM   17  C           1     -21.684  -3.307 -10.623  0.00  0.00     0.010 C 
HETATM   18  C           1     -20.889  -4.588 -10.832  0.00  0.00     0.012 C 
HETATM   19  C           1     -22.354  -2.906 -11.931  0.00  0.00     0.012 C 
ENDBRANCH  13  17
ENDBRANCH   3  13
TORSDOF 7
ENDMDL
MODEL 7
REMARK VINA RESULT:      -4.3      7.592      9.761
REMARK  7 active torsions:
REMARK  status: ('A' for Active; 'I' for Inactive)
REMARK    1  A    between atoms: N_5  and  C_8 
REMARK    2  A    between atoms: Se_6  and  C_7 
REMARK    3  A    between atoms: C_7  and  C_8 
REMARK    4  A    between atoms: C_8  and  C_9 
REMARK       I    between atoms: C_9  and  N_10 
REMARK    5  A    between atoms: N_10  and  C_14 
REMARK    6  A    between atoms: C_13  and  C_14 
REMARK    7  A    between atoms: C_14  and  C_16 
ROOT
HETATM    1  O           1     -19.353  -8.911  -2.337  0.00  0.00    -0.271 OA
HETATM    2  C           1     -20.436  -9.431  -2.452  0.00  0.00     0.249 C 
HETATM    3  N           1     -21.351  -9.342  -1.439  0.00  0.00    -0.344 N 
HETATM    4  H           1     -22.260  -9.777  -1.537  0.00  0.00     0.163 HD
ENDROOT
BRANCH   2   5
HETATM    5  C           1     -20.781 -10.181  -3.717  0.00  0.00     0.274 C 
BRANCH   5   6
HETATM    6  N           1     -22.256 -10.450  -3.751  0.00  0.00    -0.067 N 
HETATM    7  H           1     -22.520 -10.826  -4.689  0.00  0.00     0.275 HD
HETATM    8  H           1     -22.500 -11.148  -3.013  0.00  0.00     0.275 HD
HETATM    9  H           1     -22.777  -9.561  -3.574  0.00  0.00     0.275 HD
ENDBRANCH   5   6
BRANCH   5  10
HETATM   10  C           1     -20.390  -9.344  -4.926  0.00  0.00     0.045 C 
BRANCH  10  11
HETATM   11 Se           1     -21.476  -7.727  -4.978  0.00  0.00     0.000 Se
HETATM   12  H           1     -22.678  -8.411  -5.483  0.00  0.00     0.000 HD
ENDBRANCH  10  11
ENDBRANCH   5  10
ENDBRANCH   2   5
BRANCH   3  13
HETATM   13  C           1     -21.020  -8.621  -0.224  0.00  0.00     0.189 C 
BRANCH  13  14
HETATM   14  C           1     -20.910  -9.596   0.922  0.00  0.00     0.197 C 
HETATM   15  O           1     -20.553  -9.194   2.052  0.00  0.00    -0.646 OA
HETATM   16  O           1     -21.173 -10.804   0.744  0.00  0.00    -0.646 OA
ENDBRANCH  13  14
BRANCH  13  17
HETATM   17  C           1     -22.113  -7.604   0.076  0.00  0.00     0.010 C 
HETATM   18  C           1     -22.319  -6.709  -1.138  0.00  0.00     0.012 C 
HETATM   19  C           1     -23.411  -8.334   0.395  0.00  0.00     0.012 C 
ENDBRANCH  13  17
ENDBRANCH   3  13
TORSDOF 7
ENDMDL
MODEL 8
REMARK VINA RESULT:      -4.3      6.518      9.473
REMARK  7 active torsions:
REMARK  status: ('A' for Active; 'I' for Inactive)
REMARK    1  A    between atoms: N_5  and  C_8 
REMARK    2  A    between atoms: Se_6  and  C_7 
REMARK    3  A    between atoms: C_7  and  C_8 
REMARK    4  A    between atoms: C_8  and  C_9 
REMARK       I    between atoms: C_9  and  N_10 
REMARK    5  A    between atoms: N_10  and  C_14 
REMARK    6  A    between atoms: C_13  and  C_14 
REMARK    7  A    between atoms: C_14  and  C_16 
ROOT
HETATM    1  O           1     -20.784  -7.020  -2.107  0.00  0.00    -0.271 OA
HETATM    2  C           1     -21.344  -7.900  -2.715  0.00  0.00     0.249 C 
HETATM    3  N           1     -21.617  -9.091  -2.099  0.00  0.00    -0.344 N 
HETATM    4  H           1     -22.088  -9.829  -2.607  0.00  0.00     0.163 HD
ENDROOT
BRANCH   2   5
HETATM    5  C           1     -21.744  -7.686  -4.154  0.00  0.00     0.274 C 
BRANCH   5   6
HETATM    6  N           1     -22.310  -6.305  -4.315  0.00  0.00    -0.067 N 
HETATM    7  H           1     -22.193  -5.775  -3.422  0.00  0.00     0.275 HD
HETATM    8  H           1     -21.805  -5.810  -5.083  0.00  0.00     0.275 HD
HETATM    9  H           1     -23.326  -6.370  -4.550  0.00  0.00     0.275 HD
ENDBRANCH   5   6
BRANCH   5  10
HETATM   10  C           1     -20.523  -7.841  -5.050  0.00  0.00     0.045 C 
BRANCH  10  11
HETATM   11 Se           1     -20.324  -6.251  -6.159  0.00  0.00     0.000 Se
HETATM   12  H           1     -21.400  -6.625  -7.092  0.00  0.00     0.000 HD
ENDBRANCH  10  11
ENDBRANCH   5  10
ENDBRANCH   2   5
BRANCH   3  13
HETATM   13  C           1     -21.232  -9.297  -0.715  0.00  0.00     0.189 C 
BRANCH  13  14
HETATM   14  C           1     -20.336 -10.507  -0.619  0.00  0.00     0.197 C 
HETATM   15  O           1     -20.087 -11.013   0.498  0.00  0.00    -0.646 OA
HETATM   16  O           1     -19.842 -11.004  -1.653  0.00  0.00    -0.646 OA
ENDBRANCH  13  14
BRANCH  13  17
HETATM   17  C           1     -22.479  -9.519   0.130  0.00  0.00     0.010 C 
HETATM   18  C           1     -23.140  -8.177   0.419  0.00  0.00     0.012 C 
HETATM   19  C           1     -23.453 -10.412  -0.627  0.00  0.00     0.012 C 
ENDBRANCH  13  17
ENDBRANCH   3  13
TORSDOF 7
ENDMDL
MODEL 9
REMARK VINA RESULT:      -4.2      7.844      9.234
REMARK  7 active torsions:
REMARK  status: ('A' for Active; 'I' for Inactive)
REMARK    1  A    between atoms: N_5  and  C_8 
REMARK    2  A    between atoms: Se_6  and  C_7 
REMARK    3  A    between atoms: C_7  and  C_8 
REMARK    4  A    between atoms: C_8  and  C_9 
REMARK       I    between atoms: C_9  and  N_10 
REMARK    5  A    between atoms: N_10  and  C_14 
REMARK    6  A    between atoms: C_13  and  C_14 
REMARK    7  A    between atoms: C_14  and  C_16 
ROOT
HETATM    1  O           1     -20.869 -10.124  -3.245  0.00  0.00    -0.271 OA
HETATM    2  C           1     -20.119  -9.776  -2.365  0.00  0.00     0.249 C 
HETATM    3  N           1     -20.546  -8.897  -1.408  0.00  0.00    -0.344 N 
HETATM    4  H           1     -19.918  -8.607  -0.669  0.00  0.00     0.163 HD
ENDROOT
BRANCH   2   5
HETATM    5  C           1     -18.709 -10.313  -2.320  0.00  0.00     0.274 C 
BRANCH   5   6
HETATM    6  N           1     -18.733 -11.798  -2.538  0.00  0.00    -0.067 N 
HETATM    7  H           1     -19.724 -12.125  -2.598  0.00  0.00     0.275 HD
HETATM    8  H           1     -18.235 -12.028  -3.427  0.00  0.00     0.275 HD
HETATM    9  H           1     -18.257 -12.275  -1.739  0.00  0.00     0.275 HD
ENDBRANCH   5   6
BRANCH   5  10
HETATM   10  C           1     -17.879  -9.655  -3.414  0.00  0.00     0.045 C 
BRANCH  10  11
HETATM   11 Se           1     -15.996  -9.696  -2.916  0.00  0.00     0.000 Se
HETATM   12  H           1     -15.563  -8.831  -4.026  0.00  0.00     0.000 HD
ENDBRANCH  10  11
ENDBRANCH   5  10
ENDBRANCH   2   5
BRANCH   3  13
HETATM   13  C           1     -21.902  -8.381  -1.450  0.00  0.00     0.189 C 
BRANCH  13  14
HETATM   14  C           1     -21.876  -6.940  -1.897  0.00  0.00     0.197 C 
HETATM   15  O           1     -21.275  -6.623  -2.947  0.00  0.00    -0.646 OA
HETATM   16  O           1     -22.452  -6.064  -1.218  0.00  0.00    -0.646 OA
ENDBRANCH  13  14
BRANCH  13  17
HETATM   17  C           1     -22.523  -8.473  -0.063  0.00  0.00     0.010 C 
HETATM   18  C           1     -23.383  -9.726   0.026  0.00  0.00     0.012 C 
HETATM   19  C           1     -21.418  -8.539   0.984  0.00  0.00     0.012 C 
ENDBRANCH  13  17
ENDBRANCH   3  13
TORSDOF 7
ENDMDL
