MODEL 1
REMARK VINA RESULT:      -6.6      0.000      0.000
REMARK  8 active torsions:
REMARK  status: ('A' for Active; 'I' for Inactive)
REMARK    1  A    between atoms: C_2  and  C_3 
REMARK    2  A    between atoms: C_2  and  C_15 
REMARK    3  A    between atoms: C_6  and  C_7 
REMARK    4  A    between atoms: C_6  and  C_14 
REMARK    5  A    between atoms: C_7  and  C_8 
REMARK    6  A    between atoms: C_7  and  N_11 
REMARK       I    between atoms: C_8  and  N_20 
REMARK    7  A    between atoms: C_15  and  C_16 
REMARK    8  A    between atoms: C_15  and  N_20 
ROOT
HETATM    1  O           1     -21.611  -3.495  -7.427  0.00  0.00    -0.271 OA
HETATM    2  C           1     -21.700  -4.629  -7.837  0.00  0.00     0.249 C 
HETATM    3  N           1     -22.330  -4.878  -9.026  0.00  0.00    -0.344 N 
HETATM    4  H           1     -22.405  -5.827  -9.371  0.00  0.00     0.163 HD
ENDROOT
BRANCH   2   5
HETATM    5  C           1     -21.117  -5.768  -7.039  0.00  0.00     0.275 C 
BRANCH   5   6
HETATM    6  C           1     -20.990  -5.353  -5.579  0.00  0.00     0.046 C 
BRANCH   6   7
HETATM    7  C           1     -21.805  -6.300  -4.708  0.00  0.00    -0.020 C 
HETATM    8  C           1     -21.391  -6.134  -3.252  0.00  0.00     0.009 C 
HETATM    9  C           1     -21.551  -7.737  -5.147  0.00  0.00     0.009 C 
ENDBRANCH   6   7
ENDBRANCH   5   6
BRANCH   5  10
HETATM   10  N           1     -19.761  -6.114  -7.580  0.00  0.00    -0.066 N 
HETATM   11  H           1     -19.844  -6.366  -8.591  0.00  0.00     0.275 HD
HETATM   12  H           1     -19.125  -5.290  -7.478  0.00  0.00     0.275 HD
HETATM   13  H           1     -19.371  -6.924  -7.049  0.00  0.00     0.275 HD
ENDBRANCH   5  10
ENDBRANCH   2   5
BRANCH   3  14
HETATM   14  C           1     -22.890  -3.783  -9.795  0.00  0.00     0.189 C 
BRANCH  14  15
HETATM   15  C           1     -22.492  -3.932 -11.257  0.00  0.00     0.014 C 
HETATM   16  C           1     -22.876  -2.671 -12.018  0.00  0.00     0.012 C 
BRANCH  15  17
HETATM   17  C           1     -20.987  -4.145 -11.352  0.00  0.00     0.002 C 
HETATM   18  C           1     -20.274  -2.806 -11.210  0.00  0.00     0.005 C 
ENDBRANCH  15  17
ENDBRANCH  14  15
BRANCH  14  19
HETATM   19  C           1     -24.395  -3.806  -9.678  0.00  0.00     0.197 C 
HETATM   20  O           1     -25.019  -2.754  -9.421  0.00  0.00    -0.646 OA
HETATM   21  O           1     -25.018  -4.878  -9.840  0.00  0.00    -0.646 OA
ENDBRANCH  14  19
ENDBRANCH   3  14
TORSDOF 8
ENDMDL
MODEL 2
REMARK VINA RESULT:      -6.4     12.232     13.787
REMARK  8 active torsions:
REMARK  status: ('A' for Active; 'I' for Inactive)
REMARK    1  A    between atoms: C_2  and  C_3 
REMARK    2  A    between atoms: C_2  and  C_15 
REMARK    3  A    between atoms: C_6  and  C_7 
REMARK    4  A    between atoms: C_6  and  C_14 
REMARK    5  A    between atoms: C_7  and  C_8 
REMARK    6  A    between atoms: C_7  and  N_11 
REMARK       I    between atoms: C_8  and  N_20 
REMARK    7  A    between atoms: C_15  and  C_16 
REMARK    8  A    between atoms: C_15  and  N_20 
ROOT
HETATM    1  O           1     -33.418  -1.921 -10.802  0.00  0.00    -0.271 OA
HETATM    2  C           1     -34.045  -2.544 -11.627  0.00  0.00     0.249 C 
HETATM    3  N           1     -34.994  -1.912 -12.384  0.00  0.00    -0.344 N 
HETATM    4  H           1     -35.519  -2.432 -13.076  0.00  0.00     0.163 HD
ENDROOT
BRANCH   2   5
HETATM    5  C           1     -33.783  -4.017 -11.821  0.00  0.00     0.275 C 
BRANCH   5   6
HETATM    6  C           1     -34.045  -4.756 -10.515  0.00  0.00     0.046 C 
BRANCH   6   7
HETATM    7  C           1     -34.244  -6.238 -10.801  0.00  0.00    -0.020 C 
HETATM    8  C           1     -35.149  -6.404 -12.014  0.00  0.00     0.009 C 
HETATM    9  C           1     -34.888  -6.907  -9.593  0.00  0.00     0.009 C 
ENDBRANCH   6   7
ENDBRANCH   5   6
BRANCH   5  10
HETATM   10  N           1     -32.355  -4.219 -12.232  0.00  0.00    -0.066 N 
HETATM   11  H           1     -32.256  -4.027 -13.255  0.00  0.00     0.275 HD
HETATM   12  H           1     -31.741  -3.565 -11.695  0.00  0.00     0.275 HD
HETATM   13  H           1     -32.072  -5.205 -12.034  0.00  0.00     0.275 HD
ENDBRANCH   5  10
ENDBRANCH   2   5
BRANCH   3  14
HETATM   14  C           1     -35.246  -0.496 -12.199  0.00  0.00     0.189 C 
BRANCH  14  15
HETATM   15  C           1     -35.589   0.139 -13.539  0.00  0.00     0.014 C 
HETATM   16  C           1     -34.605   1.262 -13.835  0.00  0.00     0.012 C 
BRANCH  15  17
HETATM   17  C           1     -35.501  -0.915 -14.636  0.00  0.00     0.002 C 
HETATM   18  C           1     -36.038  -0.339 -15.940  0.00  0.00     0.005 C 
ENDBRANCH  15  17
ENDBRANCH  14  15
BRANCH  14  19
HETATM   19  C           1     -36.401  -0.313 -11.245  0.00  0.00     0.197 C 
HETATM   20  O           1     -37.439  -0.996 -11.382  0.00  0.00    -0.646 OA
HETATM   21  O           1     -36.319   0.521 -10.317  0.00  0.00    -0.646 OA
ENDBRANCH  14  19
ENDBRANCH   3  14
TORSDOF 8
ENDMDL
MODEL 3
REMARK VINA RESULT:      -5.9     12.362     14.884
REMARK  8 active torsions:
REMARK  status: ('A' for Active; 'I' for Inactive)
REMARK    1  A    between atoms: C_2  and  C_3 
REMARK    2  A    between atoms: C_2  and  C_15 
REMARK    3  A    between atoms: C_6  and  C_7 
REMARK    4  A    between atoms: C_6  and  C_14 
REMARK    5  A    between atoms: C_7  and  C_8 
REMARK    6  A    between atoms: C_7  and  N_11 
REMARK       I    between atoms: C_8  and  N_20 
REMARK    7  A    between atoms: C_15  and  C_16 
REMARK    8  A    between atoms: C_15  and  N_20 
ROOT
HETATM    1  O           1     -34.719   0.088 -12.022  0.00  0.00    -0.271 OA
HETATM    2  C           1     -35.629  -0.635 -11.690  0.00  0.00     0.249 C 
HETATM    3  N           1     -35.575  -1.973 -11.971  0.00  0.00    -0.344 N 
HETATM    4  H           1     -36.337  -2.580 -11.694  0.00  0.00     0.163 HD
ENDROOT
BRANCH   2   5
HETATM    5  C           1     -36.823  -0.063 -10.967  0.00  0.00     0.275 C 
BRANCH   5   6
HETATM    6  C           1     -36.890  -0.642  -9.560  0.00  0.00     0.046 C 
BRANCH   6   7
HETATM    7  C           1     -37.934   0.114  -8.749  0.00  0.00    -0.020 C 
HETATM    8  C           1     -37.686   1.611  -8.873  0.00  0.00     0.009 C 
HETATM    9  C           1     -37.834  -0.297  -7.285  0.00  0.00     0.009 C 
ENDBRANCH   6   7
ENDBRANCH   5   6
BRANCH   5  10
HETATM   10  N           1     -38.075  -0.417 -11.714  0.00  0.00    -0.066 N 
HETATM   11  H           1     -38.902  -0.291 -11.086  0.00  0.00     0.275 HD
HETATM   12  H           1     -38.172   0.208 -12.546  0.00  0.00     0.275 HD
HETATM   13  H           1     -38.023  -1.412 -12.027  0.00  0.00     0.275 HD
ENDBRANCH   5  10
ENDBRANCH   2   5
BRANCH   3  14
HETATM   14  C           1     -34.428  -2.524 -12.666  0.00  0.00     0.189 C 
BRANCH  14  15
HETATM   15  C           1     -34.122  -3.912 -12.121  0.00  0.00     0.014 C 
HETATM   16  C           1     -32.651  -3.994 -11.738  0.00  0.00     0.012 C 
BRANCH  15  17
HETATM   17  C           1     -34.982  -4.174 -10.891  0.00  0.00     0.002 C 
HETATM   18  C           1     -34.637  -5.538 -10.309  0.00  0.00     0.005 C 
ENDBRANCH  15  17
ENDBRANCH  14  15
BRANCH  14  19
HETATM   19  C           1     -34.731  -2.618 -14.141  0.00  0.00     0.197 C 
HETATM   20  O           1     -34.453  -3.661 -14.771  0.00  0.00    -0.646 OA
HETATM   21  O           1     -35.263  -1.654 -14.733  0.00  0.00    -0.646 OA
ENDBRANCH  14  19
ENDBRANCH   3  14
TORSDOF 8
ENDMDL
MODEL 4
REMARK VINA RESULT:      -5.8     12.280     14.603
REMARK  8 active torsions:
REMARK  status: ('A' for Active; 'I' for Inactive)
REMARK    1  A    between atoms: C_2  and  C_3 
REMARK    2  A    between atoms: C_2  and  C_15 
REMARK    3  A    between atoms: C_6  and  C_7 
REMARK    4  A    between atoms: C_6  and  C_14 
REMARK    5  A    between atoms: C_7  and  C_8 
REMARK    6  A    between atoms: C_7  and  N_11 
REMARK       I    between atoms: C_8  and  N_20 
REMARK    7  A    between atoms: C_15  and  C_16 
REMARK    8  A    between atoms: C_15  and  N_20 
ROOT
HETATM    1  O           1     -33.811  -1.270 -10.933  0.00  0.00    -0.271 OA
HETATM    2  C           1     -34.882  -1.554 -11.415  0.00  0.00     0.249 C 
HETATM    3  N           1     -35.210  -2.866 -11.626  0.00  0.00    -0.344 N 
HETATM    4  H           1     -36.108  -3.105 -12.030  0.00  0.00     0.163 HD
ENDROOT
BRANCH   2   5
HETATM    5  C           1     -35.857  -0.463 -11.783  0.00  0.00     0.275 C 
BRANCH   5   6
HETATM    6  C           1     -35.223   0.457 -12.818  0.00  0.00     0.046 C 
BRANCH   6   7
HETATM    7  C           1     -35.738   0.095 -14.204  0.00  0.00    -0.020 C 
HETATM    8  C           1     -35.426   1.227 -15.174  0.00  0.00     0.009 C 
HETATM    9  C           1     -37.245  -0.120 -14.145  0.00  0.00     0.009 C 
ENDBRANCH   6   7
ENDBRANCH   5   6
BRANCH   5  10
HETATM   10  N           1     -36.207   0.328 -10.558  0.00  0.00    -0.066 N 
HETATM   11  H           1     -37.237   0.267 -10.386  0.00  0.00     0.275 HD
HETATM   12  H           1     -35.695  -0.061  -9.734  0.00  0.00     0.275 HD
HETATM   13  H           1     -35.936   1.326 -10.699  0.00  0.00     0.275 HD
ENDBRANCH   5  10
ENDBRANCH   2   5
BRANCH   3  14
HETATM   14  C           1     -34.274  -3.914 -11.272  0.00  0.00     0.189 C 
BRANCH  14  15
HETATM   15  C           1     -35.030  -5.216 -11.046  0.00  0.00     0.014 C 
HETATM   16  C           1     -35.116  -5.987 -12.356  0.00  0.00     0.012 C 
BRANCH  15  17
HETATM   17  C           1     -34.295  -6.056 -10.010  0.00  0.00     0.002 C 
HETATM   18  C           1     -34.886  -7.459  -9.978  0.00  0.00     0.005 C 
ENDBRANCH  15  17
ENDBRANCH  14  15
BRANCH  14  19
HETATM   19  C           1     -33.279  -4.098 -12.392  0.00  0.00     0.197 C 
HETATM   20  O           1     -33.607  -3.834 -13.569  0.00  0.00    -0.646 OA
HETATM   21  O           1     -32.127  -4.514 -12.143  0.00  0.00    -0.646 OA
ENDBRANCH  14  19
ENDBRANCH   3  14
TORSDOF 8
ENDMDL
MODEL 5
REMARK VINA RESULT:      -5.6      2.979      6.912
REMARK  8 active torsions:
REMARK  status: ('A' for Active; 'I' for Inactive)
REMARK    1  A    between atoms: C_2  and  C_3 
REMARK    2  A    between atoms: C_2  and  C_15 
REMARK    3  A    between atoms: C_6  and  C_7 
REMARK    4  A    between atoms: C_6  and  C_14 
REMARK    5  A    between atoms: C_7  and  C_8 
REMARK    6  A    between atoms: C_7  and  N_11 
REMARK       I    between atoms: C_8  and  N_20 
REMARK    7  A    between atoms: C_15  and  C_16 
REMARK    8  A    between atoms: C_15  and  N_20 
ROOT
HETATM    1  O           1     -22.909  -5.921  -5.484  0.00  0.00    -0.271 OA
HETATM    2  C           1     -21.706  -5.808  -5.491  0.00  0.00     0.249 C 
HETATM    3  N           1     -20.943  -6.571  -4.648  0.00  0.00    -0.344 N 
HETATM    4  H           1     -19.935  -6.478  -4.653  0.00  0.00     0.163 HD
ENDROOT
BRANCH   2   5
HETATM    5  C           1     -21.045  -4.828  -6.428  0.00  0.00     0.275 C 
BRANCH   5   6
HETATM    6  C           1     -21.186  -5.322  -7.862  0.00  0.00     0.046 C 
BRANCH   6   7
HETATM    7  C           1     -21.296  -4.128  -8.801  0.00  0.00    -0.020 C 
HETATM    8  C           1     -22.754  -3.923  -9.192  0.00  0.00     0.009 C 
HETATM    9  C           1     -20.468  -4.390 -10.053  0.00  0.00     0.009 C 
ENDBRANCH   6   7
ENDBRANCH   5   6
BRANCH   5  10
HETATM   10  N           1     -19.590  -4.710  -6.081  0.00  0.00    -0.066 N 
HETATM   11  H           1     -19.012  -4.936  -6.922  0.00  0.00     0.275 HD
HETATM   12  H           1     -19.384  -3.734  -5.770  0.00  0.00     0.275 HD
HETATM   13  H           1     -19.361  -5.378  -5.311  0.00  0.00     0.275 HD
ENDBRANCH   5  10
ENDBRANCH   2   5
BRANCH   3  14
HETATM   14  C           1     -21.578  -7.514  -3.748  0.00  0.00     0.189 C 
BRANCH  14  15
HETATM   15  C           1     -20.778  -8.809  -3.722  0.00  0.00     0.014 C 
HETATM   16  C           1     -21.633  -9.944  -4.269  0.00  0.00     0.012 C 
BRANCH  15  17
HETATM   17  C           1     -19.532  -8.652  -4.584  0.00  0.00     0.002 C 
HETATM   18  C           1     -18.354  -9.338  -3.906  0.00  0.00     0.005 C 
ENDBRANCH  15  17
ENDBRANCH  14  15
BRANCH  14  19
HETATM   19  C           1     -21.627  -6.926  -2.359  0.00  0.00     0.197 C 
HETATM   20  O           1     -20.984  -7.460  -1.430  0.00  0.00    -0.646 OA
HETATM   21  O           1     -22.311  -5.903  -2.137  0.00  0.00    -0.646 OA
ENDBRANCH  14  19
ENDBRANCH   3  14
TORSDOF 8
ENDMDL
MODEL 6
REMARK VINA RESULT:      -5.6      3.117      7.088
REMARK  8 active torsions:
REMARK  status: ('A' for Active; 'I' for Inactive)
REMARK    1  A    between atoms: C_2  and  C_3 
REMARK    2  A    between atoms: C_2  and  C_15 
REMARK    3  A    between atoms: C_6  and  C_7 
REMARK    4  A    between atoms: C_6  and  C_14 
REMARK    5  A    between atoms: C_7  and  C_8 
REMARK    6  A    between atoms: C_7  and  N_11 
REMARK       I    between atoms: C_8  and  N_20 
REMARK    7  A    between atoms: C_15  and  C_16 
REMARK    8  A    between atoms: C_15  and  N_20 
ROOT
HETATM    1  O           1     -19.486  -6.900  -6.490  0.00  0.00    -0.271 OA
HETATM    2  C           1     -20.618  -6.530  -6.281  0.00  0.00     0.249 C 
HETATM    3  N           1     -21.349  -7.104  -5.275  0.00  0.00    -0.344 N 
HETATM    4  H           1     -22.297  -6.794  -5.099  0.00  0.00     0.163 HD
ENDROOT
BRANCH   2   5
HETATM    5  C           1     -21.224  -5.438  -7.126  0.00  0.00     0.275 C 
BRANCH   5   6
HETATM    6  C           1     -20.527  -5.398  -8.480  0.00  0.00     0.046 C 
BRANCH   6   7
HETATM    7  C           1     -21.161  -4.317  -9.346  0.00  0.00    -0.020 C 
HETATM    8  C           1     -22.622  -4.663  -9.602  0.00  0.00     0.009 C 
HETATM    9  C           1     -20.421  -4.232 -10.675  0.00  0.00     0.009 C 
ENDBRANCH   6   7
ENDBRANCH   5   6
BRANCH   5  10
HETATM   10  N           1     -21.051  -4.118  -6.436  0.00  0.00    -0.066 N 
HETATM   11  H           1     -20.136  -3.696  -6.717  0.00  0.00     0.275 HD
HETATM   12  H           1     -21.829  -3.476  -6.711  0.00  0.00     0.275 HD
HETATM   13  H           1     -21.065  -4.262  -5.402  0.00  0.00     0.275 HD
ENDBRANCH   5  10
ENDBRANCH   2   5
BRANCH   3  14
HETATM   14  C           1     -20.766  -8.153  -4.462  0.00  0.00     0.189 C 
BRANCH  14  15
HETATM   15  C           1     -21.183  -7.961  -3.010  0.00  0.00     0.014 C 
HETATM   16  C           1     -20.018  -8.313  -2.096  0.00  0.00     0.012 C 
BRANCH  15  17
HETATM   17  C           1     -21.582  -6.507  -2.786  0.00  0.00     0.002 C 
HETATM   18  C           1     -22.252  -6.368  -1.426  0.00  0.00     0.005 C 
ENDBRANCH  15  17
ENDBRANCH  14  15
BRANCH  14  19
HETATM   19  C           1     -21.252  -9.495  -4.951  0.00  0.00     0.197 C 
HETATM   20  O           1     -22.076 -10.147  -4.274  0.00  0.00    -0.646 OA
HETATM   21  O           1     -20.832  -9.955  -6.035  0.00  0.00    -0.646 OA
ENDBRANCH  14  19
ENDBRANCH   3  14
TORSDOF 8
ENDMDL
MODEL 7
REMARK VINA RESULT:      -5.4      4.168      7.797
REMARK  8 active torsions:
REMARK  status: ('A' for Active; 'I' for Inactive)
REMARK    1  A    between atoms: C_2  and  C_3 
REMARK    2  A    between atoms: C_2  and  C_15 
REMARK    3  A    between atoms: C_6  and  C_7 
REMARK    4  A    between atoms: C_6  and  C_14 
REMARK    5  A    between atoms: C_7  and  C_8 
REMARK    6  A    between atoms: C_7  and  N_11 
REMARK       I    between atoms: C_8  and  N_20 
REMARK    7  A    between atoms: C_15  and  C_16 
REMARK    8  A    between atoms: C_15  and  N_20 
ROOT
HETATM    1  O           1     -19.932  -8.089  -5.517  0.00  0.00    -0.271 OA
HETATM    2  C           1     -20.952  -7.572  -5.127  0.00  0.00     0.249 C 
HETATM    3  N           1     -21.637  -8.119  -4.076  0.00  0.00    -0.344 N 
HETATM    4  H           1     -22.492  -7.687  -3.748  0.00  0.00     0.163 HD
ENDROOT
BRANCH   2   5
HETATM    5  C           1     -21.472  -6.325  -5.798  0.00  0.00     0.275 C 
BRANCH   5   6
HETATM    6  C           1     -20.522  -5.166  -5.521  0.00  0.00     0.046 C 
BRANCH   6   7
HETATM    7  C           1     -20.198  -4.451  -6.826  0.00  0.00    -0.020 C 
HETATM    8  C           1     -21.345  -3.520  -7.194  0.00  0.00     0.009 C 
HETATM    9  C           1     -20.006  -5.480  -7.933  0.00  0.00     0.009 C 
ENDBRANCH   6   7
ENDBRANCH   5   6
BRANCH   5  10
HETATM   10  N           1     -22.832  -5.997  -5.258  0.00  0.00    -0.066 N 
HETATM   11  H           1     -22.741  -5.646  -4.277  0.00  0.00     0.275 HD
HETATM   12  H           1     -23.273  -5.258  -5.851  0.00  0.00     0.275 HD
HETATM   13  H           1     -23.426  -6.855  -5.268  0.00  0.00     0.275 HD
ENDBRANCH   5  10
ENDBRANCH   2   5
BRANCH   3  14
HETATM   14  C           1     -21.139  -9.317  -3.429  0.00  0.00     0.189 C 
BRANCH  14  15
HETATM   15  C           1     -21.380  -9.223  -1.929  0.00  0.00     0.014 C 
HETATM   16  C           1     -20.361 -10.086  -1.197  0.00  0.00     0.012 C 
BRANCH  15  17
HETATM   17  C           1     -21.232  -7.774  -1.483  0.00  0.00     0.002 C 
HETATM   18  C           1     -22.345  -7.428  -0.502  0.00  0.00     0.005 C 
ENDBRANCH  15  17
ENDBRANCH  14  15
BRANCH  14  19
HETATM   19  C           1     -21.861 -10.522  -3.981  0.00  0.00     0.197 C 
HETATM   20  O           1     -21.393 -11.138  -4.963  0.00  0.00    -0.646 OA
HETATM   21  O           1     -22.928 -10.906  -3.454  0.00  0.00    -0.646 OA
ENDBRANCH  14  19
ENDBRANCH   3  14
TORSDOF 8
ENDMDL
MODEL 8
REMARK VINA RESULT:      -5.4      8.027      9.643
REMARK  8 active torsions:
REMARK  status: ('A' for Active; 'I' for Inactive)
REMARK    1  A    between atoms: C_2  and  C_3 
REMARK    2  A    between atoms: C_2  and  C_15 
REMARK    3  A    between atoms: C_6  and  C_7 
REMARK    4  A    between atoms: C_6  and  C_14 
REMARK    5  A    between atoms: C_7  and  C_8 
REMARK    6  A    between atoms: C_7  and  N_11 
REMARK       I    between atoms: C_8  and  N_20 
REMARK    7  A    between atoms: C_15  and  C_16 
REMARK    8  A    between atoms: C_15  and  N_20 
ROOT
HETATM    1  O           1     -19.581 -11.272  -0.375  0.00  0.00    -0.271 OA
HETATM    2  C           1     -19.726 -10.724  -1.443  0.00  0.00     0.249 C 
HETATM    3  N           1     -20.853  -9.985  -1.685  0.00  0.00    -0.344 N 
HETATM    4  H           1     -20.974  -9.526  -2.579  0.00  0.00     0.163 HD
ENDROOT
BRANCH   2   5
HETATM    5  C           1     -18.666 -10.855  -2.509  0.00  0.00     0.275 C 
BRANCH   5   6
HETATM    6  C           1     -18.061  -9.486  -2.794  0.00  0.00     0.046 C 
BRANCH   6   7
HETATM    7  C           1     -16.543  -9.597  -2.821  0.00  0.00    -0.020 C 
HETATM    8  C           1     -16.071  -9.756  -4.260  0.00  0.00     0.009 C 
HETATM    9  C           1     -16.108 -10.810  -2.008  0.00  0.00     0.009 C 
ENDBRANCH   6   7
ENDBRANCH   5   6
BRANCH   5  10
HETATM   10  N           1     -19.284 -11.399  -3.762  0.00  0.00    -0.066 N 
HETATM   11  H           1     -20.095 -10.800  -4.039  0.00  0.00     0.275 HD
HETATM   12  H           1     -18.574 -11.397  -4.530  0.00  0.00     0.275 HD
HETATM   13  H           1     -19.613 -12.375  -3.593  0.00  0.00     0.275 HD
ENDBRANCH   5  10
ENDBRANCH   2   5
BRANCH   3  14
HETATM   14  C           1     -21.871  -9.859  -0.661  0.00  0.00     0.189 C 
BRANCH  14  15
HETATM   15  C           1     -22.230  -8.391  -0.479  0.00  0.00     0.014 C 
HETATM   16  C           1     -21.944  -7.973   0.957  0.00  0.00     0.012 C 
BRANCH  15  17
HETATM   17  C           1     -21.393  -7.544  -1.430  0.00  0.00     0.002 C 
HETATM   18  C           1     -22.186  -6.312  -1.846  0.00  0.00     0.005 C 
ENDBRANCH  15  17
ENDBRANCH  14  15
BRANCH  14  19
HETATM   19  C           1     -23.100 -10.629  -1.078  0.00  0.00     0.197 C 
HETATM   20  O           1     -24.032 -10.810  -0.264  0.00  0.00    -0.646 OA
HETATM   21  O           1     -23.188 -11.085  -2.239  0.00  0.00    -0.646 OA
ENDBRANCH  14  19
ENDBRANCH   3  14
TORSDOF 8
ENDMDL
MODEL 9
REMARK VINA RESULT:      -5.3      6.686      8.033
REMARK  8 active torsions:
REMARK  status: ('A' for Active; 'I' for Inactive)
REMARK    1  A    between atoms: C_2  and  C_3 
REMARK    2  A    between atoms: C_2  and  C_15 
REMARK    3  A    between atoms: C_6  and  C_7 
REMARK    4  A    between atoms: C_6  and  C_14 
REMARK    5  A    between atoms: C_7  and  C_8 
REMARK    6  A    between atoms: C_7  and  N_11 
REMARK       I    between atoms: C_8  and  N_20 
REMARK    7  A    between atoms: C_15  and  C_16 
REMARK    8  A    between atoms: C_15  and  N_20 
ROOT
HETATM    1  O           1     -20.792  -7.093  -4.374  0.00  0.00    -0.271 OA
HETATM    2  C           1     -20.649  -7.687  -3.331  0.00  0.00     0.249 C 
HETATM    3  N           1     -19.950  -8.864  -3.306  0.00  0.00    -0.344 N 
HETATM    4  H           1     -19.830  -9.362  -2.433  0.00  0.00     0.163 HD
ENDROOT
BRANCH   2   5
HETATM    5  C           1     -21.240  -7.133  -2.059  0.00  0.00     0.275 C 
BRANCH   5   6
HETATM    6  C           1     -21.833  -8.270  -1.237  0.00  0.00     0.046 C 
BRANCH   6   7
HETATM    7  C           1     -21.958  -7.834   0.217  0.00  0.00    -0.020 C 
HETATM    8  C           1     -21.065  -8.707   1.088  0.00  0.00     0.009 C 
HETATM    9  C           1     -23.406  -7.981   0.668  0.00  0.00     0.009 C 
ENDBRANCH   6   7
ENDBRANCH   5   6
BRANCH   5  10
HETATM   10  N           1     -22.318  -6.147  -2.398  0.00  0.00    -0.066 N 
HETATM   11  H           1     -23.228  -6.650  -2.510  0.00  0.00     0.275 HD
HETATM   12  H           1     -22.403  -5.445  -1.628  0.00  0.00     0.275 HD
HETATM   13  H           1     -22.077  -5.660  -3.290  0.00  0.00     0.275 HD
ENDBRANCH   5  10
ENDBRANCH   2   5
BRANCH   3  14
HETATM   14  C           1     -19.382  -9.397  -4.528  0.00  0.00     0.189 C 
BRANCH  14  15
HETATM   15  C           1     -18.033 -10.035  -4.225  0.00  0.00     0.014 C 
HETATM   16  C           1     -17.099  -9.833  -5.410  0.00  0.00     0.012 C 
BRANCH  15  17
HETATM   17  C           1     -17.431  -9.382  -2.987  0.00  0.00     0.002 C 
HETATM   18  C           1     -15.971  -9.795  -2.853  0.00  0.00     0.005 C 
ENDBRANCH  15  17
ENDBRANCH  14  15
BRANCH  14  19
HETATM   19  C           1     -20.312 -10.437  -5.103  0.00  0.00     0.197 C 
HETATM   20  O           1     -20.976 -10.183  -6.131  0.00  0.00    -0.646 OA
HETATM   21  O           1     -20.418 -11.554  -4.551  0.00  0.00    -0.646 OA
ENDBRANCH  14  19
ENDBRANCH   3  14
TORSDOF 8
ENDMDL
