MODEL 1
REMARK VINA RESULT:      -7.2      0.000      0.000
REMARK  9 active torsions:
REMARK  status: ('A' for Active; 'I' for Inactive)
REMARK    1  A    between atoms: C_2  and  C_17 
REMARK    2  A    between atoms: C_2  and  C_9 
REMARK    3  A    between atoms: C_2  and  N_7 
REMARK    4  A    between atoms: C_9  and  C_12 
REMARK    5  A    between atoms: C_10  and  S_13 
REMARK    6  A    between atoms: C_10  and  C_14 
REMARK    7  A    between atoms: C_14  and  C_15 
REMARK    8  A    between atoms: C_15  and  C_21 
REMARK    9  A    between atoms: C_15  and  N_24 
REMARK       I    between atoms: C_17  and  N_24 
ROOT
HETATM    1  C           1     -21.077  -5.754  -6.870  0.00  0.00     0.278 C 
ENDROOT
BRANCH   1   2
HETATM    2  C           1     -21.661  -4.639  -7.703  0.00  0.00     0.249 C 
HETATM    3  O           1     -21.719  -3.518  -7.257  0.00  0.00    -0.271 OA
HETATM    4  N           1     -22.125  -4.898  -8.964  0.00  0.00    -0.345 N 
HETATM    5  H           1     -22.077  -5.837  -9.338  0.00  0.00     0.163 HD
BRANCH   4   6
HETATM    6  C           1     -22.686  -3.827  -9.765  0.00  0.00     0.186 C 
BRANCH   6   7
HETATM    7  C           1     -22.264  -4.004 -11.217  0.00  0.00     0.046 C 
BRANCH   7   8
HETATM    8  C           1     -22.511  -2.710 -11.981  0.00  0.00     0.076 C 
BRANCH   8   9
HETATM    9  S           1     -23.875  -2.950 -13.155  0.00  0.00    -0.173 SA
HETATM   10  C           1     -22.904  -2.635 -14.655  0.00  0.00     0.089 C 
ENDBRANCH   8   9
ENDBRANCH   7   8
ENDBRANCH   6   7
BRANCH   6  11
HETATM   11  C           1     -24.192  -3.866  -9.673  0.00  0.00     0.196 C 
HETATM   12  O           1     -24.827  -2.829  -9.381  0.00  0.00    -0.646 OA
HETATM   13  O           1     -24.804  -4.934  -9.887  0.00  0.00    -0.646 OA
ENDBRANCH   6  11
ENDBRANCH   4   6
ENDBRANCH   1   2
BRANCH   1  14
HETATM   14  C           1     -20.837  -5.255  -5.451  0.00  0.00     0.081 C 
BRANCH  14  15
HETATM   15  C           1     -21.134  -6.354  -4.479  0.00  0.00    -0.056 A 
HETATM   16  C           1     -21.309  -6.062  -3.127  0.00  0.00     0.007 A 
HETATM   17  C           1     -21.587  -7.086  -2.221  0.00  0.00     0.001 A 
HETATM   18  C           1     -21.690  -8.403  -2.669  0.00  0.00     0.000 A 
HETATM   19  C           1     -21.516  -8.696  -4.021  0.00  0.00     0.001 A 
HETATM   20  C           1     -21.238  -7.671  -4.927  0.00  0.00     0.007 A 
ENDBRANCH  14  15
ENDBRANCH   1  14
BRANCH   1  21
HETATM   21  N           1     -19.776  -6.197  -7.470  0.00  0.00    -0.066 N 
HETATM   22  H           1     -19.025  -6.154  -6.745  0.00  0.00     0.275 HD
HETATM   23  H           1     -19.870  -7.178  -7.817  0.00  0.00     0.275 HD
HETATM   24  H           1     -19.527  -5.567  -8.266  0.00  0.00     0.275 HD
ENDBRANCH   1  21
TORSDOF 9
ENDMDL
MODEL 2
REMARK VINA RESULT:      -6.8      4.116      8.306
REMARK  9 active torsions:
REMARK  status: ('A' for Active; 'I' for Inactive)
REMARK    1  A    between atoms: C_2  and  C_17 
REMARK    2  A    between atoms: C_2  and  C_9 
REMARK    3  A    between atoms: C_2  and  N_7 
REMARK    4  A    between atoms: C_9  and  C_12 
REMARK    5  A    between atoms: C_10  and  S_13 
REMARK    6  A    between atoms: C_10  and  C_14 
REMARK    7  A    between atoms: C_14  and  C_15 
REMARK    8  A    between atoms: C_15  and  C_21 
REMARK    9  A    between atoms: C_15  and  N_24 
REMARK       I    between atoms: C_17  and  N_24 
ROOT
HETATM    1  C           1     -22.289  -5.092  -6.857  0.00  0.00     0.278 C 
ENDROOT
BRANCH   1   2
HETATM    2  C           1     -21.485  -5.572  -5.673  0.00  0.00     0.249 C 
HETATM    3  O           1     -20.291  -5.394  -5.641  0.00  0.00    -0.271 OA
HETATM    4  N           1     -22.110  -6.211  -4.636  0.00  0.00    -0.345 N 
HETATM    5  H           1     -23.110  -6.360  -4.663  0.00  0.00     0.163 HD
BRANCH   4   6
HETATM    6  C           1     -21.338  -6.673  -3.498  0.00  0.00     0.186 C 
BRANCH   6   7
HETATM    7  C           1     -22.172  -6.540  -2.231  0.00  0.00     0.046 C 
BRANCH   7   8
HETATM    8  C           1     -21.535  -7.356  -1.115  0.00  0.00     0.076 C 
BRANCH   8   9
HETATM    9  S           1     -22.819  -7.898   0.048  0.00  0.00    -0.173 SA
HETATM   10  C           1     -22.666  -9.673  -0.300  0.00  0.00     0.089 C 
ENDBRANCH   8   9
ENDBRANCH   7   8
ENDBRANCH   6   7
BRANCH   6  11
HETATM   11  C           1     -20.960  -8.119  -3.701  0.00  0.00     0.196 C 
HETATM   12  O           1     -21.843  -8.965  -3.962  0.00  0.00    -0.646 OA
HETATM   13  O           1     -19.764  -8.472  -3.608  0.00  0.00    -0.646 OA
ENDBRANCH   6  11
ENDBRANCH   4   6
ENDBRANCH   1   2
BRANCH   1  14
HETATM   14  C           1     -21.667  -3.816  -7.409  0.00  0.00     0.081 C 
BRANCH  14  15
HETATM   15  C           1     -21.600  -3.899  -8.902  0.00  0.00    -0.056 A 
HETATM   16  C           1     -22.731  -3.622  -9.669  0.00  0.00     0.007 A 
HETATM   17  C           1     -22.668  -3.699 -11.060  0.00  0.00     0.001 A 
HETATM   18  C           1     -21.472  -4.054 -11.685  0.00  0.00     0.000 A 
HETATM   19  C           1     -20.340  -4.330 -10.920  0.00  0.00     0.001 A 
HETATM   20  C           1     -20.404  -4.253  -9.527  0.00  0.00     0.007 A 
ENDBRANCH  14  15
ENDBRANCH   1  14
BRANCH   1  21
HETATM   21  N           1     -23.698  -4.813  -6.424  0.00  0.00    -0.066 N 
HETATM   22  H           1     -24.067  -3.987  -6.947  0.00  0.00     0.275 HD
HETATM   23  H           1     -24.295  -5.647  -6.626  0.00  0.00     0.275 HD
HETATM   24  H           1     -23.714  -4.612  -5.399  0.00  0.00     0.275 HD
ENDBRANCH   1  21
TORSDOF 9
ENDMDL
MODEL 3
REMARK VINA RESULT:      -6.6     12.382     14.001
REMARK  9 active torsions:
REMARK  status: ('A' for Active; 'I' for Inactive)
REMARK    1  A    between atoms: C_2  and  C_17 
REMARK    2  A    between atoms: C_2  and  C_9 
REMARK    3  A    between atoms: C_2  and  N_7 
REMARK    4  A    between atoms: C_9  and  C_12 
REMARK    5  A    between atoms: C_10  and  S_13 
REMARK    6  A    between atoms: C_10  and  C_14 
REMARK    7  A    between atoms: C_14  and  C_15 
REMARK    8  A    between atoms: C_15  and  C_21 
REMARK    9  A    between atoms: C_15  and  N_24 
REMARK       I    between atoms: C_17  and  N_24 
ROOT
HETATM    1  C           1     -34.148  -3.872 -12.585  0.00  0.00     0.278 C 
ENDROOT
BRANCH   1   2
HETATM    2  C           1     -34.359  -2.418 -12.236  0.00  0.00     0.249 C 
HETATM    3  O           1     -33.790  -1.935 -11.287  0.00  0.00    -0.271 OA
HETATM    4  N           1     -35.196  -1.647 -12.996  0.00  0.00    -0.345 N 
HETATM    5  H           1     -35.673  -2.051 -13.792  0.00  0.00     0.163 HD
BRANCH   4   6
HETATM    6  C           1     -35.399  -0.250 -12.662  0.00  0.00     0.186 C 
BRANCH   6   7
HETATM    7  C           1     -35.803   0.518 -13.914  0.00  0.00     0.046 C 
BRANCH   7   8
HETATM    8  C           1     -35.090  -0.071 -15.124  0.00  0.00     0.076 C 
BRANCH   8   9
HETATM    9  S           1     -36.317  -0.586 -16.358  0.00  0.00    -0.173 SA
HETATM   10  C           1     -37.754   0.155 -15.533  0.00  0.00     0.089 C 
ENDBRANCH   8   9
ENDBRANCH   7   8
ENDBRANCH   6   7
BRANCH   6  11
HETATM   11  C           1     -36.491  -0.135 -11.628  0.00  0.00     0.196 C 
HETATM   12  O           1     -37.615  -0.639 -11.847  0.00  0.00    -0.646 OA
HETATM   13  O           1     -36.274   0.465 -10.553  0.00  0.00    -0.646 OA
ENDBRANCH   6  11
ENDBRANCH   4   6
ENDBRANCH   1   2
BRANCH   1  14
HETATM   14  C           1     -33.066  -4.457 -11.686  0.00  0.00     0.081 C 
BRANCH  14  15
HETATM   15  C           1     -33.609  -5.652 -10.966  0.00  0.00    -0.056 A 
HETATM   16  C           1     -32.897  -6.851 -10.968  0.00  0.00     0.007 A 
HETATM   17  C           1     -33.403  -7.965 -10.297  0.00  0.00     0.001 A 
HETATM   18  C           1     -34.621  -7.878  -9.623  0.00  0.00     0.000 A 
HETATM   19  C           1     -35.333  -6.679  -9.620  0.00  0.00     0.001 A 
HETATM   20  C           1     -34.827  -5.565 -10.291  0.00  0.00     0.007 A 
ENDBRANCH  14  15
ENDBRANCH   1  14
BRANCH   1  21
HETATM   21  N           1     -33.720  -3.984 -14.018  0.00  0.00    -0.066 N 
HETATM   22  H           1     -32.809  -4.493 -14.071  0.00  0.00     0.275 HD
HETATM   23  H           1     -34.445  -4.512 -14.556  0.00  0.00     0.275 HD
HETATM   24  H           1     -33.610  -3.029 -14.425  0.00  0.00     0.275 HD
ENDBRANCH   1  21
TORSDOF 9
ENDMDL
MODEL 4
REMARK VINA RESULT:      -6.5     12.506     14.332
REMARK  9 active torsions:
REMARK  status: ('A' for Active; 'I' for Inactive)
REMARK    1  A    between atoms: C_2  and  C_17 
REMARK    2  A    between atoms: C_2  and  C_9 
REMARK    3  A    between atoms: C_2  and  N_7 
REMARK    4  A    between atoms: C_9  and  C_12 
REMARK    5  A    between atoms: C_10  and  S_13 
REMARK    6  A    between atoms: C_10  and  C_14 
REMARK    7  A    between atoms: C_14  and  C_15 
REMARK    8  A    between atoms: C_15  and  C_21 
REMARK    9  A    between atoms: C_15  and  N_24 
REMARK       I    between atoms: C_17  and  N_24 
ROOT
HETATM    1  C           1     -33.137  -4.533 -16.642  0.00  0.00     0.278 C 
ENDROOT
BRANCH   1   2
HETATM    2  C           1     -33.930  -4.548 -15.358  0.00  0.00     0.249 C 
HETATM    3  O           1     -35.024  -5.059 -15.328  0.00  0.00    -0.271 OA
HETATM    4  N           1     -33.410  -3.981 -14.226  0.00  0.00    -0.345 N 
HETATM    5  H           1     -32.493  -3.552 -14.250  0.00  0.00     0.163 HD
BRANCH   4   6
HETATM    6  C           1     -34.171  -3.994 -12.991  0.00  0.00     0.186 C 
BRANCH   6   7
HETATM    7  C           1     -33.225  -4.180 -11.813  0.00  0.00     0.046 C 
BRANCH   7   8
HETATM    8  C           1     -33.300  -5.620 -11.323  0.00  0.00     0.076 C 
BRANCH   8   9
HETATM    9  S           1     -34.721  -5.807 -10.209  0.00  0.00    -0.173 SA
HETATM   10  C           1     -34.693  -7.622 -10.155  0.00  0.00     0.089 C 
ENDBRANCH   8   9
ENDBRANCH   7   8
ENDBRANCH   6   7
BRANCH   6  11
HETATM   11  C           1     -34.909  -2.686 -12.842  0.00  0.00     0.196 C 
HETATM   12  O           1     -35.573  -2.459 -11.807  0.00  0.00    -0.646 OA
HETATM   13  O           1     -34.856  -1.831 -13.752  0.00  0.00    -0.646 OA
ENDBRANCH   6  11
ENDBRANCH   4   6
ENDBRANCH   1   2
BRANCH   1  14
HETATM   14  C           1     -31.650  -4.458 -16.319  0.00  0.00     0.081 C 
BRANCH  14  15
HETATM   15  C           1     -30.963  -5.677 -16.852  0.00  0.00    -0.056 A 
HETATM   16  C           1     -31.585  -6.461 -17.822  0.00  0.00     0.007 A 
HETATM   17  C           1     -30.944  -7.596 -18.320  0.00  0.00     0.001 A 
HETATM   18  C           1     -29.680  -7.946 -17.846  0.00  0.00     0.000 A 
HETATM   19  C           1     -29.056  -7.161 -16.877  0.00  0.00     0.001 A 
HETATM   20  C           1     -29.698  -6.026 -16.380  0.00  0.00     0.007 A 
ENDBRANCH  14  15
ENDBRANCH   1  14
BRANCH   1  21
HETATM   21  N           1     -33.531  -3.338 -17.458  0.00  0.00    -0.066 N 
HETATM   22  H           1     -34.538  -3.115 -17.288  0.00  0.00     0.275 HD
HETATM   23  H           1     -32.942  -2.519 -17.182  0.00  0.00     0.275 HD
HETATM   24  H           1     -33.387  -3.545 -18.472  0.00  0.00     0.275 HD
ENDBRANCH   1  21
TORSDOF 9
ENDMDL
MODEL 5
REMARK VINA RESULT:      -6.4      3.808      7.633
REMARK  9 active torsions:
REMARK  status: ('A' for Active; 'I' for Inactive)
REMARK    1  A    between atoms: C_2  and  C_17 
REMARK    2  A    between atoms: C_2  and  C_9 
REMARK    3  A    between atoms: C_2  and  N_7 
REMARK    4  A    between atoms: C_9  and  C_12 
REMARK    5  A    between atoms: C_10  and  S_13 
REMARK    6  A    between atoms: C_10  and  C_14 
REMARK    7  A    between atoms: C_14  and  C_15 
REMARK    8  A    between atoms: C_15  and  C_21 
REMARK    9  A    between atoms: C_15  and  N_24 
REMARK       I    between atoms: C_17  and  N_24 
ROOT
HETATM    1  C           1     -20.955  -4.905  -6.408  0.00  0.00     0.278 C 
ENDROOT
BRANCH   1   2
HETATM    2  C           1     -21.657  -5.856  -5.469  0.00  0.00     0.249 C 
HETATM    3  O           1     -22.862  -5.931  -5.475  0.00  0.00    -0.271 OA
HETATM    4  N           1     -20.928  -6.633  -4.610  0.00  0.00    -0.345 N 
HETATM    5  H           1     -19.918  -6.570  -4.605  0.00  0.00     0.163 HD
BRANCH   4   6
HETATM    6  C           1     -21.602  -7.546  -3.707  0.00  0.00     0.186 C 
BRANCH   6   7
HETATM    7  C           1     -20.842  -8.865  -3.659  0.00  0.00     0.046 C 
BRANCH   7   8
HETATM    8  C           1     -19.683  -8.821  -4.646  0.00  0.00     0.076 C 
BRANCH   8   9
HETATM    9  S           1     -19.344 -10.495  -5.257  0.00  0.00    -0.173 SA
HETATM   10  C           1     -17.648 -10.165  -5.812  0.00  0.00     0.089 C 
ENDBRANCH   8   9
ENDBRANCH   7   8
ENDBRANCH   6   7
BRANCH   6  11
HETATM   11  C           1     -21.650  -6.943  -2.325  0.00  0.00     0.196 C 
HETATM   12  O           1     -21.024  -7.482  -1.386  0.00  0.00    -0.646 OA
HETATM   13  O           1     -22.315  -5.905  -2.118  0.00  0.00    -0.646 OA
ENDBRANCH   6  11
ENDBRANCH   4   6
ENDBRANCH   1   2
BRANCH   1  14
HETATM   14  C           1     -20.622  -5.628  -7.707  0.00  0.00     0.081 C 
BRANCH  14  15
HETATM   15  C           1     -21.098  -4.812  -8.868  0.00  0.00    -0.056 A 
HETATM   16  C           1     -22.421  -4.374  -8.918  0.00  0.00     0.007 A 
HETATM   17  C           1     -22.864  -3.613  -9.999  0.00  0.00     0.001 A 
HETATM   18  C           1     -21.983  -3.289 -11.031  0.00  0.00     0.000 A 
HETATM   19  C           1     -20.660  -3.725 -10.982  0.00  0.00     0.001 A 
HETATM   20  C           1     -20.217  -4.487  -9.899  0.00  0.00     0.007 A 
ENDBRANCH  14  15
ENDBRANCH   1  14
BRANCH   1  21
HETATM   21  N           1     -19.688  -4.418  -5.769  0.00  0.00    -0.066 N 
HETATM   22  H           1     -19.770  -4.491  -4.730  0.00  0.00     0.275 HD
HETATM   23  H           1     -18.886  -5.004  -6.097  0.00  0.00     0.275 HD
HETATM   24  H           1     -19.524  -3.421  -6.036  0.00  0.00     0.275 HD
ENDBRANCH   1  21
TORSDOF 9
ENDMDL
MODEL 6
REMARK VINA RESULT:      -6.4      3.810      7.982
REMARK  9 active torsions:
REMARK  status: ('A' for Active; 'I' for Inactive)
REMARK    1  A    between atoms: C_2  and  C_17 
REMARK    2  A    between atoms: C_2  and  C_9 
REMARK    3  A    between atoms: C_2  and  N_7 
REMARK    4  A    between atoms: C_9  and  C_12 
REMARK    5  A    between atoms: C_10  and  S_13 
REMARK    6  A    between atoms: C_10  and  C_14 
REMARK    7  A    between atoms: C_14  and  C_15 
REMARK    8  A    between atoms: C_15  and  C_21 
REMARK    9  A    between atoms: C_15  and  N_24 
REMARK       I    between atoms: C_17  and  N_24 
ROOT
HETATM    1  C           1     -20.869  -4.338  -7.451  0.00  0.00     0.278 C 
ENDROOT
BRANCH   1   2
HETATM    2  C           1     -20.513  -5.041  -6.164  0.00  0.00     0.249 C 
HETATM    3  O           1     -19.997  -4.427  -5.262  0.00  0.00    -0.271 OA
HETATM    4  N           1     -20.774  -6.377  -6.020  0.00  0.00    -0.345 N 
HETATM    5  H           1     -21.206  -6.893  -6.776  0.00  0.00     0.163 HD
BRANCH   4   6
HETATM    6  C           1     -20.431  -7.055  -4.784  0.00  0.00     0.186 C 
BRANCH   6   7
HETATM    7  C           1     -21.626  -7.023  -3.840  0.00  0.00     0.046 C 
BRANCH   7   8
HETATM    8  C           1     -21.185  -7.452  -2.447  0.00  0.00     0.076 C 
BRANCH   8   9
HETATM    9  S           1     -22.281  -6.707  -1.208  0.00  0.00    -0.173 SA
HETATM   10  C           1     -21.948  -7.915   0.105  0.00  0.00     0.089 C 
ENDBRANCH   8   9
ENDBRANCH   7   8
ENDBRANCH   6   7
BRANCH   6  11
HETATM   11  C           1     -20.064  -8.487  -5.081  0.00  0.00     0.196 C 
HETATM   12  O           1     -20.892  -9.242  -5.637  0.00  0.00    -0.646 OA
HETATM   13  O           1     -18.933  -8.921  -4.771  0.00  0.00    -0.646 OA
ENDBRANCH   6  11
ENDBRANCH   4   6
ENDBRANCH   1   2
BRANCH   1  14
HETATM   14  C           1     -21.568  -5.315  -8.388  0.00  0.00     0.081 C 
BRANCH  14  15
HETATM   15  C           1     -22.429  -4.556  -9.349  0.00  0.00    -0.056 A 
HETATM   16  C           1     -22.001  -4.356 -10.661  0.00  0.00     0.007 A 
HETATM   17  C           1     -22.803  -3.649 -11.557  0.00  0.00     0.001 A 
HETATM   18  C           1     -24.034  -3.142 -11.140  0.00  0.00     0.000 A 
HETATM   19  C           1     -24.463  -3.342  -9.828  0.00  0.00     0.001 A 
HETATM   20  C           1     -23.660  -4.050  -8.932  0.00  0.00     0.007 A 
ENDBRANCH  14  15
ENDBRANCH   1  14
BRANCH   1  21
HETATM   21  N           1     -19.619  -3.828  -8.104  0.00  0.00    -0.066 N 
HETATM   22  H           1     -18.984  -4.631  -8.316  0.00  0.00     0.275 HD
HETATM   23  H           1     -19.867  -3.336  -8.993  0.00  0.00     0.275 HD
HETATM   24  H           1     -19.135  -3.163  -7.460  0.00  0.00     0.275 HD
ENDBRANCH   1  21
TORSDOF 9
ENDMDL
MODEL 7
REMARK VINA RESULT:      -6.3      2.076      2.730
REMARK  9 active torsions:
REMARK  status: ('A' for Active; 'I' for Inactive)
REMARK    1  A    between atoms: C_2  and  C_17 
REMARK    2  A    between atoms: C_2  and  C_9 
REMARK    3  A    between atoms: C_2  and  N_7 
REMARK    4  A    between atoms: C_9  and  C_12 
REMARK    5  A    between atoms: C_10  and  S_13 
REMARK    6  A    between atoms: C_10  and  C_14 
REMARK    7  A    between atoms: C_14  and  C_15 
REMARK    8  A    between atoms: C_15  and  C_21 
REMARK    9  A    between atoms: C_15  and  N_24 
REMARK       I    between atoms: C_17  and  N_24 
ROOT
HETATM    1  C           1     -21.739  -5.931  -5.133  0.00  0.00     0.278 C 
ENDROOT
BRANCH   1   2
HETATM    2  C           1     -21.491  -5.858  -6.620  0.00  0.00     0.249 C 
HETATM    3  O           1     -20.866  -6.731  -7.172  0.00  0.00    -0.271 OA
HETATM    4  N           1     -21.973  -4.800  -7.343  0.00  0.00    -0.345 N 
HETATM    5  H           1     -22.496  -4.068  -6.880  0.00  0.00     0.163 HD
BRANCH   4   6
HETATM    6  C           1     -21.734  -4.729  -8.772  0.00  0.00     0.186 C 
BRANCH   6   7
HETATM    7  C           1     -22.627  -3.658  -9.382  0.00  0.00     0.046 C 
BRANCH   7   8
HETATM    8  C           1     -22.534  -3.723 -10.901  0.00  0.00     0.076 C 
BRANCH   8   9
HETATM    9  S           1     -24.139  -3.286 -11.626  0.00  0.00    -0.173 SA
HETATM   10  C           1     -23.485  -2.685 -13.210  0.00  0.00     0.089 C 
ENDBRANCH   8   9
ENDBRANCH   7   8
ENDBRANCH   6   7
BRANCH   6  11
HETATM   11  C           1     -20.288  -4.380  -9.023  0.00  0.00     0.196 C 
HETATM   12  O           1     -19.711  -3.544  -8.294  0.00  0.00    -0.646 OA
HETATM   13  O           1     -19.666  -4.926  -9.960  0.00  0.00    -0.646 OA
ENDBRANCH   6  11
ENDBRANCH   4   6
ENDBRANCH   1   2
BRANCH   1  14
HETATM   14  C           1     -20.849  -7.006  -4.522  0.00  0.00     0.081 C 
BRANCH  14  15
HETATM   15  C           1     -21.345  -7.344  -3.151  0.00  0.00    -0.056 A 
HETATM   16  C           1     -21.772  -6.331  -2.293  0.00  0.00     0.007 A 
HETATM   17  C           1     -22.236  -6.646  -1.015  0.00  0.00     0.001 A 
HETATM   18  C           1     -22.272  -7.976  -0.596  0.00  0.00     0.000 A 
HETATM   19  C           1     -21.846  -8.990  -1.454  0.00  0.00     0.001 A 
HETATM   20  C           1     -21.383  -8.674  -2.732  0.00  0.00     0.007 A 
ENDBRANCH  14  15
ENDBRANCH   1  14
BRANCH   1  21
HETATM   21  N           1     -23.178  -6.273  -4.883  0.00  0.00    -0.066 N 
HETATM   22  H           1     -23.624  -6.578  -5.777  0.00  0.00     0.275 HD
HETATM   23  H           1     -23.234  -7.049  -4.184  0.00  0.00     0.275 HD
HETATM   24  H           1     -23.677  -5.433  -4.513  0.00  0.00     0.275 HD
ENDBRANCH   1  21
TORSDOF 9
ENDMDL
MODEL 8
REMARK VINA RESULT:      -6.3      4.289      8.021
REMARK  9 active torsions:
REMARK  status: ('A' for Active; 'I' for Inactive)
REMARK    1  A    between atoms: C_2  and  C_17 
REMARK    2  A    between atoms: C_2  and  C_9 
REMARK    3  A    between atoms: C_2  and  N_7 
REMARK    4  A    between atoms: C_9  and  C_12 
REMARK    5  A    between atoms: C_10  and  S_13 
REMARK    6  A    between atoms: C_10  and  C_14 
REMARK    7  A    between atoms: C_14  and  C_15 
REMARK    8  A    between atoms: C_15  and  C_21 
REMARK    9  A    between atoms: C_15  and  N_24 
REMARK       I    between atoms: C_17  and  N_24 
ROOT
HETATM    1  C           1     -21.637  -6.038  -6.353  0.00  0.00     0.278 C 
ENDROOT
BRANCH   1   2
HETATM    2  C           1     -20.514  -6.964  -5.951  0.00  0.00     0.249 C 
HETATM    3  O           1     -19.467  -6.942  -6.552  0.00  0.00    -0.271 OA
HETATM    4  N           1     -20.684  -7.829  -4.904  0.00  0.00    -0.345 N 
HETATM    5  H           1     -21.561  -7.848  -4.400  0.00  0.00     0.163 HD
BRANCH   4   6
HETATM    6  C           1     -19.606  -8.719  -4.517  0.00  0.00     0.186 C 
BRANCH   6   7
HETATM    7  C           1     -19.657  -8.953  -3.013  0.00  0.00     0.046 C 
BRANCH   7   8
HETATM    8  C           1     -21.101  -8.881  -2.535  0.00  0.00     0.076 C 
BRANCH   8   9
HETATM    9  S           1     -21.176  -7.972  -0.966  0.00  0.00    -0.173 SA
HETATM   10  C           1     -22.214  -6.613  -1.573  0.00  0.00     0.089 C 
ENDBRANCH   8   9
ENDBRANCH   7   8
ENDBRANCH   6   7
BRANCH   6  11
HETATM   11  C           1     -19.760 -10.037  -5.235  0.00  0.00     0.196 C 
HETATM   12  O           1     -18.838 -10.881  -5.196  0.00  0.00    -0.646 OA
HETATM   13  O           1     -20.808 -10.285  -5.869  0.00  0.00    -0.646 OA
ENDBRANCH   6  11
ENDBRANCH   4   6
ENDBRANCH   1   2
BRANCH   1  14
HETATM   14  C           1     -21.070  -4.659  -6.667  0.00  0.00     0.081 C 
BRANCH  14  15
HETATM   15  C           1     -21.277  -4.352  -8.117  0.00  0.00    -0.056 A 
HETATM   16  C           1     -22.537  -3.969  -8.576  0.00  0.00     0.007 A 
HETATM   17  C           1     -22.731  -3.682  -9.927  0.00  0.00     0.001 A 
HETATM   18  C           1     -21.663  -3.779 -10.820  0.00  0.00     0.000 A 
HETATM   19  C           1     -20.403  -4.161 -10.362  0.00  0.00     0.001 A 
HETATM   20  C           1     -20.210  -4.448  -9.009  0.00  0.00     0.007 A 
ENDBRANCH  14  15
ENDBRANCH   1  14
BRANCH   1  21
HETATM   21  N           1     -22.622  -5.928  -5.227  0.00  0.00    -0.066 N 
HETATM   22  H           1     -23.455  -6.524  -5.434  0.00  0.00     0.275 HD
HETATM   23  H           1     -22.173  -6.253  -4.341  0.00  0.00     0.275 HD
HETATM   24  H           1     -22.922  -4.933  -5.123  0.00  0.00     0.275 HD
ENDBRANCH   1  21
TORSDOF 9
ENDMDL
MODEL 9
REMARK VINA RESULT:      -6.1     12.614     14.196
REMARK  9 active torsions:
REMARK  status: ('A' for Active; 'I' for Inactive)
REMARK    1  A    between atoms: C_2  and  C_17 
REMARK    2  A    between atoms: C_2  and  C_9 
REMARK    3  A    between atoms: C_2  and  N_7 
REMARK    4  A    between atoms: C_9  and  C_12 
REMARK    5  A    between atoms: C_10  and  S_13 
REMARK    6  A    between atoms: C_10  and  C_14 
REMARK    7  A    between atoms: C_14  and  C_15 
REMARK    8  A    between atoms: C_15  and  C_21 
REMARK    9  A    between atoms: C_15  and  N_24 
REMARK       I    between atoms: C_17  and  N_24 
ROOT
HETATM    1  C           1     -33.858  -3.347 -11.647  0.00  0.00     0.278 C 
ENDROOT
BRANCH   1   2
HETATM    2  C           1     -34.600  -2.573 -12.709  0.00  0.00     0.249 C 
HETATM    3  O           1     -34.632  -2.983 -13.844  0.00  0.00    -0.271 OA
HETATM    4  N           1     -35.238  -1.406 -12.386  0.00  0.00    -0.345 N 
HETATM    5  H           1     -35.211  -1.062 -11.434  0.00  0.00     0.163 HD
BRANCH   4   6
HETATM    6  C           1     -35.951  -0.662 -13.406  0.00  0.00     0.186 C 
BRANCH   6   7
HETATM    7  C           1     -37.126   0.070 -12.772  0.00  0.00     0.046 C 
BRANCH   7   8
HETATM    8  C           1     -37.453  -0.563 -11.426  0.00  0.00     0.076 C 
BRANCH   8   9
HETATM    9  S           1     -37.350   0.697 -10.123  0.00  0.00    -0.173 SA
HETATM   10  C           1     -36.993  -0.452  -8.763  0.00  0.00     0.089 C 
ENDBRANCH   8   9
ENDBRANCH   7   8
ENDBRANCH   6   7
BRANCH   6  11
HETATM   11  C           1     -35.019   0.340 -14.041  0.00  0.00     0.196 C 
HETATM   12  O           1     -34.612   0.162 -15.210  0.00  0.00    -0.646 OA
HETATM   13  O           1     -34.653   1.349 -13.399  0.00  0.00    -0.646 OA
ENDBRANCH   6  11
ENDBRANCH   4   6
ENDBRANCH   1   2
BRANCH   1  14
HETATM   14  C           1     -34.858  -3.993 -10.696  0.00  0.00     0.081 C 
BRANCH  14  15
HETATM   15  C           1     -34.494  -5.430 -10.491  0.00  0.00    -0.056 A 
HETATM   16  C           1     -35.334  -6.264  -9.754  0.00  0.00     0.007 A 
HETATM   17  C           1     -34.996  -7.604  -9.562  0.00  0.00     0.001 A 
HETATM   18  C           1     -33.816  -8.109 -10.110  0.00  0.00     0.000 A 
HETATM   19  C           1     -32.976  -7.276 -10.848  0.00  0.00     0.001 A 
HETATM   20  C           1     -33.316  -5.935 -11.039  0.00  0.00     0.007 A 
ENDBRANCH  14  15
ENDBRANCH   1  14
BRANCH   1  21
HETATM   21  N           1     -32.970  -2.413 -10.878  0.00  0.00    -0.066 N 
HETATM   22  H           1     -33.363  -2.268  -9.921  0.00  0.00     0.275 HD
HETATM   23  H           1     -32.014  -2.827 -10.802  0.00  0.00     0.275 HD
HETATM   24  H           1     -32.916  -1.496 -11.375  0.00  0.00     0.275 HD
ENDBRANCH   1  21
TORSDOF 9
ENDMDL
