MODEL 1
REMARK VINA RESULT:      -6.0      0.000      0.000
REMARK  12 active torsions:
REMARK  status: ('A' for Active; 'I' for Inactive)
REMARK    1  A    between atoms: C_4  and  C_11 
REMARK    2  A    between atoms: C_4  and  C_22 
REMARK    3  A    between atoms: C_5  and  C_22 
REMARK    4  A    between atoms: C_7  and  C_9 
REMARK    5  A    between atoms: C_7  and  N_10 
REMARK    6  A    between atoms: C_9  and  C_21 
REMARK    7  A    between atoms: C_11  and  Se_15 
REMARK       I    between atoms: C_18  and  N_19 
REMARK    8  A    between atoms: C_18  and  C_23 
REMARK    9  A    between atoms: N_19  and  C_22 
REMARK   10  A    between atoms: N_20  and  C_23 
REMARK   11  A    between atoms: C_21  and  C_24 
REMARK   12  A    between atoms: C_23  and  C_24 
ROOT
HETATM    1  C           1     -21.002  -5.605  -6.801  0.00  0.00     0.274 C 
ENDROOT
BRANCH   1   2
HETATM    2  C           1     -21.587  -4.519  -7.669  0.00  0.00     0.249 C 
HETATM    3  O           1     -21.591  -3.374  -7.284  0.00  0.00    -0.271 OA
HETATM    4  N           1     -22.115  -4.831  -8.893  0.00  0.00    -0.345 N 
HETATM    5  H           1     -22.113  -5.790  -9.217  0.00  0.00     0.163 HD
BRANCH   4   6
HETATM    6  C           1     -22.678  -3.786  -9.728  0.00  0.00     0.185 C 
BRANCH   6   7
HETATM    7  C           1     -22.212  -3.981 -11.165  0.00  0.00     0.036 C 
BRANCH   7   8
HETATM    8  C           1     -22.460  -2.704 -11.957  0.00  0.00     0.003 C 
BRANCH   8   9
HETATM    9 Se           1     -23.950  -2.977 -13.184  0.00  0.00     0.000 Se
HETATM   10  C           1     -22.943  -2.478 -14.776  0.00  0.00     0.000 C 
ENDBRANCH   8   9
ENDBRANCH   7   8
ENDBRANCH   6   7
BRANCH   6  11
HETATM   11  C           1     -24.184  -3.857  -9.673  0.00  0.00     0.196 C 
HETATM   12  O           1     -24.767  -4.941  -9.891  0.00  0.00    -0.646 OA
HETATM   13  O           1     -24.848  -2.832  -9.409  0.00  0.00    -0.646 OA
ENDBRANCH   6  11
ENDBRANCH   4   6
ENDBRANCH   1   2
BRANCH   1  14
HETATM   14  N           1     -19.690  -5.143  -6.239  0.00  0.00    -0.067 N 
HETATM   15  H           1     -18.944  -5.834  -6.483  0.00  0.00     0.275 HD
HETATM   16  H           1     -19.447  -4.212  -6.643  0.00  0.00     0.275 HD
HETATM   17  H           1     -19.766  -5.065  -5.200  0.00  0.00     0.275 HD
ENDBRANCH   1  14
BRANCH   1  18
HETATM   18  C           1     -21.962  -5.917  -5.660  0.00  0.00     0.042 C 
BRANCH  18  19
HETATM   19  C           1     -21.200  -5.920  -4.342  0.00  0.00     0.004 C 
BRANCH  19  20
HETATM   20  C           1     -21.300  -7.298  -3.701  0.00  0.00     0.027 C 
BRANCH  20  21
HETATM   21  C           1     -21.616  -7.146  -2.218  0.00  0.00     0.229 C 
BRANCH  21  22
HETATM   22  N           1     -22.354  -5.860  -1.992  0.00  0.00    -0.079 N 
HETATM   23  H           1     -23.348  -6.067  -1.744  0.00  0.00     0.274 HD
HETATM   24  H           1     -21.902  -5.333  -1.211  0.00  0.00     0.274 HD
HETATM   25  H           1     -22.325  -5.284  -2.863  0.00  0.00     0.274 HD
ENDBRANCH  21  22
ENDBRANCH  20  21
ENDBRANCH  19  20
ENDBRANCH  18  19
ENDBRANCH   1  18
TORSDOF 12
ENDMDL
MODEL 2
REMARK VINA RESULT:      -5.7     12.587     15.047
REMARK  12 active torsions:
REMARK  status: ('A' for Active; 'I' for Inactive)
REMARK    1  A    between atoms: C_4  and  C_11 
REMARK    2  A    between atoms: C_4  and  C_22 
REMARK    3  A    between atoms: C_5  and  C_22 
REMARK    4  A    between atoms: C_7  and  C_9 
REMARK    5  A    between atoms: C_7  and  N_10 
REMARK    6  A    between atoms: C_9  and  C_21 
REMARK    7  A    between atoms: C_11  and  Se_15 
REMARK       I    between atoms: C_18  and  N_19 
REMARK    8  A    between atoms: C_18  and  C_23 
REMARK    9  A    between atoms: N_19  and  C_22 
REMARK   10  A    between atoms: N_20  and  C_23 
REMARK   11  A    between atoms: C_21  and  C_24 
REMARK   12  A    between atoms: C_23  and  C_24 
ROOT
HETATM    1  C           1     -36.464  -0.575 -11.309  0.00  0.00     0.274 C 
ENDROOT
BRANCH   1   2
HETATM    2  C           1     -35.452  -1.637 -10.955  0.00  0.00     0.249 C 
HETATM    3  O           1     -34.673  -1.451 -10.050  0.00  0.00    -0.271 OA
HETATM    4  N           1     -35.417  -2.811 -11.658  0.00  0.00    -0.345 N 
HETATM    5  H           1     -36.070  -2.967 -12.415  0.00  0.00     0.163 HD
BRANCH   4   6
HETATM    6  C           1     -34.446  -3.832 -11.316  0.00  0.00     0.185 C 
BRANCH   6   7
HETATM    7  C           1     -35.144  -5.182 -11.213  0.00  0.00     0.036 C 
BRANCH   7   8
HETATM    8  C           1     -34.134  -6.246 -10.805  0.00  0.00     0.003 C 
BRANCH   8   9
HETATM    9 Se           1     -34.979  -7.513  -9.589  0.00  0.00     0.000 Se
HETATM   10  C           1     -33.729  -8.960  -9.967  0.00  0.00     0.000 C 
ENDBRANCH   8   9
ENDBRANCH   7   8
ENDBRANCH   6   7
BRANCH   6  11
HETATM   11  C           1     -33.386  -3.895 -12.389  0.00  0.00     0.196 C 
HETATM   12  O           1     -32.186  -4.044 -12.072  0.00  0.00    -0.646 OA
HETATM   13  O           1     -33.708  -3.799 -13.592  0.00  0.00    -0.646 OA
ENDBRANCH   6  11
ENDBRANCH   4   6
ENDBRANCH   1   2
BRANCH   1  14
HETATM   14  N           1     -36.265   0.620 -10.425  0.00  0.00    -0.067 N 
HETATM   15  H           1     -35.362   1.087 -10.666  0.00  0.00     0.275 HD
HETATM   16  H           1     -37.052   1.292 -10.565  0.00  0.00     0.275 HD
HETATM   17  H           1     -36.241   0.313  -9.426  0.00  0.00     0.275 HD
ENDBRANCH   1  14
BRANCH   1  18
HETATM   18  C           1     -36.281  -0.165 -12.765  0.00  0.00     0.042 C 
BRANCH  18  19
HETATM   19  C           1     -34.952   0.560 -12.925  0.00  0.00     0.004 C 
BRANCH  19  20
HETATM   20  C           1     -34.705   0.848 -14.400  0.00  0.00     0.027 C 
BRANCH  20  21
HETATM   21  C           1     -35.956   0.511 -15.201  0.00  0.00     0.229 C 
BRANCH  21  22
HETATM   22  N           1     -36.411   1.726 -15.954  0.00  0.00    -0.079 N 
HETATM   23  H           1     -37.193   1.465 -16.596  0.00  0.00     0.274 HD
HETATM   24  H           1     -36.743   2.450 -15.278  0.00  0.00     0.274 HD
HETATM   25  H           1     -35.615   2.108 -16.513  0.00  0.00     0.274 HD
ENDBRANCH  21  22
ENDBRANCH  20  21
ENDBRANCH  19  20
ENDBRANCH  18  19
ENDBRANCH   1  18
TORSDOF 12
ENDMDL
MODEL 3
REMARK VINA RESULT:      -5.6      3.557      8.085
REMARK  12 active torsions:
REMARK  status: ('A' for Active; 'I' for Inactive)
REMARK    1  A    between atoms: C_4  and  C_11 
REMARK    2  A    between atoms: C_4  and  C_22 
REMARK    3  A    between atoms: C_5  and  C_22 
REMARK    4  A    between atoms: C_7  and  C_9 
REMARK    5  A    between atoms: C_7  and  N_10 
REMARK    6  A    between atoms: C_9  and  C_21 
REMARK    7  A    between atoms: C_11  and  Se_15 
REMARK       I    between atoms: C_18  and  N_19 
REMARK    8  A    between atoms: C_18  and  C_23 
REMARK    9  A    between atoms: N_19  and  C_22 
REMARK   10  A    between atoms: N_20  and  C_23 
REMARK   11  A    between atoms: C_21  and  C_24 
REMARK   12  A    between atoms: C_23  and  C_24 
ROOT
HETATM    1  C           1     -23.321  -4.330  -9.103  0.00  0.00     0.274 C 
ENDROOT
BRANCH   1   2
HETATM    2  C           1     -22.438  -4.297  -7.880  0.00  0.00     0.249 C 
HETATM    3  O           1     -21.866  -3.278  -7.575  0.00  0.00    -0.271 OA
HETATM    4  N           1     -22.285  -5.422  -7.115  0.00  0.00    -0.345 N 
HETATM    5  H           1     -22.765  -6.276  -7.370  0.00  0.00     0.163 HD
BRANCH   4   6
HETATM    6  C           1     -21.437  -5.391  -5.939  0.00  0.00     0.185 C 
BRANCH   6   7
HETATM    7  C           1     -21.922  -6.430  -4.937  0.00  0.00     0.036 C 
BRANCH   7   8
HETATM    8  C           1     -21.377  -6.095  -3.555  0.00  0.00     0.003 C 
BRANCH   8   9
HETATM    9 Se           1     -21.336  -7.708  -2.462  0.00  0.00     0.000 Se
HETATM   10  C           1     -22.341  -6.930  -0.985  0.00  0.00     0.000 C 
ENDBRANCH   8   9
ENDBRANCH   7   8
ENDBRANCH   6   7
BRANCH   6  11
HETATM   11  C           1     -20.015  -5.701  -6.338  0.00  0.00     0.196 C 
HETATM   12  O           1     -19.692  -6.871  -6.639  0.00  0.00    -0.646 OA
HETATM   13  O           1     -19.161  -4.790  -6.368  0.00  0.00    -0.646 OA
ENDBRANCH   6  11
ENDBRANCH   4   6
ENDBRANCH   1   2
BRANCH   1  14
HETATM   14  N           1     -24.395  -3.292  -8.971  0.00  0.00    -0.067 N 
HETATM   15  H           1     -23.976  -2.340  -9.076  0.00  0.00     0.275 HD
HETATM   16  H           1     -25.114  -3.438  -9.715  0.00  0.00     0.275 HD
HETATM   17  H           1     -24.844  -3.372  -8.031  0.00  0.00     0.275 HD
ENDBRANCH   1  14
BRANCH   1  18
HETATM   18  C           1     -22.484  -4.041 -10.342  0.00  0.00     0.042 C 
BRANCH  18  19
HETATM   19  C           1     -23.405  -3.786 -11.528  0.00  0.00     0.004 C 
BRANCH  19  20
HETATM   20  C           1     -22.985  -2.501 -12.230  0.00  0.00     0.027 C 
BRANCH  20  21
HETATM   21  C           1     -23.544  -2.489 -13.647  0.00  0.00     0.229 C 
BRANCH  21  22
HETATM   22  N           1     -22.520  -3.039 -14.594  0.00  0.00    -0.079 N 
HETATM   23  H           1     -22.996  -3.398 -15.453  0.00  0.00     0.274 HD
HETATM   24  H           1     -21.849  -2.283 -14.858  0.00  0.00     0.274 HD
HETATM   25  H           1     -22.002  -3.820 -14.132  0.00  0.00     0.274 HD
ENDBRANCH  21  22
ENDBRANCH  20  21
ENDBRANCH  19  20
ENDBRANCH  18  19
ENDBRANCH   1  18
TORSDOF 12
ENDMDL
MODEL 4
REMARK VINA RESULT:      -5.4      4.235      7.722
REMARK  12 active torsions:
REMARK  status: ('A' for Active; 'I' for Inactive)
REMARK    1  A    between atoms: C_4  and  C_11 
REMARK    2  A    between atoms: C_4  and  C_22 
REMARK    3  A    between atoms: C_5  and  C_22 
REMARK    4  A    between atoms: C_7  and  C_9 
REMARK    5  A    between atoms: C_7  and  N_10 
REMARK    6  A    between atoms: C_9  and  C_21 
REMARK    7  A    between atoms: C_11  and  Se_15 
REMARK       I    between atoms: C_18  and  N_19 
REMARK    8  A    between atoms: C_18  and  C_23 
REMARK    9  A    between atoms: N_19  and  C_22 
REMARK   10  A    between atoms: N_20  and  C_23 
REMARK   11  A    between atoms: C_21  and  C_24 
REMARK   12  A    between atoms: C_23  and  C_24 
ROOT
HETATM    1  C           1     -20.998  -3.849  -7.470  0.00  0.00     0.274 C 
ENDROOT
BRANCH   1   2
HETATM    2  C           1     -20.595  -4.691  -6.285  0.00  0.00     0.249 C 
HETATM    3  O           1     -19.514  -4.532  -5.771  0.00  0.00    -0.271 OA
HETATM    4  N           1     -21.456  -5.634  -5.791  0.00  0.00    -0.345 N 
HETATM    5  H           1     -22.363  -5.767  -6.221  0.00  0.00     0.163 HD
BRANCH   4   6
HETATM    6  C           1     -21.070  -6.443  -4.651  0.00  0.00     0.185 C 
BRANCH   6   7
HETATM    7  C           1     -22.275  -6.643  -3.741  0.00  0.00     0.036 C 
BRANCH   7   8
HETATM    8  C           1     -21.892  -6.296  -2.308  0.00  0.00     0.003 C 
BRANCH   8   9
HETATM    9 Se           1     -21.340  -7.914  -1.372  0.00  0.00     0.000 Se
HETATM   10  C           1     -22.681  -7.754   0.034  0.00  0.00     0.000 C 
ENDBRANCH   8   9
ENDBRANCH   7   8
ENDBRANCH   6   7
BRANCH   6  11
HETATM   11  C           1     -20.574  -7.784  -5.132  0.00  0.00     0.196 C 
HETATM   12  O           1     -21.188  -8.389  -6.038  0.00  0.00    -0.646 OA
HETATM   13  O           1     -19.550  -8.290  -4.627  0.00  0.00    -0.646 OA
ENDBRANCH   6  11
ENDBRANCH   4   6
ENDBRANCH   1   2
BRANCH   1  14
HETATM   14  N           1     -19.819  -3.672  -8.380  0.00  0.00    -0.067 N 
HETATM   15  H           1     -19.024  -4.258  -8.039  0.00  0.00     0.275 HD
HETATM   16  H           1     -20.079  -3.967  -9.348  0.00  0.00     0.275 HD
HETATM   17  H           1     -19.532  -2.667  -8.387  0.00  0.00     0.275 HD
ENDBRANCH   1  14
BRANCH   1  18
HETATM   18  C           1     -22.124  -4.541  -8.226  0.00  0.00     0.042 C 
BRANCH  18  19
HETATM   19  C           1     -21.899  -4.387  -9.724  0.00  0.00     0.004 C 
BRANCH  19  20
HETATM   20  C           1     -23.111  -3.712 -10.353  0.00  0.00     0.027 C 
BRANCH  20  21
HETATM   21  C           1     -24.365  -4.515 -10.031  0.00  0.00     0.229 C 
BRANCH  21  22
HETATM   22  N           1     -25.480  -3.579  -9.670  0.00  0.00    -0.079 N 
HETATM   23  H           1     -25.154  -2.920  -8.927  0.00  0.00     0.274 HD
HETATM   24  H           1     -25.767  -3.037 -10.516  0.00  0.00     0.274 HD
HETATM   25  H           1     -26.294  -4.129  -9.314  0.00  0.00     0.274 HD
ENDBRANCH  21  22
ENDBRANCH  20  21
ENDBRANCH  19  20
ENDBRANCH  18  19
ENDBRANCH   1  18
TORSDOF 12
ENDMDL
MODEL 5
REMARK VINA RESULT:      -5.3      4.019      7.703
REMARK  12 active torsions:
REMARK  status: ('A' for Active; 'I' for Inactive)
REMARK    1  A    between atoms: C_4  and  C_11 
REMARK    2  A    between atoms: C_4  and  C_22 
REMARK    3  A    between atoms: C_5  and  C_22 
REMARK    4  A    between atoms: C_7  and  C_9 
REMARK    5  A    between atoms: C_7  and  N_10 
REMARK    6  A    between atoms: C_9  and  C_21 
REMARK    7  A    between atoms: C_11  and  Se_15 
REMARK       I    between atoms: C_18  and  N_19 
REMARK    8  A    between atoms: C_18  and  C_23 
REMARK    9  A    between atoms: N_19  and  C_22 
REMARK   10  A    between atoms: N_20  and  C_23 
REMARK   11  A    between atoms: C_21  and  C_24 
REMARK   12  A    between atoms: C_23  and  C_24 
ROOT
HETATM    1  C           1     -20.695  -4.925  -6.772  0.00  0.00     0.274 C 
ENDROOT
BRANCH   1   2
HETATM    2  C           1     -21.538  -5.726  -5.811  0.00  0.00     0.249 C 
HETATM    3  O           1     -22.735  -5.564  -5.778  0.00  0.00    -0.271 OA
HETATM    4  N           1     -20.947  -6.635  -4.976  0.00  0.00    -0.345 N 
HETATM    5  H           1     -19.944  -6.771  -5.003  0.00  0.00     0.163 HD
BRANCH   4   6
HETATM    6  C           1     -21.757  -7.406  -4.052  0.00  0.00     0.185 C 
BRANCH   6   7
HETATM    7  C           1     -21.294  -8.857  -4.062  0.00  0.00     0.036 C 
BRANCH   7   8
HETATM    8  C           1     -20.061  -8.991  -4.946  0.00  0.00     0.003 C 
BRANCH   8   9
HETATM    9 Se           1     -18.517  -9.439  -3.846  0.00  0.00     0.000 Se
HETATM   10  C           1     -19.522 -10.548  -2.597  0.00  0.00     0.000 C 
ENDBRANCH   8   9
ENDBRANCH   7   8
ENDBRANCH   6   7
BRANCH   6  11
HETATM   11  C           1     -21.608  -6.839  -2.661  0.00  0.00     0.196 C 
HETATM   12  O           1     -22.301  -5.862  -2.308  0.00  0.00    -0.646 OA
HETATM   13  O           1     -20.792  -7.348  -1.864  0.00  0.00    -0.646 OA
ENDBRANCH   6  11
ENDBRANCH   4   6
ENDBRANCH   1   2
BRANCH   1  14
HETATM   14  N           1     -19.981  -5.856  -7.706  0.00  0.00    -0.067 N 
HETATM   15  H           1     -20.539  -6.732  -7.820  0.00  0.00     0.275 HD
HETATM   16  H           1     -19.864  -5.395  -8.635  0.00  0.00     0.275 HD
HETATM   17  H           1     -19.042  -6.091  -7.312  0.00  0.00     0.275 HD
ENDBRANCH   1  14
BRANCH   1  18
HETATM   18  C           1     -21.590  -3.989  -7.574  0.00  0.00     0.042 C 
BRANCH  18  19
HETATM   19  C           1     -21.303  -4.162  -9.060  0.00  0.00     0.004 C 
BRANCH  19  20
HETATM   20  C           1     -22.612  -4.374  -9.808  0.00  0.00     0.027 C 
BRANCH  20  21
HETATM   21  C           1     -23.783  -4.049  -8.889  0.00  0.00     0.229 C 
BRANCH  21  22
HETATM   22  N           1     -25.047  -3.978  -9.694  0.00  0.00    -0.079 N 
HETATM   23  H           1     -25.869  -4.121  -9.064  0.00  0.00     0.274 HD
HETATM   24  H           1     -25.117  -3.041 -10.151  0.00  0.00     0.274 HD
HETATM   25  H           1     -25.036  -4.724 -10.426  0.00  0.00     0.274 HD
ENDBRANCH  21  22
ENDBRANCH  20  21
ENDBRANCH  19  20
ENDBRANCH  18  19
ENDBRANCH   1  18
TORSDOF 12
ENDMDL
MODEL 6
REMARK VINA RESULT:      -5.3     12.901     15.533
REMARK  12 active torsions:
REMARK  status: ('A' for Active; 'I' for Inactive)
REMARK    1  A    between atoms: C_4  and  C_11 
REMARK    2  A    between atoms: C_4  and  C_22 
REMARK    3  A    between atoms: C_5  and  C_22 
REMARK    4  A    between atoms: C_7  and  C_9 
REMARK    5  A    between atoms: C_7  and  N_10 
REMARK    6  A    between atoms: C_9  and  C_21 
REMARK    7  A    between atoms: C_11  and  Se_15 
REMARK       I    between atoms: C_18  and  N_19 
REMARK    8  A    between atoms: C_18  and  C_23 
REMARK    9  A    between atoms: N_19  and  C_22 
REMARK   10  A    between atoms: N_20  and  C_23 
REMARK   11  A    between atoms: C_21  and  C_24 
REMARK   12  A    between atoms: C_23  and  C_24 
ROOT
HETATM    1  C           1     -35.496   0.740 -14.080  0.00  0.00     0.274 C 
ENDROOT
BRANCH   1   2
HETATM    2  C           1     -35.697  -0.443 -13.166  0.00  0.00     0.249 C 
HETATM    3  O           1     -36.669  -1.149 -13.296  0.00  0.00    -0.271 OA
HETATM    4  N           1     -34.778  -0.716 -12.188  0.00  0.00    -0.345 N 
HETATM    5  H           1     -33.964  -0.126 -12.079  0.00  0.00     0.163 HD
BRANCH   4   6
HETATM    6  C           1     -34.971  -1.854 -11.309  0.00  0.00     0.185 C 
BRANCH   6   7
HETATM    7  C           1     -33.636  -2.249 -10.691  0.00  0.00     0.036 C 
BRANCH   7   8
HETATM    8  C           1     -33.047  -3.423 -11.462  0.00  0.00     0.003 C 
BRANCH   8   9
HETATM    9 Se           1     -34.486  -4.587 -12.073  0.00  0.00     0.000 Se
HETATM   10  C           1     -34.116  -5.996 -10.778  0.00  0.00     0.000 C 
ENDBRANCH   8   9
ENDBRANCH   7   8
ENDBRANCH   6   7
BRANCH   6  11
HETATM   11  C           1     -35.942  -1.484 -10.215  0.00  0.00     0.196 C 
HETATM   12  O           1     -35.622  -0.633  -9.358  0.00  0.00    -0.646 OA
HETATM   13  O           1     -37.066  -2.027 -10.168  0.00  0.00    -0.646 OA
ENDBRANCH   6  11
ENDBRANCH   4   6
ENDBRANCH   1   2
BRANCH   1  14
HETATM   14  N           1     -34.424   1.627 -13.521  0.00  0.00    -0.067 N 
HETATM   15  H           1     -33.491   1.176 -13.657  0.00  0.00     0.275 HD
HETATM   16  H           1     -34.440   2.547 -14.016  0.00  0.00     0.275 HD
HETATM   17  H           1     -34.593   1.776 -12.501  0.00  0.00     0.275 HD
ENDBRANCH   1  14
BRANCH   1  18
HETATM   18  C           1     -35.081   0.250 -15.461  0.00  0.00     0.042 C 
BRANCH  18  19
HETATM   19  C           1     -36.308  -0.246 -16.214  0.00  0.00     0.004 C 
BRANCH  19  20
HETATM   20  C           1     -35.918  -1.416 -17.106  0.00  0.00     0.027 C 
BRANCH  20  21
HETATM   21  C           1     -34.842  -2.245 -16.417  0.00  0.00     0.229 C 
BRANCH  21  22
HETATM   22  N           1     -33.897  -2.793 -17.444  0.00  0.00    -0.079 N 
HETATM   23  H           1     -33.043  -2.192 -17.488  0.00  0.00     0.274 HD
HETATM   24  H           1     -33.623  -3.767 -17.182  0.00  0.00     0.274 HD
HETATM   25  H           1     -34.364  -2.802 -18.379  0.00  0.00     0.274 HD
ENDBRANCH  21  22
ENDBRANCH  20  21
ENDBRANCH  19  20
ENDBRANCH  18  19
ENDBRANCH   1  18
TORSDOF 12
ENDMDL
MODEL 7
REMARK VINA RESULT:      -5.3      4.296      8.093
REMARK  12 active torsions:
REMARK  status: ('A' for Active; 'I' for Inactive)
REMARK    1  A    between atoms: C_4  and  C_11 
REMARK    2  A    between atoms: C_4  and  C_22 
REMARK    3  A    between atoms: C_5  and  C_22 
REMARK    4  A    between atoms: C_7  and  C_9 
REMARK    5  A    between atoms: C_7  and  N_10 
REMARK    6  A    between atoms: C_9  and  C_21 
REMARK    7  A    between atoms: C_11  and  Se_15 
REMARK       I    between atoms: C_18  and  N_19 
REMARK    8  A    between atoms: C_18  and  C_23 
REMARK    9  A    between atoms: N_19  and  C_22 
REMARK   10  A    between atoms: N_20  and  C_23 
REMARK   11  A    between atoms: C_21  and  C_24 
REMARK   12  A    between atoms: C_23  and  C_24 
ROOT
HETATM    1  C           1     -20.741  -5.051  -6.586  0.00  0.00     0.274 C 
ENDROOT
BRANCH   1   2
HETATM    2  C           1     -21.517  -5.906  -5.615  0.00  0.00     0.249 C 
HETATM    3  O           1     -22.720  -5.818  -5.561  0.00  0.00    -0.271 OA
HETATM    4  N           1     -20.857  -6.782  -4.795  0.00  0.00    -0.345 N 
HETATM    5  H           1     -19.849  -6.856  -4.840  0.00  0.00     0.163 HD
BRANCH   4   6
HETATM    6  C           1     -21.603  -7.604  -3.862  0.00  0.00     0.185 C 
BRANCH   6   7
HETATM    7  C           1     -20.950  -8.977  -3.763  0.00  0.00     0.036 C 
BRANCH   7   8
HETATM    8  C           1     -22.029 -10.043  -3.618  0.00  0.00     0.003 C 
BRANCH   8   9
HETATM    9 Se           1     -21.652 -11.140  -2.052  0.00  0.00     0.000 Se
HETATM   10  C           1     -22.881 -10.181  -0.882  0.00  0.00     0.000 C 
ENDBRANCH   8   9
ENDBRANCH   7   8
ENDBRANCH   6   7
BRANCH   6  11
HETATM   11  C           1     -21.603  -6.948  -2.504  0.00  0.00     0.196 C 
HETATM   12  O           1     -22.375  -5.992  -2.272  0.00  0.00    -0.646 OA
HETATM   13  O           1     -20.834  -7.360  -1.610  0.00  0.00    -0.646 OA
ENDBRANCH   6  11
ENDBRANCH   4   6
ENDBRANCH   1   2
BRANCH   1  14
HETATM   14  N           1     -19.932  -5.932  -7.492  0.00  0.00    -0.067 N 
HETATM   15  H           1     -18.919  -5.697  -7.393  0.00  0.00     0.275 HD
HETATM   16  H           1     -20.085  -6.931  -7.232  0.00  0.00     0.275 HD
HETATM   17  H           1     -20.230  -5.778  -8.482  0.00  0.00     0.275 HD
ENDBRANCH   1  14
BRANCH   1  18
HETATM   18  C           1     -21.708  -4.219  -7.417  0.00  0.00     0.042 C 
BRANCH  18  19
HETATM   19  C           1     -21.333  -4.323  -8.889  0.00  0.00     0.004 C 
BRANCH  19  20
HETATM   20  C           1     -22.568  -4.086  -9.747  0.00  0.00     0.027 C 
BRANCH  20  21
HETATM   21  C           1     -23.798  -3.988  -8.852  0.00  0.00     0.229 C 
BRANCH  21  22
HETATM   22  N           1     -25.023  -4.329  -9.646  0.00  0.00    -0.079 N 
HETATM   23  H           1     -25.264  -5.336  -9.501  0.00  0.00     0.274 HD
HETATM   24  H           1     -25.820  -3.731  -9.331  0.00  0.00     0.274 HD
HETATM   25  H           1     -24.839  -4.159 -10.661  0.00  0.00     0.274 HD
ENDBRANCH  21  22
ENDBRANCH  20  21
ENDBRANCH  19  20
ENDBRANCH  18  19
ENDBRANCH   1  18
TORSDOF 12
ENDMDL
MODEL 8
REMARK VINA RESULT:      -5.1      5.073      8.557
REMARK  12 active torsions:
REMARK  status: ('A' for Active; 'I' for Inactive)
REMARK    1  A    between atoms: C_4  and  C_11 
REMARK    2  A    between atoms: C_4  and  C_22 
REMARK    3  A    between atoms: C_5  and  C_22 
REMARK    4  A    between atoms: C_7  and  C_9 
REMARK    5  A    between atoms: C_7  and  N_10 
REMARK    6  A    between atoms: C_9  and  C_21 
REMARK    7  A    between atoms: C_11  and  Se_15 
REMARK       I    between atoms: C_18  and  N_19 
REMARK    8  A    between atoms: C_18  and  C_23 
REMARK    9  A    between atoms: N_19  and  C_22 
REMARK   10  A    between atoms: N_20  and  C_23 
REMARK   11  A    between atoms: C_21  and  C_24 
REMARK   12  A    between atoms: C_23  and  C_24 
ROOT
HETATM    1  C           1     -21.315  -6.353  -5.892  0.00  0.00     0.274 C 
ENDROOT
BRANCH   1   2
HETATM    2  C           1     -20.590  -7.435  -5.131  0.00  0.00     0.249 C 
HETATM    3  O           1     -19.618  -7.965  -5.614  0.00  0.00    -0.271 OA
HETATM    4  N           1     -21.035  -7.817  -3.894  0.00  0.00    -0.345 N 
HETATM    5  H           1     -21.849  -7.373  -3.489  0.00  0.00     0.163 HD
BRANCH   4   6
HETATM    6  C           1     -20.337  -8.857  -3.162  0.00  0.00     0.185 C 
BRANCH   6   7
HETATM    7  C           1     -20.320  -8.508  -1.679  0.00  0.00     0.036 C 
BRANCH   7   8
HETATM    8  C           1     -21.515  -7.622  -1.352  0.00  0.00     0.003 C 
BRANCH   8   9
HETATM    9 Se           1     -22.228  -8.109   0.395  0.00  0.00     0.000 Se
HETATM   10  C           1     -23.104  -9.733  -0.233  0.00  0.00     0.000 C 
ENDBRANCH   8   9
ENDBRANCH   7   8
ENDBRANCH   6   7
BRANCH   6  11
HETATM   11  C           1     -21.048 -10.173  -3.361  0.00  0.00     0.196 C 
HETATM   12  O           1     -20.461 -11.245  -3.098  0.00  0.00    -0.646 OA
HETATM   13  O           1     -22.222 -10.192  -3.787  0.00  0.00    -0.646 OA
ENDBRANCH   6  11
ENDBRANCH   4   6
ENDBRANCH   1   2
BRANCH   1  14
HETATM   14  N           1     -22.638  -6.084  -5.239  0.00  0.00    -0.067 N 
HETATM   15  H           1     -22.569  -6.282  -4.215  0.00  0.00     0.275 HD
HETATM   16  H           1     -22.900  -5.083  -5.383  0.00  0.00     0.275 HD
HETATM   17  H           1     -23.368  -6.700  -5.664  0.00  0.00     0.275 HD
ENDBRANCH   1  14
BRANCH   1  18
HETATM   18  C           1     -20.478  -5.081  -5.888  0.00  0.00     0.042 C 
BRANCH  18  19
HETATM   19  C           1     -20.391  -4.526  -7.303  0.00  0.00     0.004 C 
BRANCH  19  20
HETATM   20  C           1     -21.510  -3.518  -7.524  0.00  0.00     0.027 C 
BRANCH  20  21
HETATM   21  C           1     -22.464  -4.043  -8.590  0.00  0.00     0.229 C 
BRANCH  21  22
HETATM   22  N           1     -23.867  -4.026  -8.060  0.00  0.00    -0.079 N 
HETATM   23  H           1     -23.860  -3.701  -7.066  0.00  0.00     0.274 HD
HETATM   24  H           1     -24.449  -3.377  -8.635  0.00  0.00     0.274 HD
HETATM   25  H           1     -24.268  -4.990  -8.107  0.00  0.00     0.274 HD
ENDBRANCH  21  22
ENDBRANCH  20  21
ENDBRANCH  19  20
ENDBRANCH  18  19
ENDBRANCH   1  18
TORSDOF 12
ENDMDL
MODEL 9
REMARK VINA RESULT:      -4.8      4.023      7.763
REMARK  12 active torsions:
REMARK  status: ('A' for Active; 'I' for Inactive)
REMARK    1  A    between atoms: C_4  and  C_11 
REMARK    2  A    between atoms: C_4  and  C_22 
REMARK    3  A    between atoms: C_5  and  C_22 
REMARK    4  A    between atoms: C_7  and  C_9 
REMARK    5  A    between atoms: C_7  and  N_10 
REMARK    6  A    between atoms: C_9  and  C_21 
REMARK    7  A    between atoms: C_11  and  Se_15 
REMARK       I    between atoms: C_18  and  N_19 
REMARK    8  A    between atoms: C_18  and  C_23 
REMARK    9  A    between atoms: N_19  and  C_22 
REMARK   10  A    between atoms: N_20  and  C_23 
REMARK   11  A    between atoms: C_21  and  C_24 
REMARK   12  A    between atoms: C_23  and  C_24 
ROOT
HETATM    1  C           1     -21.071  -4.698  -6.491  0.00  0.00     0.274 C 
ENDROOT
BRANCH   1   2
HETATM    2  C           1     -21.715  -5.706  -5.571  0.00  0.00     0.249 C 
HETATM    3  O           1     -22.916  -5.829  -5.557  0.00  0.00    -0.271 OA
HETATM    4  N           1     -20.938  -6.481  -4.752  0.00  0.00    -0.345 N 
HETATM    5  H           1     -19.931  -6.378  -4.764  0.00  0.00     0.163 HD
BRANCH   4   6
HETATM    6  C           1     -21.556  -7.450  -3.868  0.00  0.00     0.185 C 
BRANCH   6   7
HETATM    7  C           1     -20.764  -8.750  -3.908  0.00  0.00     0.036 C 
BRANCH   7   8
HETATM    8  C           1     -21.721  -9.924  -4.062  0.00  0.00     0.003 C 
BRANCH   8   9
HETATM    9 Se           1     -21.092 -11.094  -5.488  0.00  0.00     0.000 Se
HETATM   10  C           1     -22.493 -12.425  -5.237  0.00  0.00     0.000 C 
ENDBRANCH   8   9
ENDBRANCH   7   8
ENDBRANCH   6   7
BRANCH   6  11
HETATM   11  C           1     -21.567  -6.909  -2.460  0.00  0.00     0.196 C 
HETATM   12  O           1     -22.281  -5.923  -2.175  0.00  0.00    -0.646 OA
HETATM   13  O           1     -20.864  -7.447  -1.579  0.00  0.00    -0.646 OA
ENDBRANCH   6  11
ENDBRANCH   4   6
ENDBRANCH   1   2
BRANCH   1  14
HETATM   14  N           1     -19.586  -4.708  -6.281  0.00  0.00    -0.067 N 
HETATM   15  H           1     -19.328  -3.976  -5.580  0.00  0.00     0.275 HD
HETATM   16  H           1     -19.290  -5.645  -5.930  0.00  0.00     0.275 HD
HETATM   17  H           1     -19.105  -4.505  -7.186  0.00  0.00     0.275 HD
ENDBRANCH   1  14
BRANCH   1  18
HETATM   18  C           1     -21.381  -5.059  -7.937  0.00  0.00     0.042 C 
BRANCH  18  19
HETATM   19  C           1     -20.124  -4.901  -8.781  0.00  0.00     0.004 C 
BRANCH  19  20
HETATM   20  C           1     -20.451  -4.099 -10.034  0.00  0.00     0.027 C 
BRANCH  20  21
HETATM   21  C           1     -21.940  -4.210 -10.335  0.00  0.00     0.229 C 
BRANCH  21  22
HETATM   22  N           1     -22.346  -3.106 -11.265  0.00  0.00    -0.079 N 
HETATM   23  H           1     -21.722  -2.280 -11.119  0.00  0.00     0.274 HD
HETATM   24  H           1     -22.264  -3.434 -12.254  0.00  0.00     0.274 HD
HETATM   25  H           1     -23.336  -2.832 -11.070  0.00  0.00     0.274 HD
ENDBRANCH  21  22
ENDBRANCH  20  21
ENDBRANCH  19  20
ENDBRANCH  18  19
ENDBRANCH   1  18
TORSDOF 12
ENDMDL
