MODEL 1
REMARK VINA RESULT:      -7.9      0.000      0.000
REMARK  13 active torsions:
REMARK  status: ('A' for Active; 'I' for Inactive)
REMARK    1  A    between atoms: C_2  and  C_4 
REMARK    2  A    between atoms: C_4  and  C_5 
REMARK    3  A    between atoms: C_4  and  N_11 
REMARK    4  A    between atoms: C_5  and  O_6 
REMARK    5  A    between atoms: O_6  and  P_7 
REMARK    6  A    between atoms: P_7  and  O_9 
REMARK       I    between atoms: N_11  and  C_12 
REMARK    7  A    between atoms: C_12  and  C_13 
REMARK    8  A    between atoms: C_13  and  C_14 
REMARK    9  A    between atoms: C_13  and  N_26 
REMARK   10  A    between atoms: C_14  and  C_15 
REMARK   11  A    between atoms: C_18  and  O_19 
REMARK   12  A    between atoms: O_19  and  P_20 
REMARK   13  A    between atoms: P_20  and  O_21 
ROOT
HETATM    1  C           1     -20.904  -4.852  -6.456  0.00  0.00     0.278 C 
ENDROOT
BRANCH   1   2
HETATM    2  C           1     -21.621  -5.809  -5.536  0.00  0.00     0.249 C 
HETATM    3  N           1     -20.905  -6.615  -4.692  0.00  0.00    -0.343 N 
HETATM    4  H           1     -19.894  -6.570  -4.686  0.00  0.00     0.163 HD
HETATM    5  O           1     -22.828  -5.864  -5.543  0.00  0.00    -0.271 OA
BRANCH   3   6
HETATM    6  C           1     -21.595  -7.534  -3.808  0.00  0.00     0.210 C 
BRANCH   6   7
HETATM    7  C           1     -21.638  -6.955  -2.415  0.00  0.00     0.198 C 
HETATM    8  O           1     -20.987  -7.493  -1.493  0.00  0.00    -0.646 OA
HETATM    9  O           1     -22.325  -5.937  -2.181  0.00  0.00    -0.646 OA
ENDBRANCH   6   7
BRANCH   6  10
HETATM   10  C           1     -20.853  -8.864  -3.781  0.00  0.00     0.217 C 
BRANCH  10  11
HETATM   11  O           1     -19.532  -8.672  -4.208  0.00  0.00    -0.287 OA
BRANCH  11  12
HETATM   12  P           1     -18.956  -9.771  -5.241  0.00  0.00     0.406 P 
HETATM   13  O           1     -18.052 -10.697  -4.524  0.00  0.00    -0.624 OA
HETATM   14  O           1     -18.208  -9.090  -6.321  0.00  0.00    -0.624 OA
BRANCH  12  15
HETATM   15  O           1     -20.184 -10.605  -5.879  0.00  0.00    -0.300 OA
HETATM   16  H           1     -19.780 -11.327  -6.329  0.00  0.00     0.223 HD
ENDBRANCH  12  15
ENDBRANCH  11  12
ENDBRANCH  10  11
ENDBRANCH   6  10
ENDBRANCH   3   6
ENDBRANCH   1   2
BRANCH   1  17
HETATM   17  C           1     -20.635  -5.536  -7.791  0.00  0.00     0.081 C 
BRANCH  17  18
HETATM   18  C           1     -21.236  -4.726  -8.897  0.00  0.00    -0.056 A 
HETATM   19  C           1     -22.562  -4.303  -8.810  0.00  0.00     0.010 A 
HETATM   20  C           1     -23.121  -3.547  -9.841  0.00  0.00     0.038 A 
HETATM   21  C           1     -22.355  -3.215 -10.957  0.00  0.00     0.081 A 
HETATM   22  C           1     -21.027  -3.636 -11.043  0.00  0.00     0.038 A 
HETATM   23  C           1     -20.468  -4.392 -10.012  0.00  0.00     0.010 A 
BRANCH  21  24
HETATM   24  O           1     -22.898  -2.481 -11.958  0.00  0.00    -0.247 OA
BRANCH  24  25
HETATM   25  P           1     -23.928  -3.213 -12.963  0.00  0.00     0.411 P 
HETATM   26  O           1     -25.316  -2.876 -12.578  0.00  0.00    -0.624 OA
HETATM   27  O           1     -23.674  -2.755 -14.348  0.00  0.00    -0.624 OA
BRANCH  25  28
HETATM   28  O           1     -23.719  -4.812 -12.879  0.00  0.00    -0.300 OA
HETATM   29  H           1     -24.078  -5.147 -13.683  0.00  0.00     0.223 HD
ENDBRANCH  25  28
ENDBRANCH  24  25
ENDBRANCH  21  24
ENDBRANCH  17  18
ENDBRANCH   1  17
BRANCH   1  30
HETATM   30  N           1     -19.603  -4.442  -5.834  0.00  0.00    -0.066 N 
HETATM   31  H           1     -18.811  -4.747  -6.446  0.00  0.00     0.275 HD
HETATM   32  H           1     -19.579  -3.403  -5.728  0.00  0.00     0.275 HD
HETATM   33  H           1     -19.508  -4.891  -4.895  0.00  0.00     0.275 HD
ENDBRANCH   1  30
TORSDOF 13
ENDMDL
MODEL 2
REMARK VINA RESULT:      -7.8      2.227      9.510
REMARK  13 active torsions:
REMARK  status: ('A' for Active; 'I' for Inactive)
REMARK    1  A    between atoms: C_2  and  C_4 
REMARK    2  A    between atoms: C_4  and  C_5 
REMARK    3  A    between atoms: C_4  and  N_11 
REMARK    4  A    between atoms: C_5  and  O_6 
REMARK    5  A    between atoms: O_6  and  P_7 
REMARK    6  A    between atoms: P_7  and  O_9 
REMARK       I    between atoms: N_11  and  C_12 
REMARK    7  A    between atoms: C_12  and  C_13 
REMARK    8  A    between atoms: C_13  and  C_14 
REMARK    9  A    between atoms: C_13  and  N_26 
REMARK   10  A    between atoms: C_14  and  C_15 
REMARK   11  A    between atoms: C_18  and  O_19 
REMARK   12  A    between atoms: O_19  and  P_20 
REMARK   13  A    between atoms: P_20  and  O_21 
ROOT
HETATM    1  C           1     -21.002  -5.603  -7.382  0.00  0.00     0.278 C 
ENDROOT
BRANCH   1   2
HETATM    2  C           1     -21.773  -4.550  -8.139  0.00  0.00     0.249 C 
HETATM    3  N           1     -21.883  -4.629  -9.501  0.00  0.00    -0.343 N 
HETATM    4  H           1     -21.447  -5.393 -10.001  0.00  0.00     0.163 HD
HETATM    5  O           1     -22.294  -3.637  -7.543  0.00  0.00    -0.271 OA
BRANCH   3   6
HETATM    6  C           1     -22.624  -3.616 -10.229  0.00  0.00     0.210 C 
BRANCH   6   7
HETATM    7  C           1     -24.104  -3.855 -10.056  0.00  0.00     0.198 C 
HETATM    8  O           1     -24.864  -2.900  -9.784  0.00  0.00    -0.646 OA
HETATM    9  O           1     -24.571  -5.007 -10.186  0.00  0.00    -0.646 OA
ENDBRANCH   6   7
BRANCH   6  10
HETATM   10  C           1     -22.267  -3.693 -11.707  0.00  0.00     0.217 C 
BRANCH  10  11
HETATM   11  O           1     -22.683  -2.518 -12.350  0.00  0.00    -0.287 OA
BRANCH  11  12
HETATM   12  P           1     -23.532  -2.719 -13.709  0.00  0.00     0.406 P 
HETATM   13  O           1     -24.358  -3.942 -13.600  0.00  0.00    -0.624 OA
HETATM   14  O           1     -22.605  -2.849 -14.855  0.00  0.00    -0.624 OA
BRANCH  12  15
HETATM   15  O           1     -24.493  -1.440 -13.935  0.00  0.00    -0.300 OA
HETATM   16  H           1     -24.320  -0.872 -13.203  0.00  0.00     0.223 HD
ENDBRANCH  12  15
ENDBRANCH  11  12
ENDBRANCH  10  11
ENDBRANCH   6  10
ENDBRANCH   3   6
ENDBRANCH   1   2
BRANCH   1  17
HETATM   17  C           1     -20.775  -5.137  -5.950  0.00  0.00     0.081 C 
BRANCH  17  18
HETATM   18  C           1     -21.070  -6.261  -5.006  0.00  0.00    -0.056 A 
HETATM   19  C           1     -21.193  -7.563  -5.489  0.00  0.00     0.010 A 
HETATM   20  C           1     -21.467  -8.610  -4.608  0.00  0.00     0.038 A 
HETATM   21  C           1     -21.619  -8.354  -3.245  0.00  0.00     0.081 A 
HETATM   22  C           1     -21.495  -7.051  -2.762  0.00  0.00     0.038 A 
HETATM   23  C           1     -21.221  -6.004  -3.643  0.00  0.00     0.010 A 
BRANCH  21  24
HETATM   24  O           1     -21.885  -9.371  -2.391  0.00  0.00    -0.247 OA
BRANCH  24  25
HETATM   25  P           1     -20.691  -9.892  -1.436  0.00  0.00     0.411 P 
HETATM   26  O           1     -20.768  -9.202  -0.129  0.00  0.00    -0.624 OA
HETATM   27  O           1     -20.824 -11.352  -1.233  0.00  0.00    -0.624 OA
BRANCH  25  28
HETATM   28  O           1     -19.267  -9.573  -2.129  0.00  0.00    -0.300 OA
HETATM   29  H           1     -19.207 -10.176  -2.850  0.00  0.00     0.223 HD
ENDBRANCH  25  28
ENDBRANCH  24  25
ENDBRANCH  21  24
ENDBRANCH  17  18
ENDBRANCH   1  17
BRANCH   1  30
HETATM   30  N           1     -19.679  -5.829  -8.049  0.00  0.00    -0.066 N 
HETATM   31  H           1     -19.764  -6.609  -8.740  0.00  0.00     0.275 HD
HETATM   32  H           1     -19.384  -4.957  -8.542  0.00  0.00     0.275 HD
HETATM   33  H           1     -18.964  -6.081  -7.329  0.00  0.00     0.275 HD
ENDBRANCH   1  30
TORSDOF 13
ENDMDL
MODEL 3
REMARK VINA RESULT:      -7.6      1.636      2.958
REMARK  13 active torsions:
REMARK  status: ('A' for Active; 'I' for Inactive)
REMARK    1  A    between atoms: C_2  and  C_4 
REMARK    2  A    between atoms: C_4  and  C_5 
REMARK    3  A    between atoms: C_4  and  N_11 
REMARK    4  A    between atoms: C_5  and  O_6 
REMARK    5  A    between atoms: O_6  and  P_7 
REMARK    6  A    between atoms: P_7  and  O_9 
REMARK       I    between atoms: N_11  and  C_12 
REMARK    7  A    between atoms: C_12  and  C_13 
REMARK    8  A    between atoms: C_13  and  C_14 
REMARK    9  A    between atoms: C_13  and  N_26 
REMARK   10  A    between atoms: C_14  and  C_15 
REMARK   11  A    between atoms: C_18  and  O_19 
REMARK   12  A    between atoms: O_19  and  P_20 
REMARK   13  A    between atoms: P_20  and  O_21 
ROOT
HETATM    1  C           1     -20.310  -4.532  -7.384  0.00  0.00     0.278 C 
ENDROOT
BRANCH   1   2
HETATM    2  C           1     -20.263  -5.313  -6.093  0.00  0.00     0.249 C 
HETATM    3  N           1     -20.372  -6.677  -6.114  0.00  0.00    -0.343 N 
HETATM    4  H           1     -20.485  -7.163  -6.995  0.00  0.00     0.163 HD
HETATM    5  O           1     -20.129  -4.734  -5.041  0.00  0.00    -0.271 OA
BRANCH   3   6
HETATM    6  C           1     -20.327  -7.428  -4.873  0.00  0.00     0.210 C 
BRANCH   6   7
HETATM    7  C           1     -19.703  -8.779  -5.125  0.00  0.00     0.198 C 
HETATM    8  O           1     -18.781  -8.895  -5.961  0.00  0.00    -0.646 OA
HETATM    9  O           1     -20.108  -9.781  -4.499  0.00  0.00    -0.646 OA
ENDBRANCH   6   7
BRANCH   6  10
HETATM   10  C           1     -21.742  -7.615  -4.343  0.00  0.00     0.217 C 
BRANCH  10  11
HETATM   11  O           1     -21.877  -6.940  -3.121  0.00  0.00    -0.287 OA
BRANCH  11  12
HETATM   12  P           1     -21.607  -7.819  -1.794  0.00  0.00     0.406 P 
HETATM   13  O           1     -22.439  -7.306  -0.683  0.00  0.00    -0.624 OA
HETATM   14  O           1     -20.177  -7.726  -1.423  0.00  0.00    -0.624 OA
BRANCH  12  15
HETATM   15  O           1     -21.989  -9.362  -2.084  0.00  0.00    -0.300 OA
HETATM   16  H           1     -22.151  -9.402  -3.012  0.00  0.00     0.223 HD
ENDBRANCH  12  15
ENDBRANCH  11  12
ENDBRANCH  10  11
ENDBRANCH   6  10
ENDBRANCH   3   6
ENDBRANCH   1   2
BRANCH   1  17
HETATM   17  C           1     -20.946  -5.387  -8.472  0.00  0.00     0.081 C 
BRANCH  17  18
HETATM   18  C           1     -21.517  -4.500  -9.534  0.00  0.00    -0.056 A 
HETATM   19  C           1     -22.870  -4.165  -9.510  0.00  0.00     0.010 A 
HETATM   20  C           1     -23.400  -3.337 -10.500  0.00  0.00     0.038 A 
HETATM   21  C           1     -22.578  -2.845 -11.513  0.00  0.00     0.081 A 
HETATM   22  C           1     -21.224  -3.179 -11.536  0.00  0.00     0.038 A 
HETATM   23  C           1     -20.693  -4.007 -10.546  0.00  0.00     0.010 A 
BRANCH  21  24
HETATM   24  O           1     -23.093  -2.041 -12.474  0.00  0.00    -0.247 OA
BRANCH  24  25
HETATM   25  P           1     -23.485  -2.707 -13.892  0.00  0.00     0.411 P 
HETATM   26  O           1     -24.351  -3.884 -13.661  0.00  0.00    -0.624 OA
HETATM   27  O           1     -24.208  -1.716 -14.719  0.00  0.00    -0.624 OA
BRANCH  25  28
HETATM   28  O           1     -22.141  -3.170 -14.660  0.00  0.00    -0.300 OA
HETATM   29  H           1     -21.568  -3.481 -13.980  0.00  0.00     0.223 HD
ENDBRANCH  25  28
ENDBRANCH  24  25
ENDBRANCH  21  24
ENDBRANCH  17  18
ENDBRANCH   1  17
BRANCH   1  30
HETATM   30  N           1     -18.917  -4.159  -7.792  0.00  0.00    -0.066 N 
HETATM   31  H           1     -18.233  -4.803  -7.334  0.00  0.00     0.275 HD
HETATM   32  H           1     -18.825  -4.237  -8.831  0.00  0.00     0.275 HD
HETATM   33  H           1     -18.719  -3.176  -7.498  0.00  0.00     0.275 HD
ENDBRANCH   1  30
TORSDOF 13
ENDMDL
MODEL 4
REMARK VINA RESULT:      -7.5      2.227      3.914
REMARK  13 active torsions:
REMARK  status: ('A' for Active; 'I' for Inactive)
REMARK    1  A    between atoms: C_2  and  C_4 
REMARK    2  A    between atoms: C_4  and  C_5 
REMARK    3  A    between atoms: C_4  and  N_11 
REMARK    4  A    between atoms: C_5  and  O_6 
REMARK    5  A    between atoms: O_6  and  P_7 
REMARK    6  A    between atoms: P_7  and  O_9 
REMARK       I    between atoms: N_11  and  C_12 
REMARK    7  A    between atoms: C_12  and  C_13 
REMARK    8  A    between atoms: C_13  and  C_14 
REMARK    9  A    between atoms: C_13  and  N_26 
REMARK   10  A    between atoms: C_14  and  C_15 
REMARK   11  A    between atoms: C_18  and  O_19 
REMARK   12  A    between atoms: O_19  and  P_20 
REMARK   13  A    between atoms: P_20  and  O_21 
ROOT
HETATM    1  C           1     -21.490  -6.774  -5.294  0.00  0.00     0.278 C 
ENDROOT
BRANCH   1   2
HETATM    2  C           1     -21.086  -8.152  -4.833  0.00  0.00     0.249 C 
HETATM    3  N           1     -21.538  -8.633  -3.634  0.00  0.00    -0.343 N 
HETATM    4  H           1     -22.143  -8.064  -3.055  0.00  0.00     0.163 HD
HETATM    5  O           1     -20.363  -8.833  -5.522  0.00  0.00    -0.271 OA
BRANCH   3   6
HETATM    6  C           1     -21.149  -9.958  -3.190  0.00  0.00     0.210 C 
BRANCH   6   7
HETATM    7  C           1     -22.270 -10.930  -3.468  0.00  0.00     0.198 C 
HETATM    8  O           1     -23.163 -11.116  -2.613  0.00  0.00    -0.646 OA
HETATM    9  O           1     -22.305 -11.550  -4.553  0.00  0.00    -0.646 OA
ENDBRANCH   6   7
BRANCH   6  10
HETATM   10  C           1     -20.863  -9.929  -1.695  0.00  0.00     0.217 C 
BRANCH  10  11
HETATM   11  O           1     -20.924  -8.607  -1.233  0.00  0.00    -0.287 OA
BRANCH  11  12
HETATM   12  P           1     -22.123  -8.271  -0.205  0.00  0.00     0.406 P 
HETATM   13  O           1     -22.800  -7.023  -0.624  0.00  0.00    -0.624 OA
HETATM   14  O           1     -21.572  -8.099   1.158  0.00  0.00    -0.624 OA
BRANCH  12  15
HETATM   15  O           1     -23.188  -9.486  -0.206  0.00  0.00    -0.300 OA
HETATM   16  H           1     -23.389  -9.632  -1.116  0.00  0.00     0.223 HD
ENDBRANCH  12  15
ENDBRANCH  11  12
ENDBRANCH  10  11
ENDBRANCH   6  10
ENDBRANCH   3   6
ENDBRANCH   1   2
BRANCH   1  17
HETATM   17  C           1     -20.354  -6.152  -6.096  0.00  0.00     0.081 C 
BRANCH  17  18
HETATM   18  C           1     -20.920  -5.368  -7.238  0.00  0.00    -0.056 A 
HETATM   19  C           1     -20.193  -5.234  -8.421  0.00  0.00     0.010 A 
HETATM   20  C           1     -20.722  -4.504  -9.485  0.00  0.00     0.038 A 
HETATM   21  C           1     -21.977  -3.907  -9.367  0.00  0.00     0.081 A 
HETATM   22  C           1     -22.705  -4.041  -8.184  0.00  0.00     0.038 A 
HETATM   23  C           1     -22.176  -4.772  -7.120  0.00  0.00     0.010 A 
BRANCH  21  24
HETATM   24  O           1     -22.491  -3.198 -10.400  0.00  0.00    -0.247 OA
BRANCH  24  25
HETATM   25  P           1     -23.606  -3.907 -11.328  0.00  0.00     0.411 P 
HETATM   26  O           1     -23.812  -5.300 -10.873  0.00  0.00    -0.624 OA
HETATM   27  O           1     -24.880  -3.160 -11.225  0.00  0.00    -0.624 OA
BRANCH  25  28
HETATM   28  O           1     -23.108  -3.911 -12.864  0.00  0.00    -0.300 OA
HETATM   29  H           1     -23.621  -3.245 -13.288  0.00  0.00     0.223 HD
ENDBRANCH  25  28
ENDBRANCH  24  25
ENDBRANCH  21  24
ENDBRANCH  17  18
ENDBRANCH   1  17
BRANCH   1  30
HETATM   30  N           1     -21.787  -5.916  -4.101  0.00  0.00    -0.066 N 
HETATM   31  H           1     -21.539  -6.433  -3.228  0.00  0.00     0.275 HD
HETATM   32  H           1     -21.226  -5.036  -4.156  0.00  0.00     0.275 HD
HETATM   33  H           1     -22.805  -5.679  -4.087  0.00  0.00     0.275 HD
ENDBRANCH   1  30
TORSDOF 13
ENDMDL
MODEL 5
REMARK VINA RESULT:      -7.3      1.841      2.369
REMARK  13 active torsions:
REMARK  status: ('A' for Active; 'I' for Inactive)
REMARK    1  A    between atoms: C_2  and  C_4 
REMARK    2  A    between atoms: C_4  and  C_5 
REMARK    3  A    between atoms: C_4  and  N_11 
REMARK    4  A    between atoms: C_5  and  O_6 
REMARK    5  A    between atoms: O_6  and  P_7 
REMARK    6  A    between atoms: P_7  and  O_9 
REMARK       I    between atoms: N_11  and  C_12 
REMARK    7  A    between atoms: C_12  and  C_13 
REMARK    8  A    between atoms: C_13  and  C_14 
REMARK    9  A    between atoms: C_13  and  N_26 
REMARK   10  A    between atoms: C_14  and  C_15 
REMARK   11  A    between atoms: C_18  and  O_19 
REMARK   12  A    between atoms: O_19  and  P_20 
REMARK   13  A    between atoms: P_20  and  O_21 
ROOT
HETATM    1  C           1     -20.460  -5.076  -6.567  0.00  0.00     0.278 C 
ENDROOT
BRANCH   1   2
HETATM    2  C           1     -21.327  -5.861  -5.614  0.00  0.00     0.249 C 
HETATM    3  N           1     -20.766  -6.802  -4.794  0.00  0.00    -0.343 N 
HETATM    4  H           1     -19.768  -6.972  -4.827  0.00  0.00     0.163 HD
HETATM    5  O           1     -22.518  -5.659  -5.575  0.00  0.00    -0.271 OA
BRANCH   3   6
HETATM    6  C           1     -21.599  -7.556  -3.878  0.00  0.00     0.210 C 
BRANCH   6   7
HETATM    7  C           1     -21.555  -6.915  -2.513  0.00  0.00     0.198 C 
HETATM    8  O           1     -20.760  -7.340  -1.647  0.00  0.00    -0.646 OA
HETATM    9  O           1     -22.313  -5.957  -2.247  0.00  0.00    -0.646 OA
ENDBRANCH   6   7
BRANCH   6  10
HETATM   10  C           1     -21.082  -8.986  -3.783  0.00  0.00     0.217 C 
BRANCH  10  11
HETATM   11  O           1     -22.164  -9.867  -3.649  0.00  0.00    -0.287 OA
BRANCH  11  12
HETATM   12  P           1     -22.163 -10.791  -2.325  0.00  0.00     0.406 P 
HETATM   13  O           1     -22.870 -12.061  -2.608  0.00  0.00    -0.624 OA
HETATM   14  O           1     -22.851 -10.079  -1.226  0.00  0.00    -0.624 OA
BRANCH  12  15
HETATM   15  O           1     -20.640 -11.109  -1.892  0.00  0.00    -0.300 OA
HETATM   16  H           1     -20.239 -10.265  -1.774  0.00  0.00     0.223 HD
ENDBRANCH  12  15
ENDBRANCH  11  12
ENDBRANCH  10  11
ENDBRANCH   6  10
ENDBRANCH   3   6
ENDBRANCH   1   2
BRANCH   1  17
HETATM   17  C           1     -21.196  -3.816  -7.006  0.00  0.00     0.081 C 
BRANCH  17  18
HETATM   18  C           1     -21.789  -4.031  -8.364  0.00  0.00    -0.056 A 
HETATM   19  C           1     -23.165  -4.204  -8.505  0.00  0.00     0.010 A 
HETATM   20  C           1     -23.716  -4.403  -9.771  0.00  0.00     0.038 A 
HETATM   21  C           1     -22.891  -4.429 -10.895  0.00  0.00     0.081 A 
HETATM   22  C           1     -21.514  -4.255 -10.754  0.00  0.00     0.038 A 
HETATM   23  C           1     -20.963  -4.056  -9.488  0.00  0.00     0.010 A 
BRANCH  21  24
HETATM   24  O           1     -23.426  -4.622 -12.124  0.00  0.00    -0.247 OA
BRANCH  24  25
HETATM   25  P           1     -23.888  -3.323 -12.964  0.00  0.00     0.411 P 
HETATM   26  O           1     -25.284  -2.979 -12.612  0.00  0.00    -0.624 OA
HETATM   27  O           1     -23.001  -2.183 -12.636  0.00  0.00    -0.624 OA
BRANCH  25  28
HETATM   28  O           1     -23.794  -3.640 -14.545  0.00  0.00    -0.300 OA
HETATM   29  H           1     -23.856  -4.577 -14.609  0.00  0.00     0.223 HD
ENDBRANCH  25  28
ENDBRANCH  24  25
ENDBRANCH  21  24
ENDBRANCH  17  18
ENDBRANCH   1  17
BRANCH   1  30
HETATM   30  N           1     -20.151  -5.917  -7.769  0.00  0.00    -0.066 N 
HETATM   31  H           1     -21.039  -6.162  -8.263  0.00  0.00     0.275 HD
HETATM   32  H           1     -19.529  -5.383  -8.417  0.00  0.00     0.275 HD
HETATM   33  H           1     -19.668  -6.793  -7.466  0.00  0.00     0.275 HD
ENDBRANCH   1  30
TORSDOF 13
ENDMDL
MODEL 6
REMARK VINA RESULT:      -7.0      1.191      1.985
REMARK  13 active torsions:
REMARK  status: ('A' for Active; 'I' for Inactive)
REMARK    1  A    between atoms: C_2  and  C_4 
REMARK    2  A    between atoms: C_4  and  C_5 
REMARK    3  A    between atoms: C_4  and  N_11 
REMARK    4  A    between atoms: C_5  and  O_6 
REMARK    5  A    between atoms: O_6  and  P_7 
REMARK    6  A    between atoms: P_7  and  O_9 
REMARK       I    between atoms: N_11  and  C_12 
REMARK    7  A    between atoms: C_12  and  C_13 
REMARK    8  A    between atoms: C_13  and  C_14 
REMARK    9  A    between atoms: C_13  and  N_26 
REMARK   10  A    between atoms: C_14  and  C_15 
REMARK   11  A    between atoms: C_18  and  O_19 
REMARK   12  A    between atoms: O_19  and  P_20 
REMARK   13  A    between atoms: P_20  and  O_21 
ROOT
HETATM    1  C           1     -20.909  -5.232  -5.816  0.00  0.00     0.278 C 
ENDROOT
BRANCH   1   2
HETATM    2  C           1     -21.317  -6.365  -4.907  0.00  0.00     0.249 C 
HETATM    3  N           1     -20.514  -7.466  -4.783  0.00  0.00    -0.343 N 
HETATM    4  H           1     -19.645  -7.521  -5.300  0.00  0.00     0.163 HD
HETATM    5  O           1     -22.354  -6.301  -4.290  0.00  0.00    -0.271 OA
BRANCH   3   6
HETATM    6  C           1     -20.906  -8.556  -3.910  0.00  0.00     0.210 C 
BRANCH   6   7
HETATM    7  C           1     -19.775  -8.874  -2.962  0.00  0.00     0.198 C 
HETATM    8  O           1     -18.591  -8.795  -3.354  0.00  0.00    -0.646 OA
HETATM    9  O           1     -20.022  -9.217  -1.786  0.00  0.00    -0.646 OA
ENDBRANCH   6   7
BRANCH   6  10
HETATM   10  C           1     -21.226  -9.787  -4.748  0.00  0.00     0.217 C 
BRANCH  10  11
HETATM   11  O           1     -20.310  -9.885  -5.804  0.00  0.00    -0.287 OA
BRANCH  11  12
HETATM   12  P           1     -19.463 -11.258  -5.879  0.00  0.00     0.406 P 
HETATM   13  O           1     -19.151 -11.569  -7.292  0.00  0.00    -0.624 OA
HETATM   14  O           1     -20.257 -12.361  -5.295  0.00  0.00    -0.624 OA
BRANCH  12  15
HETATM   15  O           1     -18.087 -11.086  -5.051  0.00  0.00    -0.300 OA
HETATM   16  H           1     -18.295 -10.486  -4.354  0.00  0.00     0.223 HD
ENDBRANCH  12  15
ENDBRANCH  11  12
ENDBRANCH  10  11
ENDBRANCH   6  10
ENDBRANCH   3   6
ENDBRANCH   1   2
BRANCH   1  17
HETATM   17  C           1     -20.377  -5.797  -7.127  0.00  0.00     0.081 C 
BRANCH  17  18
HETATM   18  C           1     -20.953  -5.025  -8.273  0.00  0.00    -0.056 A 
HETATM   19  C           1     -22.261  -4.546  -8.204  0.00  0.00     0.010 A 
HETATM   20  C           1     -22.796  -3.826  -9.273  0.00  0.00     0.038 A 
HETATM   21  C           1     -22.023  -3.584 -10.409  0.00  0.00     0.081 A 
HETATM   22  C           1     -20.714  -4.062 -10.476  0.00  0.00     0.038 A 
HETATM   23  C           1     -20.179  -4.782  -9.408  0.00  0.00     0.010 A 
BRANCH  21  24
HETATM   24  O           1     -22.543  -2.885 -11.446  0.00  0.00    -0.247 OA
BRANCH  24  25
HETATM   25  P           1     -23.811  -3.512 -12.225  0.00  0.00     0.411 P 
HETATM   26  O           1     -23.811  -3.040 -13.627  0.00  0.00    -0.624 OA
HETATM   27  O           1     -23.723  -4.990 -12.200  0.00  0.00    -0.624 OA
BRANCH  25  28
HETATM   28  O           1     -25.176  -3.043 -11.499  0.00  0.00    -0.300 OA
HETATM   29  H           1     -25.606  -3.843 -11.251  0.00  0.00     0.223 HD
ENDBRANCH  25  28
ENDBRANCH  24  25
ENDBRANCH  21  24
ENDBRANCH  17  18
ENDBRANCH   1  17
BRANCH   1  30
HETATM   30  N           1     -19.837  -4.420  -5.151  0.00  0.00    -0.066 N 
HETATM   31  H           1     -20.219  -3.482  -4.892  0.00  0.00     0.275 HD
HETATM   32  H           1     -19.511  -4.913  -4.289  0.00  0.00     0.275 HD
HETATM   33  H           1     -19.034  -4.299  -5.808  0.00  0.00     0.275 HD
ENDBRANCH   1  30
TORSDOF 13
ENDMDL
MODEL 7
REMARK VINA RESULT:      -6.8      3.203      9.617
REMARK  13 active torsions:
REMARK  status: ('A' for Active; 'I' for Inactive)
REMARK    1  A    between atoms: C_2  and  C_4 
REMARK    2  A    between atoms: C_4  and  C_5 
REMARK    3  A    between atoms: C_4  and  N_11 
REMARK    4  A    between atoms: C_5  and  O_6 
REMARK    5  A    between atoms: O_6  and  P_7 
REMARK    6  A    between atoms: P_7  and  O_9 
REMARK       I    between atoms: N_11  and  C_12 
REMARK    7  A    between atoms: C_12  and  C_13 
REMARK    8  A    between atoms: C_13  and  C_14 
REMARK    9  A    between atoms: C_13  and  N_26 
REMARK   10  A    between atoms: C_14  and  C_15 
REMARK   11  A    between atoms: C_18  and  O_19 
REMARK   12  A    between atoms: O_19  and  P_20 
REMARK   13  A    between atoms: P_20  and  O_21 
ROOT
HETATM    1  C           1     -22.198  -3.834 -10.419  0.00  0.00     0.278 C 
ENDROOT
BRANCH   1   2
HETATM    2  C           1     -22.300  -3.846 -11.924  0.00  0.00     0.249 C 
HETATM    3  N           1     -23.516  -4.017 -12.527  0.00  0.00    -0.343 N 
HETATM    4  H           1     -24.349  -4.136 -11.963  0.00  0.00     0.163 HD
HETATM    5  O           1     -21.307  -3.704 -12.598  0.00  0.00    -0.271 OA
BRANCH   3   6
HETATM    6  C           1     -23.615  -4.028 -13.974  0.00  0.00     0.210 C 
BRANCH   6   7
HETATM    7  C           1     -23.581  -2.611 -14.491  0.00  0.00     0.198 C 
HETATM    8  O           1     -24.409  -1.773 -14.073  0.00  0.00    -0.646 OA
HETATM    9  O           1     -22.726  -2.274 -15.338  0.00  0.00    -0.646 OA
ENDBRANCH   6   7
BRANCH   6  10
HETATM   10  C           1     -24.923  -4.688 -14.388  0.00  0.00     0.217 C 
BRANCH  10  11
HETATM   11  O           1     -24.707  -6.054 -14.615  0.00  0.00    -0.287 OA
BRANCH  11  12
HETATM   12  P           1     -25.510  -6.700 -15.858  0.00  0.00     0.406 P 
HETATM   13  O           1     -26.046  -5.620 -16.716  0.00  0.00    -0.624 OA
HETATM   14  O           1     -26.627  -7.526 -15.349  0.00  0.00    -0.624 OA
BRANCH  12  15
HETATM   15  O           1     -24.506  -7.624 -16.723  0.00  0.00    -0.300 OA
HETATM   16  H           1     -24.847  -8.499 -16.641  0.00  0.00     0.223 HD
ENDBRANCH  12  15
ENDBRANCH  11  12
ENDBRANCH  10  11
ENDBRANCH   6  10
ENDBRANCH   3   6
ENDBRANCH   1   2
BRANCH   1  17
HETATM   17  C           1     -20.756  -4.097 -10.004  0.00  0.00     0.081 C 
BRANCH  17  18
HETATM   18  C           1     -20.709  -4.435  -8.547  0.00  0.00    -0.056 A 
HETATM   19  C           1     -20.094  -5.614  -8.124  0.00  0.00     0.010 A 
HETATM   20  C           1     -20.050  -5.928  -6.765  0.00  0.00     0.038 A 
HETATM   21  C           1     -20.621  -5.064  -5.830  0.00  0.00     0.081 A 
HETATM   22  C           1     -21.235  -3.885  -6.254  0.00  0.00     0.038 A 
HETATM   23  C           1     -21.279  -3.571  -7.612  0.00  0.00     0.010 A 
BRANCH  21  24
HETATM   24  O           1     -20.578  -5.369  -4.511  0.00  0.00    -0.247 OA
BRANCH  24  25
HETATM   25  P           1     -21.688  -6.387  -3.931  0.00  0.00     0.411 P 
HETATM   26  O           1     -21.109  -7.745  -3.833  0.00  0.00    -0.624 OA
HETATM   27  O           1     -22.118  -5.935  -2.589  0.00  0.00    -0.624 OA
BRANCH  25  28
HETATM   28  O           1     -22.964  -6.417  -4.922  0.00  0.00    -0.300 OA
HETATM   29  H           1     -23.186  -5.512  -5.060  0.00  0.00     0.223 HD
ENDBRANCH  25  28
ENDBRANCH  24  25
ENDBRANCH  21  24
ENDBRANCH  17  18
ENDBRANCH   1  17
BRANCH   1  30
HETATM   30  N           1     -23.083  -4.902  -9.850  0.00  0.00    -0.066 N 
HETATM   31  H           1     -22.863  -5.818 -10.304  0.00  0.00     0.275 HD
HETATM   32  H           1     -22.923  -4.977  -8.821  0.00  0.00     0.275 HD
HETATM   33  H           1     -24.083  -4.658 -10.030  0.00  0.00     0.275 HD
ENDBRANCH   1  30
TORSDOF 13
ENDMDL
MODEL 8
REMARK VINA RESULT:      -6.7      2.238      3.534
REMARK  13 active torsions:
REMARK  status: ('A' for Active; 'I' for Inactive)
REMARK    1  A    between atoms: C_2  and  C_4 
REMARK    2  A    between atoms: C_4  and  C_5 
REMARK    3  A    between atoms: C_4  and  N_11 
REMARK    4  A    between atoms: C_5  and  O_6 
REMARK    5  A    between atoms: O_6  and  P_7 
REMARK    6  A    between atoms: P_7  and  O_9 
REMARK       I    between atoms: N_11  and  C_12 
REMARK    7  A    between atoms: C_12  and  C_13 
REMARK    8  A    between atoms: C_13  and  C_14 
REMARK    9  A    between atoms: C_13  and  N_26 
REMARK   10  A    between atoms: C_14  and  C_15 
REMARK   11  A    between atoms: C_18  and  O_19 
REMARK   12  A    between atoms: O_19  and  P_20 
REMARK   13  A    between atoms: P_20  and  O_21 
ROOT
HETATM    1  C           1     -20.391  -6.490  -5.897  0.00  0.00     0.278 C 
ENDROOT
BRANCH   1   2
HETATM    2  C           1     -20.509  -7.020  -4.489  0.00  0.00     0.249 C 
HETATM    3  N           1     -20.001  -8.252  -4.176  0.00  0.00    -0.343 N 
HETATM    4  H           1     -19.547  -8.808  -4.889  0.00  0.00     0.163 HD
HETATM    5  O           1     -21.052  -6.357  -3.637  0.00  0.00    -0.271 OA
BRANCH   3   6
HETATM    6  C           1     -20.115  -8.762  -2.823  0.00  0.00     0.210 C 
BRANCH   6   7
HETATM    7  C           1     -18.920  -9.629  -2.511  0.00  0.00     0.198 C 
HETATM    8  O           1     -19.068 -10.689  -1.864  0.00  0.00    -0.646 OA
HETATM    9  O           1     -17.781  -9.289  -2.899  0.00  0.00    -0.646 OA
ENDBRANCH   6   7
BRANCH   6  10
HETATM   10  C           1     -21.387  -9.589  -2.698  0.00  0.00     0.217 C 
BRANCH  10  11
HETATM   11  O           1     -22.224  -9.017  -1.729  0.00  0.00    -0.287 OA
BRANCH  11  12
HETATM   12  P           1     -22.327  -9.811  -0.327  0.00  0.00     0.406 P 
HETATM   13  O           1     -23.749 -10.076  -0.013  0.00  0.00    -0.624 OA
HETATM   14  O           1     -21.729  -8.991   0.750  0.00  0.00    -0.624 OA
BRANCH  12  15
HETATM   15  O           1     -21.533 -11.213  -0.443  0.00  0.00    -0.300 OA
HETATM   16  H           1     -21.827 -11.593  -1.254  0.00  0.00     0.223 HD
ENDBRANCH  12  15
ENDBRANCH  11  12
ENDBRANCH  10  11
ENDBRANCH   6  10
ENDBRANCH   3   6
ENDBRANCH   1   2
BRANCH   1  17
HETATM   17  C           1     -20.666  -4.992  -5.901  0.00  0.00     0.081 C 
BRANCH  17  18
HETATM   18  C           1     -21.047  -4.558  -7.282  0.00  0.00    -0.056 A 
HETATM   19  C           1     -22.318  -4.037  -7.524  0.00  0.00     0.010 A 
HETATM   20  C           1     -22.671  -3.632  -8.811  0.00  0.00     0.038 A 
HETATM   21  C           1     -21.755  -3.748  -9.856  0.00  0.00     0.081 A 
HETATM   22  C           1     -20.483  -4.268  -9.614  0.00  0.00     0.038 A 
HETATM   23  C           1     -20.129  -4.673  -8.326  0.00  0.00     0.010 A 
BRANCH  21  24
HETATM   24  O           1     -22.098  -3.354 -11.106  0.00  0.00    -0.247 OA
BRANCH  24  25
HETATM   25  P           1     -23.485  -3.907 -11.721  0.00  0.00     0.411 P 
HETATM   26  O           1     -23.689  -5.309 -11.295  0.00  0.00    -0.624 OA
HETATM   27  O           1     -24.607  -3.074 -11.234  0.00  0.00    -0.624 OA
BRANCH  25  28
HETATM   28  O           1     -23.425  -3.838 -13.334  0.00  0.00    -0.300 OA
HETATM   29  H           1     -23.871  -4.614 -13.627  0.00  0.00     0.223 HD
ENDBRANCH  25  28
ENDBRANCH  24  25
ENDBRANCH  21  24
ENDBRANCH  17  18
ENDBRANCH   1  17
BRANCH   1  30
HETATM   30  N           1     -21.388  -7.183  -6.776  0.00  0.00    -0.066 N 
HETATM   31  H           1     -21.074  -7.128  -7.772  0.00  0.00     0.275 HD
HETATM   32  H           1     -21.467  -8.185  -6.492  0.00  0.00     0.275 HD
HETATM   33  H           1     -22.320  -6.719  -6.680  0.00  0.00     0.275 HD
ENDBRANCH   1  30
TORSDOF 13
ENDMDL
MODEL 9
REMARK VINA RESULT:      -6.7      1.845      2.565
REMARK  13 active torsions:
REMARK  status: ('A' for Active; 'I' for Inactive)
REMARK    1  A    between atoms: C_2  and  C_4 
REMARK    2  A    between atoms: C_4  and  C_5 
REMARK    3  A    between atoms: C_4  and  N_11 
REMARK    4  A    between atoms: C_5  and  O_6 
REMARK    5  A    between atoms: O_6  and  P_7 
REMARK    6  A    between atoms: P_7  and  O_9 
REMARK       I    between atoms: N_11  and  C_12 
REMARK    7  A    between atoms: C_12  and  C_13 
REMARK    8  A    between atoms: C_13  and  C_14 
REMARK    9  A    between atoms: C_13  and  N_26 
REMARK   10  A    between atoms: C_14  and  C_15 
REMARK   11  A    between atoms: C_18  and  O_19 
REMARK   12  A    between atoms: O_19  and  P_20 
REMARK   13  A    between atoms: P_20  and  O_21 
ROOT
HETATM    1  C           1     -20.247  -6.492  -5.519  0.00  0.00     0.278 C 
ENDROOT
BRANCH   1   2
HETATM    2  C           1     -21.129  -7.175  -4.502  0.00  0.00     0.249 C 
HETATM    3  N           1     -20.765  -7.192  -3.182  0.00  0.00    -0.343 N 
HETATM    4  H           1     -19.905  -6.748  -2.888  0.00  0.00     0.163 HD
HETATM    5  O           1     -22.156  -7.706  -4.852  0.00  0.00    -0.271 OA
BRANCH   3   6
HETATM    6  C           1     -21.612  -7.848  -2.205  0.00  0.00     0.210 C 
BRANCH   6   7
HETATM    7  C           1     -22.317  -6.807  -1.370  0.00  0.00     0.198 C 
HETATM    8  O           1     -22.873  -7.134  -0.300  0.00  0.00    -0.646 OA
HETATM    9  O           1     -22.344  -5.616  -1.748  0.00  0.00    -0.646 OA
ENDBRANCH   6   7
BRANCH   6  10
HETATM   10  C           1     -20.757  -8.727  -1.302  0.00  0.00     0.217 C 
BRANCH  10  11
HETATM   11  O           1     -20.656 -10.010  -1.857  0.00  0.00    -0.287 OA
BRANCH  11  12
HETATM   12  P           1     -19.190 -10.442  -2.377  0.00  0.00     0.406 P 
HETATM   13  O           1     -18.486 -11.188  -1.310  0.00  0.00    -0.624 OA
HETATM   14  O           1     -18.414  -9.232  -2.727  0.00  0.00    -0.624 OA
BRANCH  12  15
HETATM   15  O           1     -19.339 -11.384  -3.681  0.00  0.00    -0.300 OA
HETATM   16  H           1     -19.896 -10.901  -4.268  0.00  0.00     0.223 HD
ENDBRANCH  12  15
ENDBRANCH  11  12
ENDBRANCH  10  11
ENDBRANCH   6  10
ENDBRANCH   3   6
ENDBRANCH   1   2
BRANCH   1  17
HETATM   17  C           1     -20.512  -4.993  -5.496  0.00  0.00     0.081 C 
BRANCH  17  18
HETATM   18  C           1     -21.018  -4.555  -6.835  0.00  0.00    -0.056 A 
HETATM   19  C           1     -20.120  -4.301  -7.871  0.00  0.00     0.010 A 
HETATM   20  C           1     -20.593  -3.894  -9.119  0.00  0.00     0.038 A 
HETATM   21  C           1     -21.963  -3.740  -9.330  0.00  0.00     0.081 A 
HETATM   22  C           1     -22.861  -3.995  -8.294  0.00  0.00     0.038 A 
HETATM   23  C           1     -22.388  -4.402  -7.046  0.00  0.00     0.010 A 
BRANCH  21  24
HETATM   24  O           1     -22.422  -3.345 -10.542  0.00  0.00    -0.247 OA
BRANCH  24  25
HETATM   25  P           1     -23.773  -4.030 -11.102  0.00  0.00     0.411 P 
HETATM   26  O           1     -23.774  -3.981 -12.581  0.00  0.00    -0.624 OA
HETATM   27  O           1     -23.832  -5.440 -10.655  0.00  0.00    -0.624 OA
BRANCH  25  28
HETATM   28  O           1     -25.058  -3.232 -10.536  0.00  0.00    -0.300 OA
HETATM   29  H           1     -25.762  -3.857 -10.559  0.00  0.00     0.223 HD
ENDBRANCH  25  28
ENDBRANCH  24  25
ENDBRANCH  21  24
ENDBRANCH  17  18
ENDBRANCH   1  17
BRANCH   1  30
HETATM   30  N           1     -20.550  -7.032  -6.884  0.00  0.00    -0.066 N 
HETATM   31  H           1     -21.066  -6.312  -7.438  0.00  0.00     0.275 HD
HETATM   32  H           1     -19.656  -7.271  -7.370  0.00  0.00     0.275 HD
HETATM   33  H           1     -21.139  -7.891  -6.797  0.00  0.00     0.275 HD
ENDBRANCH   1  30
TORSDOF 13
ENDMDL
