MODEL 1
REMARK VINA RESULT:      -6.8      0.000      0.000
REMARK  11 active torsions:
REMARK  status: ('A' for Active; 'I' for Inactive)
REMARK    1  A    between atoms: C_1  and  C_3 
REMARK    2  A    between atoms: C_1  and  C_18 
REMARK    3  A    between atoms: C_3  and  N_4 
REMARK    4  A    between atoms: C_9  and  C_10 
REMARK    5  A    between atoms: C_10  and  C_11 
REMARK    6  A    between atoms: C_11  and  C_12 
REMARK    7  A    between atoms: C_11  and  N_21 
REMARK       I    between atoms: C_12  and  N_17 
REMARK    8  A    between atoms: N_17  and  C_25 
REMARK    9  A    between atoms: C_18  and  C_22 
REMARK   10  A    between atoms: C_22  and  C_25 
REMARK   11  A    between atoms: C_25  and  C_26 
ROOT
HETATM    1  C           1     -21.658  -4.535  -7.736  0.00  0.00     0.249 C 
HETATM    2  O           1     -21.614  -3.395  -7.338  0.00  0.00    -0.271 OA
HETATM    3  N           1     -22.239  -4.815  -8.945  0.00  0.00    -0.345 N 
HETATM    4  H           1     -22.276  -5.769  -9.279  0.00  0.00     0.163 HD
ENDROOT
BRANCH   1   5
HETATM    5  C           1     -21.073  -5.649  -6.904  0.00  0.00     0.280 C 
BRANCH   5   6
HETATM    6  C           1     -20.719  -5.119  -5.521  0.00  0.00     0.101 C 
BRANCH   6   7
HETATM    7  C           1     -21.099  -6.132  -4.486  0.00  0.00     0.028 A 
HETATM    8  C           1     -21.034  -7.493  -4.664  0.00  0.00     0.114 A 
HETATM    9  N           1     -21.467  -8.026  -3.482  0.00  0.00    -0.360 N 
HETATM   10  H           1     -21.551  -9.049  -3.255  0.00  0.00     0.166 HD
HETATM   11  C           1     -21.773  -6.988  -2.650  0.00  0.00     0.180 A 
HETATM   12  N           1     -21.560  -5.829  -3.231  0.00  0.00    -0.355 N 
ATOM     13  HN          1     -21.706  -4.901  -2.833  1.00  0.00     0.166 HD
ENDBRANCH   6   7
ENDBRANCH   5   6
BRANCH   5  14
HETATM   14  N           1     -19.835  -6.173  -7.570  0.00  0.00    -0.066 N 
HETATM   15  H           1     -19.008  -5.998  -6.954  0.00  0.00     0.275 HD
HETATM   16  H           1     -19.935  -7.200  -7.735  0.00  0.00     0.275 HD
HETATM   17  H           1     -19.698  -5.684  -8.483  0.00  0.00     0.275 HD
ENDBRANCH   5  14
ENDBRANCH   1   5
BRANCH   3  18
HETATM   18  C           1     -22.802  -3.744  -9.744  0.00  0.00     0.185 C 
BRANCH  18  19
HETATM   19  C           1     -22.341  -3.892 -11.188  0.00  0.00     0.036 C 
BRANCH  19  20
HETATM   20  C           1     -22.604  -2.595 -11.941  0.00  0.00     0.004 C 
BRANCH  20  21
HETATM   21  C           1     -23.747  -2.800 -12.926  0.00  0.00     0.027 C 
BRANCH  21  22
HETATM   22  C           1     -23.392  -2.157 -14.260  0.00  0.00     0.229 C 
BRANCH  22  23
HETATM   23  N           1     -22.371  -2.999 -14.965  0.00  0.00    -0.079 N 
HETATM   24  H           1     -22.839  -3.569 -15.706  0.00  0.00     0.274 HD
HETATM   25  H           1     -21.652  -2.379 -15.405  0.00  0.00     0.274 HD
HETATM   26  H           1     -21.908  -3.635 -14.277  0.00  0.00     0.274 HD
ENDBRANCH  22  23
ENDBRANCH  21  22
ENDBRANCH  20  21
ENDBRANCH  19  20
ENDBRANCH  18  19
BRANCH  18  27
HETATM   27  C           1     -24.308  -3.814  -9.687  0.00  0.00     0.196 C 
HETATM   28  O           1     -24.891  -4.901  -9.886  0.00  0.00    -0.646 OA
HETATM   29  O           1     -24.972  -2.784  -9.440  0.00  0.00    -0.646 OA
ENDBRANCH  18  27
ENDBRANCH   3  18
TORSDOF 11
ENDMDL
MODEL 2
REMARK VINA RESULT:      -6.5      1.773      7.932
REMARK  11 active torsions:
REMARK  status: ('A' for Active; 'I' for Inactive)
REMARK    1  A    between atoms: C_1  and  C_3 
REMARK    2  A    between atoms: C_1  and  C_18 
REMARK    3  A    between atoms: C_3  and  N_4 
REMARK    4  A    between atoms: C_9  and  C_10 
REMARK    5  A    between atoms: C_10  and  C_11 
REMARK    6  A    between atoms: C_11  and  C_12 
REMARK    7  A    between atoms: C_11  and  N_21 
REMARK       I    between atoms: C_12  and  N_17 
REMARK    8  A    between atoms: N_17  and  C_25 
REMARK    9  A    between atoms: C_18  and  C_22 
REMARK   10  A    between atoms: C_22  and  C_25 
REMARK   11  A    between atoms: C_25  and  C_26 
ROOT
HETATM    1  C           1     -23.136  -4.555  -7.729  0.00  0.00     0.249 C 
HETATM    2  O           1     -23.842  -4.402  -6.761  0.00  0.00    -0.271 OA
HETATM    3  N           1     -21.868  -5.051  -7.579  0.00  0.00    -0.345 N 
HETATM    4  H           1     -21.276  -5.180  -8.389  0.00  0.00     0.163 HD
ENDROOT
BRANCH   1   5
HETATM    5  C           1     -23.649  -4.201  -9.103  0.00  0.00     0.280 C 
BRANCH   5   6
HETATM    6  C           1     -22.509  -3.643  -9.944  0.00  0.00     0.101 C 
BRANCH   6   7
HETATM    7  C           1     -22.963  -3.488 -11.362  0.00  0.00     0.028 A 
HETATM    8  C           1     -23.482  -4.502 -12.131  0.00  0.00     0.114 A 
HETATM    9  N           1     -23.759  -3.924 -13.339  0.00  0.00    -0.360 N 
HETATM   10  H           1     -24.170  -4.405 -14.179  0.00  0.00     0.166 HD
HETATM   11  C           1     -23.403  -2.609 -13.257  0.00  0.00     0.180 A 
HETATM   12  N           1     -22.918  -2.316 -12.071  0.00  0.00    -0.355 N 
ATOM     13  HN          1     -22.580  -1.410 -11.747  1.00  0.00     0.166 HD
ENDBRANCH   6   7
ENDBRANCH   5   6
BRANCH   5  14
HETATM   14  N           1     -24.731  -3.168  -8.981  0.00  0.00    -0.066 N 
HETATM   15  H           1     -24.476  -2.485  -8.231  0.00  0.00     0.275 HD
HETATM   16  H           1     -24.836  -2.665  -9.890  0.00  0.00     0.275 HD
HETATM   17  H           1     -25.632  -3.636  -8.735  0.00  0.00     0.275 HD
ENDBRANCH   5  14
ENDBRANCH   1   5
BRANCH   3  18
HETATM   18  C           1     -21.374  -5.391  -6.259  0.00  0.00     0.185 C 
BRANCH  18  19
HETATM   19  C           1     -21.253  -6.905  -6.135  0.00  0.00     0.036 C 
BRANCH  19  20
HETATM   20  C           1     -21.922  -7.365  -4.847  0.00  0.00     0.004 C 
BRANCH  20  21
HETATM   21  C           1     -20.858  -7.667  -3.801  0.00  0.00     0.027 C 
BRANCH  21  22
HETATM   22  C           1     -21.342  -7.201  -2.434  0.00  0.00     0.229 C 
BRANCH  22  23
HETATM   23  N           1     -22.244  -6.014  -2.600  0.00  0.00    -0.079 N 
HETATM   24  H           1     -23.205  -6.256  -2.270  0.00  0.00     0.274 HD
HETATM   25  H           1     -21.874  -5.214  -2.038  0.00  0.00     0.274 HD
HETATM   26  H           1     -22.280  -5.743  -3.609  0.00  0.00     0.274 HD
ENDBRANCH  22  23
ENDBRANCH  21  22
ENDBRANCH  20  21
ENDBRANCH  19  20
ENDBRANCH  18  19
BRANCH  18  27
HETATM   27  C           1     -20.019  -4.760  -6.052  0.00  0.00     0.196 C 
HETATM   28  O           1     -19.680  -4.366  -4.916  0.00  0.00    -0.646 OA
HETATM   29  O           1     -19.236  -4.632  -7.018  0.00  0.00    -0.646 OA
ENDBRANCH  18  27
ENDBRANCH   3  18
TORSDOF 11
ENDMDL
MODEL 3
REMARK VINA RESULT:      -6.4      2.986      8.044
REMARK  11 active torsions:
REMARK  status: ('A' for Active; 'I' for Inactive)
REMARK    1  A    between atoms: C_1  and  C_3 
REMARK    2  A    between atoms: C_1  and  C_18 
REMARK    3  A    between atoms: C_3  and  N_4 
REMARK    4  A    between atoms: C_9  and  C_10 
REMARK    5  A    between atoms: C_10  and  C_11 
REMARK    6  A    between atoms: C_11  and  C_12 
REMARK    7  A    between atoms: C_11  and  N_21 
REMARK       I    between atoms: C_12  and  N_17 
REMARK    8  A    between atoms: N_17  and  C_25 
REMARK    9  A    between atoms: C_18  and  C_22 
REMARK   10  A    between atoms: C_22  and  C_25 
REMARK   11  A    between atoms: C_25  and  C_26 
ROOT
HETATM    1  C           1     -20.780  -4.923  -6.164  0.00  0.00     0.249 C 
HETATM    2  O           1     -20.032  -4.432  -5.352  0.00  0.00    -0.271 OA
HETATM    3  N           1     -21.377  -6.128  -5.904  0.00  0.00    -0.345 N 
HETATM    4  H           1     -22.003  -6.539  -6.584  0.00  0.00     0.163 HD
ENDROOT
BRANCH   1   5
HETATM    5  C           1     -21.055  -4.210  -7.465  0.00  0.00     0.280 C 
BRANCH   5   6
HETATM    6  C           1     -21.785  -5.150  -8.415  0.00  0.00     0.101 C 
BRANCH   6   7
HETATM    7  C           1     -22.866  -4.398  -9.128  0.00  0.00     0.028 A 
HETATM    8  C           1     -22.902  -4.183 -10.485  0.00  0.00     0.114 A 
HETATM    9  N           1     -24.046  -3.464 -10.699  0.00  0.00    -0.360 N 
HETATM   10  H           1     -24.399  -3.119 -11.627  0.00  0.00     0.166 HD
HETATM   11  C           1     -24.645  -3.274  -9.487  0.00  0.00     0.180 A 
HETATM   12  N           1     -23.953  -3.829  -8.518  0.00  0.00    -0.355 N 
ATOM     13  HN          1     -24.177  -3.835  -7.523  1.00  0.00     0.166 HD
ENDBRANCH   6   7
ENDBRANCH   5   6
BRANCH   5  14
HETATM   14  N           1     -19.757  -3.784  -8.085  0.00  0.00    -0.066 N 
HETATM   15  H           1     -19.646  -2.749  -7.985  0.00  0.00     0.275 HD
HETATM   16  H           1     -18.965  -4.267  -7.603  0.00  0.00     0.275 HD
HETATM   17  H           1     -19.755  -4.038  -9.099  0.00  0.00     0.275 HD
ENDBRANCH   5  14
ENDBRANCH   1   5
BRANCH   3  18
HETATM   18  C           1     -21.112  -6.813  -4.653  0.00  0.00     0.185 C 
BRANCH  18  19
HETATM   19  C           1     -22.259  -6.560  -3.682  0.00  0.00     0.036 C 
BRANCH  19  20
HETATM   20  C           1     -21.701  -6.047  -2.361  0.00  0.00     0.004 C 
BRANCH  20  21
HETATM   21  C           1     -22.300  -6.847  -1.212  0.00  0.00     0.027 C 
BRANCH  21  22
HETATM   22  C           1     -21.382  -8.013  -0.871  0.00  0.00     0.229 C 
BRANCH  22  23
HETATM   23  N           1     -22.035  -9.300  -1.278  0.00  0.00    -0.079 N 
HETATM   24  H           1     -21.841  -9.487  -2.288  0.00  0.00     0.274 HD
HETATM   25  H           1     -21.653 -10.083  -0.700  0.00  0.00     0.274 HD
HETATM   26  H           1     -23.067  -9.229  -1.129  0.00  0.00     0.274 HD
ENDBRANCH  22  23
ENDBRANCH  21  22
ENDBRANCH  20  21
ENDBRANCH  19  20
ENDBRANCH  18  19
BRANCH  18  27
HETATM   27  C           1     -20.989  -8.294  -4.910  0.00  0.00     0.196 C 
HETATM   28  O           1     -20.158  -8.718  -5.742  0.00  0.00    -0.646 OA
HETATM   29  O           1     -21.719  -9.099  -4.291  0.00  0.00    -0.646 OA
ENDBRANCH  18  27
ENDBRANCH   3  18
TORSDOF 11
ENDMDL
MODEL 4
REMARK VINA RESULT:      -6.4      2.740      8.298
REMARK  11 active torsions:
REMARK  status: ('A' for Active; 'I' for Inactive)
REMARK    1  A    between atoms: C_1  and  C_3 
REMARK    2  A    between atoms: C_1  and  C_18 
REMARK    3  A    between atoms: C_3  and  N_4 
REMARK    4  A    between atoms: C_9  and  C_10 
REMARK    5  A    between atoms: C_10  and  C_11 
REMARK    6  A    between atoms: C_11  and  C_12 
REMARK    7  A    between atoms: C_11  and  N_21 
REMARK       I    between atoms: C_12  and  N_17 
REMARK    8  A    between atoms: N_17  and  C_25 
REMARK    9  A    between atoms: C_18  and  C_22 
REMARK   10  A    between atoms: C_22  and  C_25 
REMARK   11  A    between atoms: C_25  and  C_26 
ROOT
HETATM    1  C           1     -20.996  -5.037  -6.476  0.00  0.00     0.249 C 
HETATM    2  O           1     -19.941  -4.634  -6.046  0.00  0.00    -0.271 OA
HETATM    3  N           1     -21.679  -6.017  -5.806  0.00  0.00    -0.345 N 
HETATM    4  H           1     -22.561  -6.355  -6.166  0.00  0.00     0.163 HD
ENDROOT
BRANCH   1   5
HETATM    5  C           1     -21.561  -4.462  -7.752  0.00  0.00     0.280 C 
BRANCH   5   6
HETATM    6  C           1     -20.510  -4.535  -8.851  0.00  0.00     0.101 C 
BRANCH   6   7
HETATM    7  C           1     -21.165  -4.329 -10.182  0.00  0.00     0.028 A 
HETATM    8  C           1     -20.538  -3.810 -11.289  0.00  0.00     0.114 A 
HETATM    9  N           1     -21.494  -3.800 -12.266  0.00  0.00    -0.360 N 
HETATM   10  H           1     -21.370  -3.465 -13.254  0.00  0.00     0.166 HD
HETATM   11  C           1     -22.642  -4.303 -11.723  0.00  0.00     0.180 A 
HETATM   12  N           1     -22.472  -4.631 -10.463  0.00  0.00    -0.355 N 
ATOM     13  HN          1     -23.165  -5.028  -9.828  1.00  0.00     0.166 HD
ENDBRANCH   6   7
ENDBRANCH   5   6
BRANCH   5  14
HETATM   14  N           1     -21.947  -3.030  -7.525  0.00  0.00    -0.066 N 
HETATM   15  H           1     -21.280  -2.592  -6.850  0.00  0.00     0.275 HD
HETATM   16  H           1     -21.915  -2.513  -8.432  0.00  0.00     0.275 HD
HETATM   17  H           1     -22.916  -2.989  -7.135  0.00  0.00     0.275 HD
ENDBRANCH   5  14
ENDBRANCH   1   5
BRANCH   3  18
HETATM   18  C           1     -21.135  -6.571  -4.581  0.00  0.00     0.185 C 
BRANCH  18  19
HETATM   19  C           1     -22.234  -6.652  -3.529  0.00  0.00     0.036 C 
BRANCH  19  20
HETATM   20  C           1     -21.723  -6.078  -2.214  0.00  0.00     0.004 C 
BRANCH  20  21
HETATM   21  C           1     -22.318  -6.861  -1.051  0.00  0.00     0.027 C 
BRANCH  21  22
HETATM   22  C           1     -21.952  -8.332  -1.188  0.00  0.00     0.229 C 
BRANCH  22  23
HETATM   23  N           1     -20.459  -8.481  -1.161  0.00  0.00    -0.079 N 
HETATM   24  H           1     -20.137  -8.934  -2.046  0.00  0.00     0.274 HD
HETATM   25  H           1     -20.017  -7.538  -1.071  0.00  0.00     0.274 HD
HETATM   26  H           1     -20.183  -9.075  -0.346  0.00  0.00     0.274 HD
ENDBRANCH  22  23
ENDBRANCH  21  22
ENDBRANCH  20  21
ENDBRANCH  19  20
ENDBRANCH  18  19
BRANCH  18  27
HETATM   27  C           1     -20.595  -7.953  -4.851  0.00  0.00     0.196 C 
HETATM   28  O           1     -19.708  -8.433  -4.113  0.00  0.00    -0.646 OA
HETATM   29  O           1     -21.034  -8.619  -5.814  0.00  0.00    -0.646 OA
ENDBRANCH  18  27
ENDBRANCH   3  18
TORSDOF 11
ENDMDL
MODEL 5
REMARK VINA RESULT:      -6.0     11.079     13.259
REMARK  11 active torsions:
REMARK  status: ('A' for Active; 'I' for Inactive)
REMARK    1  A    between atoms: C_1  and  C_3 
REMARK    2  A    between atoms: C_1  and  C_18 
REMARK    3  A    between atoms: C_3  and  N_4 
REMARK    4  A    between atoms: C_9  and  C_10 
REMARK    5  A    between atoms: C_10  and  C_11 
REMARK    6  A    between atoms: C_11  and  C_12 
REMARK    7  A    between atoms: C_11  and  N_21 
REMARK       I    between atoms: C_12  and  N_17 
REMARK    8  A    between atoms: N_17  and  C_25 
REMARK    9  A    between atoms: C_18  and  C_22 
REMARK   10  A    between atoms: C_22  and  C_25 
REMARK   11  A    between atoms: C_25  and  C_26 
ROOT
HETATM    1  C           1     -29.836  -6.803 -17.903  0.00  0.00     0.249 C 
HETATM    2  O           1     -29.683  -7.979 -17.669  0.00  0.00    -0.271 OA
HETATM    3  N           1     -28.778  -6.049 -18.336  0.00  0.00    -0.345 N 
HETATM    4  H           1     -28.906  -5.065 -18.532  0.00  0.00     0.163 HD
ENDROOT
BRANCH   1   5
HETATM    5  C           1     -31.191  -6.166 -17.716  0.00  0.00     0.280 C 
BRANCH   5   6
HETATM    6  C           1     -31.117  -5.132 -16.601  0.00  0.00     0.101 C 
BRANCH   6   7
HETATM    7  C           1     -32.396  -4.354 -16.556  0.00  0.00     0.028 A 
HETATM    8  C           1     -32.777  -3.424 -17.493  0.00  0.00     0.114 A 
HETATM    9  N           1     -33.993  -2.967 -17.065  0.00  0.00    -0.360 N 
HETATM   10  H           1     -34.587  -2.242 -17.539  0.00  0.00     0.166 HD
HETATM   11  C           1     -34.294  -3.625 -15.906  0.00  0.00     0.180 A 
HETATM   12  N           1     -33.345  -4.470 -15.575  0.00  0.00    -0.355 N 
ATOM     13  HN          1     -33.320  -5.084 -14.760  1.00  0.00     0.166 HD
ENDBRANCH   6   7
ENDBRANCH   5   6
BRANCH   5  14
HETATM   14  N           1     -32.193  -7.222 -17.353  0.00  0.00    -0.066 N 
HETATM   15  H           1     -32.058  -8.057 -17.968  0.00  0.00     0.275 HD
HETATM   16  H           1     -32.061  -7.499 -16.354  0.00  0.00     0.275 HD
HETATM   17  H           1     -33.159  -6.844 -17.485  0.00  0.00     0.275 HD
ENDBRANCH   5  14
ENDBRANCH   1   5
BRANCH   3  18
HETATM   18  C           1     -27.476  -6.661 -18.515  0.00  0.00     0.185 C 
BRANCH  18  19
HETATM   19  C           1     -26.863  -6.181 -19.824  0.00  0.00     0.036 C 
BRANCH  19  20
HETATM   20  C           1     -26.349  -7.378 -20.614  0.00  0.00     0.004 C 
BRANCH  20  21
HETATM   21  C           1     -24.956  -7.073 -21.148  0.00  0.00     0.027 C 
BRANCH  21  22
HETATM   22  C           1     -23.955  -8.049 -20.545  0.00  0.00     0.229 C 
BRANCH  22  23
HETATM   23  N           1     -23.480  -7.526 -19.222  0.00  0.00    -0.079 N 
HETATM   24  H           1     -23.318  -8.325 -18.568  0.00  0.00     0.274 HD
HETATM   25  H           1     -22.586  -7.000 -19.356  0.00  0.00     0.274 HD
HETATM   26  H           1     -24.203  -6.888 -18.820  0.00  0.00     0.274 HD
ENDBRANCH  22  23
ENDBRANCH  21  22
ENDBRANCH  20  21
ENDBRANCH  19  20
ENDBRANCH  18  19
BRANCH  18  27
HETATM   27  C           1     -26.577  -6.272 -17.367  0.00  0.00     0.196 C 
HETATM   28  O           1     -27.075  -5.907 -16.280  0.00  0.00    -0.646 OA
HETATM   29  O           1     -25.335  -6.314 -17.503  0.00  0.00    -0.646 OA
ENDBRANCH  18  27
ENDBRANCH   3  18
TORSDOF 11
ENDMDL
MODEL 6
REMARK VINA RESULT:      -5.9      3.326      8.258
REMARK  11 active torsions:
REMARK  status: ('A' for Active; 'I' for Inactive)
REMARK    1  A    between atoms: C_1  and  C_3 
REMARK    2  A    between atoms: C_1  and  C_18 
REMARK    3  A    between atoms: C_3  and  N_4 
REMARK    4  A    between atoms: C_9  and  C_10 
REMARK    5  A    between atoms: C_10  and  C_11 
REMARK    6  A    between atoms: C_11  and  C_12 
REMARK    7  A    between atoms: C_11  and  N_21 
REMARK       I    between atoms: C_12  and  N_17 
REMARK    8  A    between atoms: N_17  and  C_25 
REMARK    9  A    between atoms: C_18  and  C_22 
REMARK   10  A    between atoms: C_22  and  C_25 
REMARK   11  A    between atoms: C_25  and  C_26 
ROOT
HETATM    1  C           1     -20.907  -6.963  -5.982  0.00  0.00     0.249 C 
HETATM    2  O           1     -19.838  -6.773  -6.511  0.00  0.00    -0.271 OA
HETATM    3  N           1     -21.043  -7.961  -5.053  0.00  0.00    -0.345 N 
HETATM    4  H           1     -21.938  -8.120  -4.609  0.00  0.00     0.163 HD
ENDROOT
BRANCH   1   5
HETATM    5  C           1     -22.093  -6.102  -6.343  0.00  0.00     0.280 C 
BRANCH   5   6
HETATM    6  C           1     -21.608  -4.718  -6.754  0.00  0.00     0.101 C 
BRANCH   6   7
HETATM    7  C           1     -22.361  -4.266  -7.967  0.00  0.00     0.028 A 
HETATM    8  C           1     -21.791  -4.020  -9.194  0.00  0.00     0.114 A 
HETATM    9  N           1     -22.829  -3.635  -9.996  0.00  0.00    -0.360 N 
HETATM   10  H           1     -22.765  -3.367 -11.010  0.00  0.00     0.166 HD
HETATM   11  C           1     -23.965  -3.661  -9.239  0.00  0.00     0.180 A 
HETATM   12  N           1     -23.712  -4.039  -8.007  0.00  0.00    -0.355 N 
ATOM     13  HN          1     -24.379  -4.142  -7.242  1.00  0.00     0.166 HD
ENDBRANCH   6   7
ENDBRANCH   5   6
BRANCH   5  14
HETATM   14  N           1     -23.001  -5.980  -5.155  0.00  0.00    -0.066 N 
HETATM   15  H           1     -22.497  -6.297  -4.296  0.00  0.00     0.275 HD
HETATM   16  H           1     -23.292  -4.983  -5.040  0.00  0.00     0.275 HD
HETATM   17  H           1     -23.847  -6.575  -5.303  0.00  0.00     0.275 HD
ENDBRANCH   5  14
ENDBRANCH   1   5
BRANCH   3  18
HETATM   18  C           1     -19.904  -8.789  -4.707  0.00  0.00     0.185 C 
BRANCH  18  19
HETATM   19  C           1     -19.749  -8.832  -3.192  0.00  0.00     0.036 C 
BRANCH  19  20
HETATM   20  C           1     -21.114  -8.662  -2.536  0.00  0.00     0.004 C 
BRANCH  20  21
HETATM   21  C           1     -20.973  -7.809  -1.283  0.00  0.00     0.027 C 
BRANCH  21  22
HETATM   22  C           1     -22.271  -7.050  -1.037  0.00  0.00     0.229 C 
BRANCH  22  23
HETATM   23  N           1     -22.297  -5.813  -1.885  0.00  0.00    -0.079 N 
HETATM   24  H           1     -23.251  -5.388  -1.854  0.00  0.00     0.274 HD
HETATM   25  H           1     -21.598  -5.127  -1.521  0.00  0.00     0.274 HD
HETATM   26  H           1     -22.059  -6.063  -2.872  0.00  0.00     0.274 HD
ENDBRANCH  22  23
ENDBRANCH  21  22
ENDBRANCH  20  21
ENDBRANCH  19  20
ENDBRANCH  18  19
BRANCH  18  27
HETATM   27  C           1     -20.124 -10.187  -5.230  0.00  0.00     0.196 C 
HETATM   28  O           1     -20.987 -10.397  -6.108  0.00  0.00    -0.646 OA
HETATM   29  O           1     -19.442 -11.135  -4.784  0.00  0.00    -0.646 OA
ENDBRANCH  18  27
ENDBRANCH   3  18
TORSDOF 11
ENDMDL
MODEL 7
REMARK VINA RESULT:      -5.7      2.892      7.839
REMARK  11 active torsions:
REMARK  status: ('A' for Active; 'I' for Inactive)
REMARK    1  A    between atoms: C_1  and  C_3 
REMARK    2  A    between atoms: C_1  and  C_18 
REMARK    3  A    between atoms: C_3  and  N_4 
REMARK    4  A    between atoms: C_9  and  C_10 
REMARK    5  A    between atoms: C_10  and  C_11 
REMARK    6  A    between atoms: C_11  and  C_12 
REMARK    7  A    between atoms: C_11  and  N_21 
REMARK       I    between atoms: C_12  and  N_17 
REMARK    8  A    between atoms: N_17  and  C_25 
REMARK    9  A    between atoms: C_18  and  C_22 
REMARK   10  A    between atoms: C_22  and  C_25 
REMARK   11  A    between atoms: C_25  and  C_26 
ROOT
HETATM    1  C           1     -22.010  -5.593  -5.883  0.00  0.00     0.249 C 
HETATM    2  O           1     -23.207  -5.707  -5.765  0.00  0.00    -0.271 OA
HETATM    3  N           1     -21.171  -6.379  -5.137  0.00  0.00    -0.345 N 
HETATM    4  H           1     -20.169  -6.284  -5.235  0.00  0.00     0.163 HD
ENDROOT
BRANCH   1   5
HETATM    5  C           1     -21.438  -4.587  -6.851  0.00  0.00     0.280 C 
BRANCH   5   6
HETATM    6  C           1     -21.571  -5.116  -8.272  0.00  0.00     0.101 C 
BRANCH   6   7
HETATM    7  C           1     -22.659  -4.373  -8.982  0.00  0.00     0.028 A 
HETATM    8  C           1     -22.616  -3.999 -10.305  0.00  0.00     0.114 A 
HETATM    9  N           1     -23.800  -3.354 -10.529  0.00  0.00    -0.360 N 
HETATM   10  H           1     -24.114  -2.929 -11.438  0.00  0.00     0.166 HD
HETATM   11  C           1     -24.500  -3.360  -9.357  0.00  0.00     0.180 A 
HETATM   12  N           1     -23.834  -3.969  -8.404  0.00  0.00    -0.355 N 
ATOM     13  HN          1     -24.128  -4.113  -7.437  1.00  0.00     0.166 HD
ENDBRANCH   6   7
ENDBRANCH   5   6
BRANCH   5  14
HETATM   14  N           1     -19.989  -4.359  -6.536  0.00  0.00    -0.066 N 
HETATM   15  H           1     -19.901  -3.956  -5.575  0.00  0.00     0.275 HD
HETATM   16  H           1     -19.476  -5.267  -6.582  0.00  0.00     0.275 HD
HETATM   17  H           1     -19.583  -3.693  -7.232  0.00  0.00     0.275 HD
ENDBRANCH   5  14
ENDBRANCH   1   5
BRANCH   3  18
HETATM   18  C           1     -21.721  -7.345  -4.206  0.00  0.00     0.185 C 
BRANCH  18  19
HETATM   19  C           1     -20.925  -8.642  -4.291  0.00  0.00     0.036 C 
BRANCH  19  20
HETATM   20  C           1     -19.665  -8.411  -5.115  0.00  0.00     0.004 C 
BRANCH  20  21
HETATM   21  C           1     -18.656  -9.513  -4.820  0.00  0.00     0.027 C 
BRANCH  21  22
HETATM   22  C           1     -19.298 -10.871  -5.069  0.00  0.00     0.229 C 
BRANCH  22  23
HETATM   23  N           1     -18.232 -11.924  -5.138  0.00  0.00    -0.079 N 
HETATM   24  H           1     -18.438 -12.676  -4.443  0.00  0.00     0.274 HD
HETATM   25  H           1     -18.210 -12.334  -6.100  0.00  0.00     0.274 HD
HETATM   26  H           1     -17.304 -11.494  -4.921  0.00  0.00     0.274 HD
ENDBRANCH  22  23
ENDBRANCH  21  22
ENDBRANCH  20  21
ENDBRANCH  19  20
ENDBRANCH  18  19
BRANCH  18  27
HETATM   27  C           1     -21.638  -6.795  -2.804  0.00  0.00     0.196 C 
HETATM   28  O           1     -22.426  -5.898  -2.437  0.00  0.00    -0.646 OA
HETATM   29  O           1     -20.779  -7.236  -2.009  0.00  0.00    -0.646 OA
ENDBRANCH  18  27
ENDBRANCH   3  18
TORSDOF 11
ENDMDL
MODEL 8
REMARK VINA RESULT:      -5.6      3.000      8.320
REMARK  11 active torsions:
REMARK  status: ('A' for Active; 'I' for Inactive)
REMARK    1  A    between atoms: C_1  and  C_3 
REMARK    2  A    between atoms: C_1  and  C_18 
REMARK    3  A    between atoms: C_3  and  N_4 
REMARK    4  A    between atoms: C_9  and  C_10 
REMARK    5  A    between atoms: C_10  and  C_11 
REMARK    6  A    between atoms: C_11  and  C_12 
REMARK    7  A    between atoms: C_11  and  N_21 
REMARK       I    between atoms: C_12  and  N_17 
REMARK    8  A    between atoms: N_17  and  C_25 
REMARK    9  A    between atoms: C_18  and  C_22 
REMARK   10  A    between atoms: C_22  and  C_25 
REMARK   11  A    between atoms: C_25  and  C_26 
ROOT
HETATM    1  C           1     -21.836  -5.823  -5.508  0.00  0.00     0.249 C 
HETATM    2  O           1     -23.030  -6.000  -5.470  0.00  0.00    -0.271 OA
HETATM    3  N           1     -21.011  -6.539  -4.681  0.00  0.00    -0.345 N 
HETATM    4  H           1     -20.011  -6.391  -4.712  0.00  0.00     0.163 HD
ENDROOT
BRANCH   1   5
HETATM    5  C           1     -21.252  -4.812  -6.465  0.00  0.00     0.280 C 
BRANCH   5   6
HETATM    6  C           1     -21.339  -5.350  -7.887  0.00  0.00     0.101 C 
BRANCH   6   7
HETATM    7  C           1     -22.358  -4.568  -8.655  0.00  0.00     0.028 A 
HETATM    8  C           1     -22.221  -4.182  -9.967  0.00  0.00     0.114 A 
HETATM    9  N           1     -23.370  -3.499 -10.257  0.00  0.00    -0.360 N 
HETATM   10  H           1     -23.613  -3.056 -11.179  0.00  0.00     0.166 HD
HETATM   11  C           1     -24.143  -3.498  -9.132  0.00  0.00     0.180 A 
HETATM   12  N           1     -23.556  -4.137  -8.146  0.00  0.00    -0.355 N 
ATOM     13  HN          1     -23.915  -4.283  -7.202  1.00  0.00     0.166 HD
ENDBRANCH   6   7
ENDBRANCH   5   6
BRANCH   5  14
HETATM   14  N           1     -19.815  -4.563  -6.112  0.00  0.00    -0.066 N 
HETATM   15  H           1     -19.210  -5.256  -6.608  0.00  0.00     0.275 HD
HETATM   16  H           1     -19.548  -3.596  -6.403  0.00  0.00     0.275 HD
HETATM   17  H           1     -19.688  -4.665  -5.080  0.00  0.00     0.275 HD
ENDBRANCH   5  14
ENDBRANCH   1   5
BRANCH   3  18
HETATM   18  C           1     -21.573  -7.509  -3.761  0.00  0.00     0.185 C 
BRANCH  18  19
HETATM   19  C           1     -20.710  -8.765  -3.758  0.00  0.00     0.036 C 
BRANCH  19  20
HETATM   20  C           1     -21.534  -9.948  -4.248  0.00  0.00     0.004 C 
BRANCH  20  21
HETATM   21  C           1     -22.324 -10.534  -3.086  0.00  0.00     0.027 C 
BRANCH  21  22
HETATM   22  C           1     -21.379 -11.278  -2.152  0.00  0.00     0.229 C 
BRANCH  22  23
HETATM   23  N           1     -20.622 -12.315  -2.927  0.00  0.00    -0.079 N 
HETATM   24  H           1     -19.913 -12.768  -2.307  0.00  0.00     0.274 HD
HETATM   25  H           1     -21.287 -13.039  -3.283  0.00  0.00     0.274 HD
HETATM   26  H           1     -20.137 -11.861  -3.734  0.00  0.00     0.274 HD
ENDBRANCH  22  23
ENDBRANCH  21  22
ENDBRANCH  20  21
ENDBRANCH  19  20
ENDBRANCH  18  19
BRANCH  18  27
HETATM   27  C           1     -21.609  -6.920  -2.372  0.00  0.00     0.196 C 
HETATM   28  O           1     -21.041  -7.511  -1.428  0.00  0.00    -0.646 OA
HETATM   29  O           1     -22.206  -5.842  -2.166  0.00  0.00    -0.646 OA
ENDBRANCH  18  27
ENDBRANCH   3  18
TORSDOF 11
ENDMDL
MODEL 9
REMARK VINA RESULT:      -5.5      2.781      4.227
REMARK  11 active torsions:
REMARK  status: ('A' for Active; 'I' for Inactive)
REMARK    1  A    between atoms: C_1  and  C_3 
REMARK    2  A    between atoms: C_1  and  C_18 
REMARK    3  A    between atoms: C_3  and  N_4 
REMARK    4  A    between atoms: C_9  and  C_10 
REMARK    5  A    between atoms: C_10  and  C_11 
REMARK    6  A    between atoms: C_11  and  C_12 
REMARK    7  A    between atoms: C_11  and  N_21 
REMARK       I    between atoms: C_12  and  N_17 
REMARK    8  A    between atoms: N_17  and  C_25 
REMARK    9  A    between atoms: C_18  and  C_22 
REMARK   10  A    between atoms: C_22  and  C_25 
REMARK   11  A    between atoms: C_25  and  C_26 
ROOT
HETATM    1  C           1     -21.367  -7.288  -5.357  0.00  0.00     0.249 C 
HETATM    2  O           1     -20.726  -7.953  -6.135  0.00  0.00    -0.271 OA
HETATM    3  N           1     -21.726  -6.007  -5.685  0.00  0.00    -0.345 N 
HETATM    4  H           1     -22.262  -5.449  -5.033  0.00  0.00     0.163 HD
ENDROOT
BRANCH   1   5
HETATM    5  C           1     -21.771  -7.866  -4.022  0.00  0.00     0.280 C 
BRANCH   5   6
HETATM    6  C           1     -20.794  -7.400  -2.950  0.00  0.00     0.101 C 
BRANCH   6   7
HETATM    7  C           1     -21.364  -7.691  -1.597  0.00  0.00     0.028 A 
HETATM    8  C           1     -22.376  -6.973  -1.005  0.00  0.00     0.114 A 
HETATM    9  N           1     -22.576  -7.575   0.207  0.00  0.00    -0.360 N 
HETATM   10  H           1     -23.279  -7.291   0.934  0.00  0.00     0.166 HD
HETATM   11  C           1     -21.693  -8.613   0.300  0.00  0.00     0.180 A 
HETATM   12  N           1     -20.947  -8.707  -0.777  0.00  0.00    -0.355 N 
ATOM     13  HN          1     -20.213  -9.390  -0.963  1.00  0.00     0.166 HD
ENDBRANCH   6   7
ENDBRANCH   5   6
BRANCH   5  14
HETATM   14  N           1     -21.750  -9.364  -4.100  0.00  0.00    -0.066 N 
HETATM   15  H           1     -20.799  -9.684  -4.395  0.00  0.00     0.275 HD
HETATM   16  H           1     -21.978  -9.765  -3.163  0.00  0.00     0.275 HD
HETATM   17  H           1     -22.457  -9.685  -4.799  0.00  0.00     0.275 HD
ENDBRANCH   5  14
ENDBRANCH   1   5
BRANCH   3  18
HETATM   18  C           1     -21.337  -5.452  -6.967  0.00  0.00     0.185 C 
BRANCH  18  19
HETATM   19  C           1     -22.364  -4.416  -7.404  0.00  0.00     0.036 C 
BRANCH  19  20
HETATM   20  C           1     -22.271  -4.211  -8.911  0.00  0.00     0.004 C 
BRANCH  20  21
HETATM   21  C           1     -23.644  -4.411  -9.538  0.00  0.00     0.027 C 
BRANCH  21  22
HETATM   22  C           1     -23.667  -3.779 -10.923  0.00  0.00     0.229 C 
BRANCH  22  23
HETATM   23  N           1     -23.461  -4.842 -11.962  0.00  0.00    -0.079 N 
HETATM   24  H           1     -23.015  -4.422 -12.808  0.00  0.00     0.274 HD
HETATM   25  H           1     -22.842  -5.590 -11.576  0.00  0.00     0.274 HD
HETATM   26  H           1     -24.385  -5.255 -12.224  0.00  0.00     0.274 HD
ENDBRANCH  22  23
ENDBRANCH  21  22
ENDBRANCH  20  21
ENDBRANCH  19  20
ENDBRANCH  18  19
BRANCH  18  27
HETATM   27  C           1     -19.985  -4.795  -6.839  0.00  0.00     0.196 C 
HETATM   28  O           1     -19.268  -4.637  -7.851  0.00  0.00    -0.646 OA
HETATM   29  O           1     -19.580  -4.410  -5.720  0.00  0.00    -0.646 OA
ENDBRANCH  18  27
ENDBRANCH   3  18
TORSDOF 11
ENDMDL
