MODEL 1
REMARK VINA RESULT:      -7.1      0.000      0.000
REMARK  12 active torsions:
REMARK  status: ('A' for Active; 'I' for Inactive)
REMARK       I    between atoms: N_1  and  C_2 
REMARK    1  A    between atoms: C_2  and  C_20 
REMARK    2  A    between atoms: C_5  and  C_18 
REMARK    3  A    between atoms: N_11  and  C_23 
REMARK    4  A    between atoms: N_13  and  C_18 
REMARK       I    between atoms: N_13  and  C_17 
REMARK    5  A    between atoms: N_15  and  C_28 
REMARK    6  A    between atoms: C_17  and  C_23 
REMARK    7  A    between atoms: C_18  and  C_19 
REMARK    8  A    between atoms: C_19  and  C_20 
REMARK    9  A    between atoms: C_23  and  C_25 
REMARK   10  A    between atoms: C_25  and  C_26 
REMARK   11  A    between atoms: C_26  and  C_27 
REMARK   12  A    between atoms: C_27  and  C_28 
ROOT
HETATM    1  O           1     -33.792  -1.824 -11.495  0.00  0.00    -0.271 OA
HETATM    2  N           1     -35.542  -1.812 -12.882  0.00  0.00    -0.345 N 
HETATM    3  H           1     -36.139  -2.331 -13.513  0.00  0.00     0.163 HD
HETATM    4  C           1     -34.504  -2.442 -12.249  0.00  0.00     0.249 C 
ENDROOT
BRANCH   4   5
HETATM    5  C           1     -34.252  -3.910 -12.492  0.00  0.00     0.274 C 
BRANCH   5   6
HETATM    6  N           1     -33.660  -4.095 -13.858  0.00  0.00    -0.067 N 
HETATM    7  H           1     -34.075  -3.396 -14.515  0.00  0.00     0.275 HD
HETATM    8  H           1     -32.626  -3.957 -13.810  0.00  0.00     0.275 HD
HETATM    9  H           1     -33.867  -5.060 -14.200  0.00  0.00     0.275 HD
ENDBRANCH   5   6
BRANCH   5  10
HETATM   10  C           1     -33.282  -4.440 -11.444  0.00  0.00     0.042 C 
BRANCH  10  11
HETATM   11  C           1     -34.047  -5.253 -10.408  0.00  0.00     0.004 C 
BRANCH  11  12
HETATM   12  C           1     -34.561  -6.536 -11.048  0.00  0.00     0.027 C 
BRANCH  12  13
HETATM   13  C           1     -34.636  -7.634  -9.997  0.00  0.00     0.229 C 
BRANCH  13  14
HETATM   14  N           1     -33.600  -8.679 -10.289  0.00  0.00    -0.079 N 
HETATM   15  H           1     -32.842  -8.263 -10.876  0.00  0.00     0.274 HD
HETATM   16  H           1     -33.194  -9.028  -9.393  0.00  0.00     0.274 HD
HETATM   17  H           1     -34.043  -9.474 -10.804  0.00  0.00     0.274 HD
ENDBRANCH  13  14
ENDBRANCH  12  13
ENDBRANCH  11  12
ENDBRANCH  10  11
ENDBRANCH   5  10
ENDBRANCH   4   5
BRANCH   2  18
HETATM   18  C           1     -35.784  -0.402 -12.648  0.00  0.00     0.186 C 
BRANCH  18  19
HETATM   19  C           1     -36.756  -0.243 -11.504  0.00  0.00     0.196 C 
HETATM   20  O           1     -36.435   0.431 -10.502  0.00  0.00    -0.646 OA
HETATM   21  O           1     -37.882  -0.784 -11.559  0.00  0.00    -0.646 OA
ENDBRANCH  18  19
BRANCH  18  22
HETATM   22  C           1     -36.372   0.226 -13.905  0.00  0.00     0.045 C 
BRANCH  22  23
HETATM   23  C           1     -35.311   0.261 -14.999  0.00  0.00     0.105 C 
BRANCH  23  24
HETATM   24  C           1     -35.564  -0.855 -15.981  0.00  0.00     0.215 C 
HETATM   25  N           1     -36.355  -0.637 -17.077  0.00  0.00    -0.370 N 
HETATM   26  H           1     -36.770   0.274 -17.228  0.00  0.00     0.159 HD
HETATM   27  H           1     -36.524  -1.385 -17.736  0.00  0.00     0.159 HD
HETATM   28  O           1     -35.068  -1.942 -15.802  0.00  0.00    -0.274 OA
ENDBRANCH  23  24
ENDBRANCH  22  23
ENDBRANCH  18  22
ENDBRANCH   2  18
TORSDOF 12
ENDMDL
MODEL 2
REMARK VINA RESULT:      -6.7     12.029     13.746
REMARK  12 active torsions:
REMARK  status: ('A' for Active; 'I' for Inactive)
REMARK       I    between atoms: N_1  and  C_2 
REMARK    1  A    between atoms: C_2  and  C_20 
REMARK    2  A    between atoms: C_5  and  C_18 
REMARK    3  A    between atoms: N_11  and  C_23 
REMARK    4  A    between atoms: N_13  and  C_18 
REMARK       I    between atoms: N_13  and  C_17 
REMARK    5  A    between atoms: N_15  and  C_28 
REMARK    6  A    between atoms: C_17  and  C_23 
REMARK    7  A    between atoms: C_18  and  C_19 
REMARK    8  A    between atoms: C_19  and  C_20 
REMARK    9  A    between atoms: C_23  and  C_25 
REMARK   10  A    between atoms: C_25  and  C_26 
REMARK   11  A    between atoms: C_26  and  C_27 
REMARK   12  A    between atoms: C_27  and  C_28 
ROOT
HETATM    1  O           1     -21.657  -3.588  -7.391  0.00  0.00    -0.271 OA
HETATM    2  N           1     -22.229  -4.927  -9.083  0.00  0.00    -0.345 N 
HETATM    3  H           1     -22.258  -5.866  -9.461  0.00  0.00     0.163 HD
HETATM    4  C           1     -21.692  -4.706  -7.843  0.00  0.00     0.249 C 
ENDROOT
BRANCH   4   5
HETATM    5  C           1     -21.145  -5.862  -7.041  0.00  0.00     0.274 C 
BRANCH   5   6
HETATM    6  N           1     -19.727  -6.128  -7.452  0.00  0.00    -0.067 N 
HETATM    7  H           1     -19.115  -6.137  -6.606  0.00  0.00     0.275 HD
HETATM    8  H           1     -19.673  -7.055  -7.931  0.00  0.00     0.275 HD
HETATM    9  H           1     -19.408  -5.379  -8.106  0.00  0.00     0.275 HD
ENDBRANCH   5   6
BRANCH   5  10
HETATM   10  C           1     -21.186  -5.515  -5.558  0.00  0.00     0.042 C 
BRANCH  10  11
HETATM   11  C           1     -22.232  -6.375  -4.862  0.00  0.00     0.004 C 
BRANCH  11  12
HETATM   12  C           1     -21.539  -7.400  -3.974  0.00  0.00     0.027 C 
BRANCH  12  13
HETATM   13  C           1     -21.265  -6.787  -2.608  0.00  0.00     0.229 C 
BRANCH  13  14
HETATM   14  N           1     -22.430  -5.937  -2.198  0.00  0.00    -0.079 N 
HETATM   15  H           1     -22.126  -4.940  -2.122  0.00  0.00     0.274 HD
HETATM   16  H           1     -23.188  -6.016  -2.913  0.00  0.00     0.274 HD
HETATM   17  H           1     -22.791  -6.263  -1.272  0.00  0.00     0.274 HD
ENDBRANCH  13  14
ENDBRANCH  12  13
ENDBRANCH  11  12
ENDBRANCH  10  11
ENDBRANCH   5  10
ENDBRANCH   4   5
BRANCH   2  18
HETATM   18  C           1     -22.755  -3.818  -9.853  0.00  0.00     0.186 C 
BRANCH  18  19
HETATM   19  C           1     -24.263  -3.830  -9.787  0.00  0.00     0.196 C 
HETATM   20  O           1     -24.886  -2.770  -9.566  0.00  0.00    -0.646 OA
HETATM   21  O           1     -24.887  -4.901  -9.954  0.00  0.00    -0.646 OA
ENDBRANCH  18  19
BRANCH  18  22
HETATM   22  C           1     -22.308  -3.951 -11.303  0.00  0.00     0.045 C 
BRANCH  22  23
HETATM   23  C           1     -22.457  -2.608 -12.007  0.00  0.00     0.105 C 
BRANCH  23  24
HETATM   24  C           1     -23.254  -2.788 -13.274  0.00  0.00     0.215 C 
HETATM   25  N           1     -22.612  -3.029 -14.459  0.00  0.00    -0.370 N 
HETATM   26  H           1     -21.602  -3.086 -14.484  0.00  0.00     0.159 HD
HETATM   27  H           1     -23.147  -3.150 -15.309  0.00  0.00     0.159 HD
HETATM   28  O           1     -24.460  -2.720 -13.244  0.00  0.00    -0.274 OA
ENDBRANCH  23  24
ENDBRANCH  22  23
ENDBRANCH  18  22
ENDBRANCH   2  18
TORSDOF 12
ENDMDL
MODEL 3
REMARK VINA RESULT:      -6.3      2.180      7.001
REMARK  12 active torsions:
REMARK  status: ('A' for Active; 'I' for Inactive)
REMARK       I    between atoms: N_1  and  C_2 
REMARK    1  A    between atoms: C_2  and  C_20 
REMARK    2  A    between atoms: C_5  and  C_18 
REMARK    3  A    between atoms: N_11  and  C_23 
REMARK    4  A    between atoms: N_13  and  C_18 
REMARK       I    between atoms: N_13  and  C_17 
REMARK    5  A    between atoms: N_15  and  C_28 
REMARK    6  A    between atoms: C_17  and  C_23 
REMARK    7  A    between atoms: C_18  and  C_19 
REMARK    8  A    between atoms: C_19  and  C_20 
REMARK    9  A    between atoms: C_23  and  C_25 
REMARK   10  A    between atoms: C_25  and  C_26 
REMARK   11  A    between atoms: C_26  and  C_27 
REMARK   12  A    between atoms: C_27  and  C_28 
ROOT
HETATM    1  O           1     -34.467  -1.414 -10.099  0.00  0.00    -0.271 OA
HETATM    2  N           1     -35.357  -2.974 -11.426  0.00  0.00    -0.345 N 
HETATM    3  H           1     -36.098  -3.235 -12.064  0.00  0.00     0.163 HD
HETATM    4  C           1     -35.351  -1.727 -10.860  0.00  0.00     0.249 C 
ENDROOT
BRANCH   4   5
HETATM    5  C           1     -36.449  -0.744 -11.186  0.00  0.00     0.274 C 
BRANCH   5   6
HETATM    6  N           1     -36.331   0.452 -10.289  0.00  0.00    -0.067 N 
HETATM    7  H           1     -36.567   0.176  -9.309  0.00  0.00     0.275 HD
HETATM    8  H           1     -35.352   0.816 -10.322  0.00  0.00     0.275 HD
HETATM    9  H           1     -36.991   1.195 -10.611  0.00  0.00     0.275 HD
ENDBRANCH   5   6
BRANCH   5  10
HETATM   10  C           1     -36.321  -0.303 -12.638  0.00  0.00     0.042 C 
BRANCH  10  11
HETATM   11  C           1     -34.969   0.364 -12.850  0.00  0.00     0.004 C 
BRANCH  11  12
HETATM   12  C           1     -34.976   1.118 -14.173  0.00  0.00     0.027 C 
BRANCH  12  13
HETATM   13  C           1     -35.793   0.342 -15.197  0.00  0.00     0.229 C 
BRANCH  13  14
HETATM   14  N           1     -36.731   1.276 -15.902  0.00  0.00    -0.079 N 
HETATM   15  H           1     -36.218   1.776 -16.663  0.00  0.00     0.274 HD
HETATM   16  H           1     -37.521   0.731 -16.314  0.00  0.00     0.274 HD
HETATM   17  H           1     -37.107   1.972 -15.219  0.00  0.00     0.274 HD
ENDBRANCH  13  14
ENDBRANCH  12  13
ENDBRANCH  11  12
ENDBRANCH  10  11
ENDBRANCH   5  10
ENDBRANCH   4   5
BRANCH   2  18
HETATM   18  C           1     -34.302  -3.917 -11.113  0.00  0.00     0.186 C 
BRANCH  18  19
HETATM   19  C           1     -33.315  -3.963 -12.254  0.00  0.00     0.196 C 
HETATM   20  O           1     -33.718  -3.876 -13.433  0.00  0.00    -0.646 OA
HETATM   21  O           1     -32.093  -4.087 -12.018  0.00  0.00    -0.646 OA
ENDBRANCH  18  19
BRANCH  18  22
HETATM   22  C           1     -34.906  -5.301 -10.906  0.00  0.00     0.045 C 
BRANCH  22  23
HETATM   23  C           1     -33.790  -6.336 -10.836  0.00  0.00     0.105 C 
BRANCH  23  24
HETATM   24  C           1     -34.310  -7.595 -10.188  0.00  0.00     0.215 C 
HETATM   25  N           1     -33.611  -8.766 -10.307  0.00  0.00    -0.370 N 
HETATM   26  H           1     -32.745  -8.787 -10.830  0.00  0.00     0.159 HD
HETATM   27  H           1     -33.960  -9.610  -9.873  0.00  0.00     0.159 HD
HETATM   28  O           1     -35.344  -7.570  -9.564  0.00  0.00    -0.274 OA
ENDBRANCH  23  24
ENDBRANCH  22  23
ENDBRANCH  18  22
ENDBRANCH   2  18
TORSDOF 12
ENDMDL
MODEL 4
REMARK VINA RESULT:      -6.1     14.264     17.164
REMARK  12 active torsions:
REMARK  status: ('A' for Active; 'I' for Inactive)
REMARK       I    between atoms: N_1  and  C_2 
REMARK    1  A    between atoms: C_2  and  C_20 
REMARK    2  A    between atoms: C_5  and  C_18 
REMARK    3  A    between atoms: N_11  and  C_23 
REMARK    4  A    between atoms: N_13  and  C_18 
REMARK       I    between atoms: N_13  and  C_17 
REMARK    5  A    between atoms: N_15  and  C_28 
REMARK    6  A    between atoms: C_17  and  C_23 
REMARK    7  A    between atoms: C_18  and  C_19 
REMARK    8  A    between atoms: C_19  and  C_20 
REMARK    9  A    between atoms: C_23  and  C_25 
REMARK   10  A    between atoms: C_25  and  C_26 
REMARK   11  A    between atoms: C_26  and  C_27 
REMARK   12  A    between atoms: C_27  and  C_28 
ROOT
HETATM    1  O           1     -20.281  -4.378  -6.079  0.00  0.00    -0.271 OA
HETATM    2  N           1     -21.220  -6.391  -6.301  0.00  0.00    -0.345 N 
HETATM    3  H           1     -21.757  -7.028  -6.877  0.00  0.00     0.163 HD
HETATM    4  C           1     -20.922  -5.138  -6.764  0.00  0.00     0.249 C 
ENDROOT
BRANCH   4   5
HETATM    5  C           1     -21.395  -4.706  -8.131  0.00  0.00     0.274 C 
BRANCH   5   6
HETATM    6  N           1     -22.460  -3.660  -7.983  0.00  0.00    -0.067 N 
HETATM    7  H           1     -23.191  -3.801  -8.717  0.00  0.00     0.275 HD
HETATM    8  H           1     -22.896  -3.740  -7.038  0.00  0.00     0.275 HD
HETATM    9  H           1     -22.035  -2.713  -8.093  0.00  0.00     0.275 HD
ENDBRANCH   5   6
BRANCH   5  10
HETATM   10  C           1     -20.223  -4.128  -8.915  0.00  0.00     0.042 C 
BRANCH  10  11
HETATM   11  C           1     -20.327  -4.553 -10.373  0.00  0.00     0.004 C 
BRANCH  11  12
HETATM   12  C           1     -20.652  -3.339 -11.234  0.00  0.00     0.027 C 
BRANCH  12  13
HETATM   13  C           1     -22.086  -3.442 -11.736  0.00  0.00     0.229 C 
BRANCH  13  14
HETATM   14  N           1     -22.095  -3.398 -13.235  0.00  0.00    -0.079 N 
HETATM   15  H           1     -22.454  -4.306 -13.609  0.00  0.00     0.274 HD
HETATM   16  H           1     -22.714  -2.621 -13.558  0.00  0.00     0.274 HD
HETATM   17  H           1     -21.123  -3.237 -13.585  0.00  0.00     0.274 HD
ENDBRANCH  13  14
ENDBRANCH  12  13
ENDBRANCH  11  12
ENDBRANCH  10  11
ENDBRANCH   5  10
ENDBRANCH   4   5
BRANCH   2  18
HETATM   18  C           1     -20.766  -6.806  -4.989  0.00  0.00     0.186 C 
BRANCH  18  19
HETATM   19  C           1     -20.109  -8.162  -5.090  0.00  0.00     0.196 C 
HETATM   20  O           1     -20.416  -9.065  -4.284  0.00  0.00    -0.646 OA
HETATM   21  O           1     -19.259  -8.379  -5.981  0.00  0.00    -0.646 OA
ENDBRANCH  18  19
BRANCH  18  22
HETATM   22  C           1     -21.958  -6.888  -4.043  0.00  0.00     0.045 C 
BRANCH  22  23
HETATM   23  C           1     -21.624  -6.168  -2.743  0.00  0.00     0.105 C 
BRANCH  23  24
HETATM   24  C           1     -21.916  -7.076  -1.575  0.00  0.00     0.215 C 
HETATM   25  N           1     -21.317  -8.305  -1.496  0.00  0.00    -0.370 N 
HETATM   26  H           1     -20.678  -8.603  -2.222  0.00  0.00     0.159 HD
HETATM   27  H           1     -21.513  -8.914  -0.712  0.00  0.00     0.159 HD
HETATM   28  O           1     -22.678  -6.720  -0.708  0.00  0.00    -0.274 OA
ENDBRANCH  23  24
ENDBRANCH  22  23
ENDBRANCH  18  22
ENDBRANCH   2  18
TORSDOF 12
ENDMDL
MODEL 5
REMARK VINA RESULT:      -5.8     13.719     16.763
REMARK  12 active torsions:
REMARK  status: ('A' for Active; 'I' for Inactive)
REMARK       I    between atoms: N_1  and  C_2 
REMARK    1  A    between atoms: C_2  and  C_20 
REMARK    2  A    between atoms: C_5  and  C_18 
REMARK    3  A    between atoms: N_11  and  C_23 
REMARK    4  A    between atoms: N_13  and  C_18 
REMARK       I    between atoms: N_13  and  C_17 
REMARK    5  A    between atoms: N_15  and  C_28 
REMARK    6  A    between atoms: C_17  and  C_23 
REMARK    7  A    between atoms: C_18  and  C_19 
REMARK    8  A    between atoms: C_19  and  C_20 
REMARK    9  A    between atoms: C_23  and  C_25 
REMARK   10  A    between atoms: C_25  and  C_26 
REMARK   11  A    between atoms: C_26  and  C_27 
REMARK   12  A    between atoms: C_27  and  C_28 
ROOT
HETATM    1  O           1     -19.598  -4.490  -5.578  0.00  0.00    -0.271 OA
HETATM    2  N           1     -21.475  -5.687  -5.738  0.00  0.00    -0.345 N 
HETATM    3  H           1     -22.345  -5.856  -6.228  0.00  0.00     0.163 HD
HETATM    4  C           1     -20.635  -4.692  -6.161  0.00  0.00     0.249 C 
ENDROOT
BRANCH   4   5
HETATM    5  C           1     -21.005  -3.850  -7.358  0.00  0.00     0.274 C 
BRANCH   5   6
HETATM    6  N           1     -19.880  -3.870  -8.349  0.00  0.00    -0.067 N 
HETATM    7  H           1     -20.151  -3.321  -9.196  0.00  0.00     0.275 HD
HETATM    8  H           1     -19.028  -3.446  -7.917  0.00  0.00     0.275 HD
HETATM    9  H           1     -19.677  -4.857  -8.625  0.00  0.00     0.275 HD
ENDBRANCH   5   6
BRANCH   5  10
HETATM   10  C           1     -22.263  -4.413  -8.006  0.00  0.00     0.042 C 
BRANCH  10  11
HETATM   11  C           1     -22.200  -4.195  -9.512  0.00  0.00     0.004 C 
BRANCH  11  12
HETATM   12  C           1     -23.477  -4.721 -10.155  0.00  0.00     0.027 C 
BRANCH  12  13
HETATM   13  C           1     -24.362  -3.550 -10.560  0.00  0.00     0.229 C 
BRANCH  13  14
HETATM   14  N           1     -25.583  -3.521  -9.690  0.00  0.00    -0.079 N 
HETATM   15  H           1     -25.956  -4.490  -9.579  0.00  0.00     0.274 HD
HETATM   16  H           1     -25.333  -3.134  -8.752  0.00  0.00     0.274 HD
HETATM   17  H           1     -26.312  -2.915 -10.132  0.00  0.00     0.274 HD
ENDBRANCH  13  14
ENDBRANCH  12  13
ENDBRANCH  11  12
ENDBRANCH  10  11
ENDBRANCH   5  10
ENDBRANCH   4   5
BRANCH   2  18
HETATM   18  C           1     -21.120  -6.496  -4.589  0.00  0.00     0.186 C 
BRANCH  18  19
HETATM   19  C           1     -20.713  -7.874  -5.052  0.00  0.00     0.196 C 
HETATM   20  O           1     -21.160  -8.329  -6.126  0.00  0.00    -0.646 OA
HETATM   21  O           1     -19.926  -8.558  -4.362  0.00  0.00    -0.646 OA
ENDBRANCH  18  19
BRANCH  18  22
HETATM   22  C           1     -22.321  -6.607  -3.658  0.00  0.00     0.045 C 
BRANCH  22  23
HETATM   23  C           1     -21.920  -6.159  -2.258  0.00  0.00     0.105 C 
BRANCH  23  24
HETATM   24  C           1     -22.001  -7.330  -1.311  0.00  0.00     0.215 C 
HETATM   25  N           1     -21.645  -8.581  -1.737  0.00  0.00    -0.370 N 
HETATM   26  H           1     -21.326  -8.720  -2.687  0.00  0.00     0.159 HD
HETATM   27  H           1     -21.699  -9.366  -1.101  0.00  0.00     0.159 HD
HETATM   28  O           1     -22.381  -7.164  -0.176  0.00  0.00    -0.274 OA
ENDBRANCH  23  24
ENDBRANCH  22  23
ENDBRANCH  18  22
ENDBRANCH   2  18
TORSDOF 12
ENDMDL
MODEL 6
REMARK VINA RESULT:      -5.6     13.133     15.162
REMARK  12 active torsions:
REMARK  status: ('A' for Active; 'I' for Inactive)
REMARK       I    between atoms: N_1  and  C_2 
REMARK    1  A    between atoms: C_2  and  C_20 
REMARK    2  A    between atoms: C_5  and  C_18 
REMARK    3  A    between atoms: N_11  and  C_23 
REMARK    4  A    between atoms: N_13  and  C_18 
REMARK       I    between atoms: N_13  and  C_17 
REMARK    5  A    between atoms: N_15  and  C_28 
REMARK    6  A    between atoms: C_17  and  C_23 
REMARK    7  A    between atoms: C_18  and  C_19 
REMARK    8  A    between atoms: C_19  and  C_20 
REMARK    9  A    between atoms: C_23  and  C_25 
REMARK   10  A    between atoms: C_25  and  C_26 
REMARK   11  A    between atoms: C_26  and  C_27 
REMARK   12  A    between atoms: C_27  and  C_28 
ROOT
HETATM    1  O           1     -20.901  -7.037  -6.906  0.00  0.00    -0.271 OA
HETATM    2  N           1     -21.782  -4.986  -6.912  0.00  0.00    -0.345 N 
HETATM    3  H           1     -22.134  -4.203  -6.375  0.00  0.00     0.163 HD
HETATM    4  C           1     -21.322  -6.103  -6.268  0.00  0.00     0.249 C 
ENDROOT
BRANCH   4   5
HETATM    5  C           1     -21.339  -6.166  -4.760  0.00  0.00     0.274 C 
BRANCH   5   6
HETATM    6  N           1     -22.760  -6.199  -4.278  0.00  0.00    -0.067 N 
HETATM    7  H           1     -23.092  -5.223  -4.109  0.00  0.00     0.275 HD
HETATM    8  H           1     -23.361  -6.652  -5.003  0.00  0.00     0.275 HD
HETATM    9  H           1     -22.813  -6.745  -3.390  0.00  0.00     0.275 HD
ENDBRANCH   5   6
BRANCH   5  10
HETATM   10  C           1     -20.618  -7.425  -4.296  0.00  0.00     0.042 C 
BRANCH  10  11
HETATM   11  C           1     -21.376  -8.046  -3.131  0.00  0.00     0.004 C 
BRANCH  11  12
HETATM   12  C           1     -20.493  -8.045  -1.891  0.00  0.00     0.027 C 
BRANCH  12  13
HETATM   13  C           1     -21.362  -7.908  -0.648  0.00  0.00     0.229 C 
BRANCH  13  14
HETATM   14  N           1     -22.432  -6.887  -0.896  0.00  0.00    -0.079 N 
HETATM   15  H           1     -22.036  -5.928  -0.769  0.00  0.00     0.274 HD
HETATM   16  H           1     -22.792  -6.988  -1.870  0.00  0.00     0.274 HD
HETATM   17  H           1     -23.215  -7.032  -0.218  0.00  0.00     0.274 HD
ENDBRANCH  13  14
ENDBRANCH  12  13
ENDBRANCH  11  12
ENDBRANCH  10  11
ENDBRANCH   5  10
ENDBRANCH   4   5
BRANCH   2  18
HETATM   18  C           1     -21.765  -4.925  -8.360  0.00  0.00     0.186 C 
BRANCH  18  19
HETATM   19  C           1     -20.431  -4.395  -8.825  0.00  0.00     0.196 C 
HETATM   20  O           1     -19.817  -3.556  -8.132  0.00  0.00    -0.646 OA
HETATM   21  O           1     -19.939  -4.797  -9.902  0.00  0.00    -0.646 OA
ENDBRANCH  18  19
BRANCH  18  22
HETATM   22  C           1     -22.876  -3.999  -8.841  0.00  0.00     0.045 C 
BRANCH  22  23
HETATM   23  C           1     -23.271  -4.377 -10.263  0.00  0.00     0.105 C 
BRANCH  23  24
HETATM   24  C           1     -24.410  -3.501 -10.719  0.00  0.00     0.215 C 
HETATM   25  N           1     -24.483  -3.096 -12.025  0.00  0.00    -0.370 N 
HETATM   26  H           1     -23.772  -3.385 -12.684  0.00  0.00     0.159 HD
HETATM   27  H           1     -25.247  -2.508 -12.331  0.00  0.00     0.159 HD
HETATM   28  O           1     -25.259  -3.155  -9.932  0.00  0.00    -0.274 OA
ENDBRANCH  23  24
ENDBRANCH  22  23
ENDBRANCH  18  22
ENDBRANCH   2  18
TORSDOF 12
ENDMDL
MODEL 7
REMARK VINA RESULT:      -5.6     10.438     12.245
REMARK  12 active torsions:
REMARK  status: ('A' for Active; 'I' for Inactive)
REMARK       I    between atoms: N_1  and  C_2 
REMARK    1  A    between atoms: C_2  and  C_20 
REMARK    2  A    between atoms: C_5  and  C_18 
REMARK    3  A    between atoms: N_11  and  C_23 
REMARK    4  A    between atoms: N_13  and  C_18 
REMARK       I    between atoms: N_13  and  C_17 
REMARK    5  A    between atoms: N_15  and  C_28 
REMARK    6  A    between atoms: C_17  and  C_23 
REMARK    7  A    between atoms: C_18  and  C_19 
REMARK    8  A    between atoms: C_19  and  C_20 
REMARK    9  A    between atoms: C_23  and  C_25 
REMARK   10  A    between atoms: C_25  and  C_26 
REMARK   11  A    between atoms: C_26  and  C_27 
REMARK   12  A    between atoms: C_27  and  C_28 
ROOT
HETATM    1  O           1     -27.897  -5.534 -18.710  0.00  0.00    -0.271 OA
HETATM    2  N           1     -26.287  -6.753 -17.758  0.00  0.00    -0.345 N 
HETATM    3  H           1     -25.525  -7.410 -17.876  0.00  0.00     0.163 HD
HETATM    4  C           1     -26.989  -6.318 -18.849  0.00  0.00     0.249 C 
ENDROOT
BRANCH   4   5
HETATM    5  C           1     -26.628  -6.817 -20.228  0.00  0.00     0.274 C 
BRANCH   5   6
HETATM    6  N           1     -26.849  -5.722 -21.229  0.00  0.00    -0.067 N 
HETATM    7  H           1     -27.178  -4.861 -20.736  0.00  0.00     0.275 HD
HETATM    8  H           1     -25.953  -5.520 -21.725  0.00  0.00     0.275 HD
HETATM    9  H           1     -27.571  -6.024 -21.921  0.00  0.00     0.275 HD
ENDBRANCH   5   6
BRANCH   5  10
HETATM   10  C           1     -25.164  -7.236 -20.249  0.00  0.00     0.042 C 
BRANCH  10  11
HETATM   11  C           1     -24.926  -8.197 -21.405  0.00  0.00     0.004 C 
BRANCH  11  12
HETATM   12  C           1     -23.918  -7.589 -22.372  0.00  0.00     0.027 C 
BRANCH  12  13
HETATM   13  C           1     -22.800  -8.588 -22.636  0.00  0.00     0.229 C 
BRANCH  13  14
HETATM   14  N           1     -22.346  -9.185 -21.338  0.00  0.00    -0.079 N 
HETATM   15  H           1     -21.641  -8.556 -20.892  0.00  0.00     0.274 HD
HETATM   16  H           1     -23.165  -9.298 -20.700  0.00  0.00     0.274 HD
HETATM   17  H           1     -21.913 -10.121 -21.517  0.00  0.00     0.274 HD
ENDBRANCH  13  14
ENDBRANCH  12  13
ENDBRANCH  11  12
ENDBRANCH  10  11
ENDBRANCH   5  10
ENDBRANCH   4   5
BRANCH   2  18
HETATM   18  C           1     -26.633  -6.274 -16.435  0.00  0.00     0.186 C 
BRANCH  18  19
HETATM   19  C           1     -25.423  -6.362 -15.536  0.00  0.00     0.196 C 
HETATM   20  O           1     -24.881  -5.318 -15.115  0.00  0.00    -0.646 OA
HETATM   21  O           1     -24.965  -7.480 -15.212  0.00  0.00    -0.646 OA
ENDBRANCH  18  19
BRANCH  18  22
HETATM   22  C           1     -27.755  -7.131 -15.863  0.00  0.00     0.045 C 
BRANCH  22  23
HETATM   23  C           1     -28.859  -6.229 -15.325  0.00  0.00     0.105 C 
BRANCH  23  24
HETATM   24  C           1     -29.958  -6.111 -16.351  0.00  0.00     0.215 C 
HETATM   25  N           1     -30.150  -7.110 -17.267  0.00  0.00    -0.370 N 
HETATM   26  H           1     -29.555  -7.928 -17.256  0.00  0.00     0.159 HD
HETATM   27  H           1     -30.888  -7.031 -17.955  0.00  0.00     0.159 HD
HETATM   28  O           1     -30.669  -5.135 -16.365  0.00  0.00    -0.274 OA
ENDBRANCH  23  24
ENDBRANCH  22  23
ENDBRANCH  18  22
ENDBRANCH   2  18
TORSDOF 12
ENDMDL
MODEL 8
REMARK VINA RESULT:      -5.6     14.314     17.256
REMARK  12 active torsions:
REMARK  status: ('A' for Active; 'I' for Inactive)
REMARK       I    between atoms: N_1  and  C_2 
REMARK    1  A    between atoms: C_2  and  C_20 
REMARK    2  A    between atoms: C_5  and  C_18 
REMARK    3  A    between atoms: N_11  and  C_23 
REMARK    4  A    between atoms: N_13  and  C_18 
REMARK       I    between atoms: N_13  and  C_17 
REMARK    5  A    between atoms: N_15  and  C_28 
REMARK    6  A    between atoms: C_17  and  C_23 
REMARK    7  A    between atoms: C_18  and  C_19 
REMARK    8  A    between atoms: C_19  and  C_20 
REMARK    9  A    between atoms: C_23  and  C_25 
REMARK   10  A    between atoms: C_25  and  C_26 
REMARK   11  A    between atoms: C_26  and  C_27 
REMARK   12  A    between atoms: C_27  and  C_28 
ROOT
HETATM    1  O           1     -22.651  -5.441  -5.902  0.00  0.00    -0.271 OA
HETATM    2  N           1     -20.830  -6.302  -4.937  0.00  0.00    -0.345 N 
HETATM    3  H           1     -19.823  -6.287  -4.841  0.00  0.00     0.163 HD
HETATM    4  C           1     -21.449  -5.425  -5.787  0.00  0.00     0.249 C 
ENDROOT
BRANCH   4   5
HETATM    5  C           1     -20.629  -4.437  -6.581  0.00  0.00     0.274 C 
BRANCH   5   6
HETATM    6  N           1     -19.575  -5.172  -7.355  0.00  0.00    -0.067 N 
HETATM    7  H           1     -19.361  -6.077  -6.878  0.00  0.00     0.275 HD
HETATM    8  H           1     -19.922  -5.360  -8.322  0.00  0.00     0.275 HD
HETATM    9  H           1     -18.709  -4.590  -7.402  0.00  0.00     0.275 HD
ENDBRANCH   5   6
BRANCH   5  10
HETATM   10  C           1     -21.535  -3.685  -7.547  0.00  0.00     0.042 C 
BRANCH  10  11
HETATM   11  C           1     -21.260  -4.151  -8.970  0.00  0.00     0.004 C 
BRANCH  11  12
HETATM   12  C           1     -22.556  -4.641  -9.604  0.00  0.00     0.027 C 
BRANCH  12  13
HETATM   13  C           1     -23.726  -3.837  -9.054  0.00  0.00     0.229 C 
BRANCH  13  14
HETATM   14  N           1     -25.013  -4.411  -9.569  0.00  0.00    -0.079 N 
HETATM   15  H           1     -25.201  -5.324  -9.097  0.00  0.00     0.274 HD
HETATM   16  H           1     -25.795  -3.748  -9.369  0.00  0.00     0.274 HD
HETATM   17  H           1     -24.939  -4.561 -10.601  0.00  0.00     0.274 HD
ENDBRANCH  13  14
ENDBRANCH  12  13
ENDBRANCH  11  12
ENDBRANCH  10  11
ENDBRANCH   5  10
ENDBRANCH   4   5
BRANCH   2  18
HETATM   18  C           1     -21.618  -7.250  -4.175  0.00  0.00     0.186 C 
BRANCH  18  19
HETATM   19  C           1     -21.643  -6.831  -2.725  0.00  0.00     0.196 C 
HETATM   20  O           1     -22.407  -5.916  -2.353  0.00  0.00    -0.646 OA
HETATM   21  O           1     -20.900  -7.401  -1.896  0.00  0.00    -0.646 OA
ENDBRANCH  18  19
BRANCH  18  22
HETATM   22  C           1     -20.996  -8.636  -4.293  0.00  0.00     0.045 C 
BRANCH  22  23
HETATM   23  C           1     -19.615  -8.520  -4.927  0.00  0.00     0.105 C 
BRANCH  23  24
HETATM   24  C           1     -18.623  -9.322  -4.123  0.00  0.00     0.215 C 
HETATM   25  N           1     -18.574  -9.186  -2.762  0.00  0.00    -0.370 N 
HETATM   26  H           1     -19.205  -8.547  -2.295  0.00  0.00     0.159 HD
HETATM   27  H           1     -17.909  -9.724  -2.223  0.00  0.00     0.159 HD
HETATM   28  O           1     -17.870 -10.085  -4.681  0.00  0.00    -0.274 OA
ENDBRANCH  23  24
ENDBRANCH  22  23
ENDBRANCH  18  22
ENDBRANCH   2  18
TORSDOF 12
ENDMDL
MODEL 9
REMARK VINA RESULT:      -5.5     12.460     14.287
REMARK  12 active torsions:
REMARK  status: ('A' for Active; 'I' for Inactive)
REMARK       I    between atoms: N_1  and  C_2 
REMARK    1  A    between atoms: C_2  and  C_20 
REMARK    2  A    between atoms: C_5  and  C_18 
REMARK    3  A    between atoms: N_11  and  C_23 
REMARK    4  A    between atoms: N_13  and  C_18 
REMARK       I    between atoms: N_13  and  C_17 
REMARK    5  A    between atoms: N_15  and  C_28 
REMARK    6  A    between atoms: C_17  and  C_23 
REMARK    7  A    between atoms: C_18  and  C_19 
REMARK    8  A    between atoms: C_19  and  C_20 
REMARK    9  A    between atoms: C_23  and  C_25 
REMARK   10  A    between atoms: C_25  and  C_26 
REMARK   11  A    between atoms: C_26  and  C_27 
REMARK   12  A    between atoms: C_27  and  C_28 
ROOT
HETATM    1  O           1     -21.977  -3.343  -7.351  0.00  0.00    -0.271 OA
HETATM    2  N           1     -22.588  -4.615  -9.081  0.00  0.00    -0.345 N 
HETATM    3  H           1     -22.559  -5.521  -9.531  0.00  0.00     0.163 HD
HETATM    4  C           1     -21.943  -4.423  -7.889  0.00  0.00     0.249 C 
ENDROOT
BRANCH   4   5
HETATM    5  C           1     -21.189  -5.562  -7.247  0.00  0.00     0.274 C 
BRANCH   5   6
HETATM    6  N           1     -19.921  -5.813  -8.007  0.00  0.00    -0.067 N 
HETATM    7  H           1     -19.307  -6.456  -7.457  0.00  0.00     0.275 HD
HETATM    8  H           1     -20.149  -6.251  -8.928  0.00  0.00     0.275 HD
HETATM    9  H           1     -19.425  -4.908  -8.164  0.00  0.00     0.275 HD
ENDBRANCH   5   6
BRANCH   5  10
HETATM   10  C           1     -20.854  -5.201  -5.806  0.00  0.00     0.042 C 
BRANCH  10  11
HETATM   11  C           1     -20.595  -6.472  -5.009  0.00  0.00     0.004 C 
BRANCH  11  12
HETATM   12  C           1     -21.904  -7.224  -4.811  0.00  0.00     0.027 C 
BRANCH  12  13
HETATM   13  C           1     -21.610  -8.647  -4.358  0.00  0.00     0.229 C 
BRANCH  13  14
HETATM   14  N           1     -20.324  -8.671  -3.588  0.00  0.00    -0.079 N 
HETATM   15  H           1     -19.794  -7.788  -3.766  0.00  0.00     0.274 HD
HETATM   16  H           1     -20.529  -8.755  -2.568  0.00  0.00     0.274 HD
HETATM   17  H           1     -19.749  -9.490  -3.895  0.00  0.00     0.274 HD
ENDBRANCH  13  14
ENDBRANCH  12  13
ENDBRANCH  11  12
ENDBRANCH  10  11
ENDBRANCH   5  10
ENDBRANCH   4   5
BRANCH   2  18
HETATM   18  C           1     -23.311  -3.521  -9.698  0.00  0.00     0.186 C 
BRANCH  18  19
HETATM   19  C           1     -24.785  -3.846  -9.727  0.00  0.00     0.196 C 
HETATM   20  O           1     -25.626  -2.926  -9.805  0.00  0.00    -0.646 OA
HETATM   21  O           1     -25.163  -5.037  -9.675  0.00  0.00    -0.646 OA
ENDBRANCH  18  19
BRANCH  18  22
HETATM   22  C           1     -22.807  -3.319 -11.122  0.00  0.00     0.045 C 
BRANCH  22  23
HETATM   23  C           1     -21.874  -4.463 -11.497  0.00  0.00     0.105 C 
BRANCH  23  24
HETATM   24  C           1     -20.447  -4.064 -11.217  0.00  0.00     0.215 C 
HETATM   25  N           1     -20.030  -2.786 -11.476  0.00  0.00    -0.370 N 
HETATM   26  H           1     -20.680  -2.109 -11.855  0.00  0.00     0.159 HD
HETATM   27  H           1     -19.073  -2.518 -11.288  0.00  0.00     0.159 HD
HETATM   28  O           1     -19.672  -4.872 -10.764  0.00  0.00    -0.274 OA
ENDBRANCH  23  24
ENDBRANCH  22  23
ENDBRANCH  18  22
ENDBRANCH   2  18
TORSDOF 12
ENDMDL
