MODEL 1
REMARK VINA RESULT:      -5.7      0.000      0.000
REMARK  7 active torsions:
REMARK  status: ('A' for Active; 'I' for Inactive)
REMARK    1  A    between atoms: C_1  and  C_7 
REMARK    2  A    between atoms: C_1  and  C_9 
REMARK    3  A    between atoms: N_2  and  C_8 
REMARK       I    between atoms: N_2  and  C_12 
REMARK    4  A    between atoms: N_3  and  C_7 
REMARK    5  A    between atoms: C_7  and  C_12 
REMARK    6  A    between atoms: C_8  and  C_10 
REMARK    7  A    between atoms: C_9  and  S_11 
ROOT
HETATM    1  C           1     -23.205  -3.557  -9.267  0.00  0.00     0.275 C 
ENDROOT
BRANCH   1   2
HETATM    2  C           1     -22.179  -4.616  -9.646  0.00  0.00     0.053 C 
BRANCH   2   3
HETATM    3  C           1     -20.794  -4.165  -9.200  0.00  0.00     0.076 C 
BRANCH   3   4
HETATM    4  S           1     -20.168  -5.300  -7.928  0.00  0.00    -0.173 SA
HETATM    5  C           1     -20.700  -4.312  -6.501  0.00  0.00     0.089 C 
ENDBRANCH   3   4
ENDBRANCH   2   3
ENDBRANCH   1   2
BRANCH   1   6
HETATM    6  N           1     -24.007  -4.036  -8.094  0.00  0.00    -0.066 N 
HETATM    7  H           1     -24.075  -3.272  -7.383  0.00  0.00     0.275 HD
HETATM    8  H           1     -24.966  -4.301  -8.412  0.00  0.00     0.275 HD
HETATM    9  H           1     -23.539  -4.866  -7.666  0.00  0.00     0.275 HD
ENDBRANCH   1   6
BRANCH   1  10
HETATM   10  C           1     -24.127  -3.308 -10.436  0.00  0.00     0.248 C 
HETATM   11  N           1     -23.609  -3.137 -11.691  0.00  0.00    -0.349 N 
HETATM   12  H           1     -22.608  -3.177 -11.836  0.00  0.00     0.163 HD
HETATM   13  O           1     -25.322  -3.260 -10.264  0.00  0.00    -0.271 OA
BRANCH  11  14
HETATM   14  C           1     -24.495  -2.898 -12.815  0.00  0.00     0.235 C 
BRANCH  14  15
HETATM   15  C           1     -23.698  -2.363 -13.980  0.00  0.00     0.191 C 
HETATM   16  O           1     -22.603  -2.886 -14.280  0.00  0.00    -0.647 OA
HETATM   17  O           1     -24.134  -1.399 -14.644  0.00  0.00    -0.647 OA
ENDBRANCH  14  15
ENDBRANCH  11  14
ENDBRANCH   1  10
TORSDOF 7
ENDMDL
MODEL 2
REMARK VINA RESULT:      -5.5     11.594     12.681
REMARK  7 active torsions:
REMARK  status: ('A' for Active; 'I' for Inactive)
REMARK    1  A    between atoms: C_1  and  C_7 
REMARK    2  A    between atoms: C_1  and  C_9 
REMARK    3  A    between atoms: N_2  and  C_8 
REMARK       I    between atoms: N_2  and  C_12 
REMARK    4  A    between atoms: N_3  and  C_7 
REMARK    5  A    between atoms: C_7  and  C_12 
REMARK    6  A    between atoms: C_8  and  C_10 
REMARK    7  A    between atoms: C_9  and  S_11 
ROOT
HETATM    1  C           1     -34.620  -1.342 -11.980  0.00  0.00     0.275 C 
ENDROOT
BRANCH   1   2
HETATM    2  C           1     -34.175  -2.768 -12.276  0.00  0.00     0.053 C 
BRANCH   2   3
HETATM    3  C           1     -33.376  -3.307 -11.097  0.00  0.00     0.076 C 
BRANCH   3   4
HETATM    4  S           1     -33.966  -4.972 -10.678  0.00  0.00    -0.173 SA
HETATM    5  C           1     -34.831  -5.277 -12.244  0.00  0.00     0.089 C 
ENDBRANCH   3   4
ENDBRANCH   2   3
ENDBRANCH   1   2
BRANCH   1   6
HETATM    6  N           1     -35.373  -1.313 -10.683  0.00  0.00    -0.066 N 
HETATM    7  H           1     -35.986  -0.466 -10.656  0.00  0.00     0.275 HD
HETATM    8  H           1     -35.962  -2.172 -10.603  0.00  0.00     0.275 HD
HETATM    9  H           1     -34.697  -1.277  -9.888  0.00  0.00     0.275 HD
ENDBRANCH   1   6
BRANCH   1  10
HETATM   10  C           1     -35.516  -0.853 -13.092  0.00  0.00     0.248 C 
HETATM   11  N           1     -34.976  -0.219 -14.177  0.00  0.00    -0.349 N 
HETATM   12  H           1     -33.976  -0.078 -14.236  0.00  0.00     0.163 HD
HETATM   13  O           1     -36.711  -1.022 -13.023  0.00  0.00    -0.271 OA
BRANCH  11  14
HETATM   14  C           1     -35.838   0.250 -15.246  0.00  0.00     0.235 C 
BRANCH  14  15
HETATM   15  C           1     -35.865  -0.770 -16.357  0.00  0.00     0.191 C 
HETATM   16  O           1     -34.892  -1.537 -16.524  0.00  0.00    -0.647 OA
HETATM   17  O           1     -36.859  -0.848 -17.110  0.00  0.00    -0.647 OA
ENDBRANCH  14  15
ENDBRANCH  11  14
ENDBRANCH   1  10
TORSDOF 7
ENDMDL
MODEL 3
REMARK VINA RESULT:      -5.4      1.803      1.942
REMARK  7 active torsions:
REMARK  status: ('A' for Active; 'I' for Inactive)
REMARK    1  A    between atoms: C_1  and  C_7 
REMARK    2  A    between atoms: C_1  and  C_9 
REMARK    3  A    between atoms: N_2  and  C_8 
REMARK       I    between atoms: N_2  and  C_12 
REMARK    4  A    between atoms: N_3  and  C_7 
REMARK    5  A    between atoms: C_7  and  C_12 
REMARK    6  A    between atoms: C_8  and  C_10 
REMARK    7  A    between atoms: C_9  and  S_11 
ROOT
HETATM    1  C           1     -22.732  -3.558  -8.888  0.00  0.00     0.275 C 
ENDROOT
BRANCH   1   2
HETATM    2  C           1     -22.003  -4.573  -8.018  0.00  0.00     0.053 C 
BRANCH   2   3
HETATM    3  C           1     -21.099  -3.844  -7.033  0.00  0.00     0.076 C 
BRANCH   3   4
HETATM    4  S           1     -20.295  -5.051  -5.941  0.00  0.00    -0.173 SA
HETATM    5  C           1     -21.800  -5.980  -5.532  0.00  0.00     0.089 C 
ENDBRANCH   3   4
ENDBRANCH   2   3
ENDBRANCH   1   2
BRANCH   1   6
HETATM    6  N           1     -24.212  -3.742  -8.737  0.00  0.00    -0.066 N 
HETATM    7  H           1     -24.689  -2.816  -8.826  0.00  0.00     0.275 HD
HETATM    8  H           1     -24.561  -4.385  -9.483  0.00  0.00     0.275 HD
HETATM    9  H           1     -24.419  -4.150  -7.798  0.00  0.00     0.275 HD
ENDBRANCH   1   6
BRANCH   1  10
HETATM   10  C           1     -22.345  -3.762 -10.332  0.00  0.00     0.248 C 
HETATM   11  N           1     -22.846  -2.933 -11.299  0.00  0.00    -0.349 N 
HETATM   12  H           1     -23.476  -2.182 -11.046  0.00  0.00     0.163 HD
HETATM   13  O           1     -21.593  -4.658 -10.635  0.00  0.00    -0.271 OA
BRANCH  11  14
HETATM   14  C           1     -22.474  -3.130 -12.687  0.00  0.00     0.235 C 
BRANCH  14  15
HETATM   15  C           1     -23.704  -3.037 -13.557  0.00  0.00     0.191 C 
HETATM   16  O           1     -23.595  -3.095 -14.800  0.00  0.00    -0.647 OA
HETATM   17  O           1     -24.830  -2.903 -13.033  0.00  0.00    -0.647 OA
ENDBRANCH  14  15
ENDBRANCH  11  14
ENDBRANCH   1  10
TORSDOF 7
ENDMDL
MODEL 4
REMARK VINA RESULT:      -5.2      1.821      2.081
REMARK  7 active torsions:
REMARK  status: ('A' for Active; 'I' for Inactive)
REMARK    1  A    between atoms: C_1  and  C_7 
REMARK    2  A    between atoms: C_1  and  C_9 
REMARK    3  A    between atoms: N_2  and  C_8 
REMARK       I    between atoms: N_2  and  C_12 
REMARK    4  A    between atoms: N_3  and  C_7 
REMARK    5  A    between atoms: C_7  and  C_12 
REMARK    6  A    between atoms: C_8  and  C_10 
REMARK    7  A    between atoms: C_9  and  S_11 
ROOT
HETATM    1  C           1     -21.619  -4.291 -11.007  0.00  0.00     0.275 C 
ENDROOT
BRANCH   1   2
HETATM    2  C           1     -21.728  -4.065  -9.505  0.00  0.00     0.053 C 
BRANCH   2   3
HETATM    3  C           1     -20.342  -4.133  -8.878  0.00  0.00     0.076 C 
BRANCH   3   4
HETATM    4  S           1     -20.287  -5.490  -7.674  0.00  0.00    -0.173 SA
HETATM    5  C           1     -21.786  -5.013  -6.770  0.00  0.00     0.089 C 
ENDBRANCH   3   4
ENDBRANCH   2   3
ENDBRANCH   1   2
BRANCH   1   6
HETATM    6  N           1     -20.387  -3.613 -11.527  0.00  0.00    -0.066 N 
HETATM    7  H           1     -20.612  -2.621 -11.769  0.00  0.00     0.275 HD
HETATM    8  H           1     -19.643  -3.632 -10.794  0.00  0.00     0.275 HD
HETATM    9  H           1     -20.049  -4.111 -12.381  0.00  0.00     0.275 HD
ENDBRANCH   1   6
BRANCH   1  10
HETATM   10  C           1     -22.835  -3.716 -11.692  0.00  0.00     0.248 C 
HETATM   11  N           1     -22.696  -3.018 -12.861  0.00  0.00    -0.349 N 
HETATM   12  H           1     -21.778  -2.887 -13.267  0.00  0.00     0.163 HD
HETATM   13  O           1     -23.931  -3.872 -11.208  0.00  0.00    -0.271 OA
BRANCH  11  14
HETATM   14  C           1     -23.865  -2.466 -13.519  0.00  0.00     0.235 C 
BRANCH  14  15
HETATM   15  C           1     -23.442  -1.742 -14.774  0.00  0.00     0.191 C 
HETATM   16  O           1     -23.992  -0.665 -15.088  0.00  0.00    -0.647 OA
HETATM   17  O           1     -22.543  -2.221 -15.498  0.00  0.00    -0.647 OA
ENDBRANCH  14  15
ENDBRANCH  11  14
ENDBRANCH   1  10
TORSDOF 7
ENDMDL
MODEL 5
REMARK VINA RESULT:      -5.2     12.259     13.757
REMARK  7 active torsions:
REMARK  status: ('A' for Active; 'I' for Inactive)
REMARK    1  A    between atoms: C_1  and  C_7 
REMARK    2  A    between atoms: C_1  and  C_9 
REMARK    3  A    between atoms: N_2  and  C_8 
REMARK       I    between atoms: N_2  and  C_12 
REMARK    4  A    between atoms: N_3  and  C_7 
REMARK    5  A    between atoms: C_7  and  C_12 
REMARK    6  A    between atoms: C_8  and  C_10 
REMARK    7  A    between atoms: C_9  and  S_11 
ROOT
HETATM    1  C           1     -35.919  -1.025 -12.190  0.00  0.00     0.275 C 
ENDROOT
BRANCH   1   2
HETATM    2  C           1     -35.380  -2.356 -11.684  0.00  0.00     0.053 C 
BRANCH   2   3
HETATM    3  C           1     -33.951  -2.173 -11.192  0.00  0.00     0.076 C 
BRANCH   3   4
HETATM    4  S           1     -32.973  -3.645 -11.609  0.00  0.00    -0.173 SA
HETATM    5  C           1     -33.977  -4.824 -10.661  0.00  0.00     0.089 C 
ENDBRANCH   3   4
ENDBRANCH   2   3
ENDBRANCH   1   2
BRANCH   1   6
HETATM    6  N           1     -34.780  -0.070 -12.396  0.00  0.00    -0.066 N 
HETATM    7  H           1     -35.050   0.644 -13.110  0.00  0.00     0.275 HD
HETATM    8  H           1     -34.558   0.407 -11.494  0.00  0.00     0.275 HD
HETATM    9  H           1     -33.941  -0.596 -12.730  0.00  0.00     0.275 HD
ENDBRANCH   1   6
BRANCH   1  10
HETATM   10  C           1     -36.877  -0.451 -11.175  0.00  0.00     0.248 C 
HETATM   11  N           1     -36.466   0.549 -10.336  0.00  0.00    -0.349 N 
HETATM   12  H           1     -35.521   0.905 -10.396  0.00  0.00     0.163 HD
HETATM   13  O           1     -38.006  -0.875 -11.102  0.00  0.00    -0.271 OA
BRANCH  11  14
HETATM   14  C           1     -37.387   1.101  -9.360  0.00  0.00     0.235 C 
BRANCH  14  15
HETATM   15  C           1     -36.735   1.110  -7.999  0.00  0.00     0.191 C 
HETATM   16  O           1     -35.777   0.342  -7.761  0.00  0.00    -0.647 OA
HETATM   17  O           1     -37.151   1.884  -7.112  0.00  0.00    -0.647 OA
ENDBRANCH  14  15
ENDBRANCH  11  14
ENDBRANCH   1  10
TORSDOF 7
ENDMDL
MODEL 6
REMARK VINA RESULT:      -5.0      2.421      3.286
REMARK  7 active torsions:
REMARK  status: ('A' for Active; 'I' for Inactive)
REMARK    1  A    between atoms: C_1  and  C_7 
REMARK    2  A    between atoms: C_1  and  C_9 
REMARK    3  A    between atoms: N_2  and  C_8 
REMARK       I    between atoms: N_2  and  C_12 
REMARK    4  A    between atoms: N_3  and  C_7 
REMARK    5  A    between atoms: C_7  and  C_12 
REMARK    6  A    between atoms: C_8  and  C_10 
REMARK    7  A    between atoms: C_9  and  S_11 
ROOT
HETATM    1  C           1     -22.044  -4.305  -7.278  0.00  0.00     0.275 C 
ENDROOT
BRANCH   1   2
HETATM    2  C           1     -21.289  -5.563  -6.873  0.00  0.00     0.053 C 
BRANCH   2   3
HETATM    3  C           1     -20.879  -5.462  -5.409  0.00  0.00     0.076 C 
BRANCH   3   4
HETATM    4  S           1     -21.473  -6.924  -4.512  0.00  0.00    -0.173 SA
HETATM    5  C           1     -20.073  -7.999  -4.936  0.00  0.00     0.089 C 
ENDBRANCH   3   4
ENDBRANCH   2   3
ENDBRANCH   1   2
BRANCH   1   6
HETATM    6  N           1     -23.493  -4.455  -6.922  0.00  0.00    -0.066 N 
HETATM    7  H           1     -24.071  -4.420  -7.793  0.00  0.00     0.275 HD
HETATM    8  H           1     -23.641  -5.371  -6.443  0.00  0.00     0.275 HD
HETATM    9  H           1     -23.778  -3.677  -6.286  0.00  0.00     0.275 HD
ENDBRANCH   1   6
BRANCH   1  10
HETATM   10  C           1     -21.912  -4.096  -8.767  0.00  0.00     0.248 C 
HETATM   11  N           1     -22.976  -3.629  -9.490  0.00  0.00    -0.349 N 
HETATM   12  H           1     -23.852  -3.423  -9.026  0.00  0.00     0.163 HD
HETATM   13  O           1     -20.867  -4.341  -9.321  0.00  0.00    -0.271 OA
BRANCH  11  14
HETATM   14  C           1     -22.849  -3.428 -10.920  0.00  0.00     0.235 C 
BRANCH  14  15
HETATM   15  C           1     -24.216  -3.212 -11.523  0.00  0.00     0.191 C 
HETATM   16  O           1     -25.225  -3.184 -10.786  0.00  0.00    -0.647 OA
HETATM   17  O           1     -24.338  -3.061 -12.757  0.00  0.00    -0.647 OA
ENDBRANCH  14  15
ENDBRANCH  11  14
ENDBRANCH   1  10
TORSDOF 7
ENDMDL
MODEL 7
REMARK VINA RESULT:      -5.0     11.497     12.098
REMARK  7 active torsions:
REMARK  status: ('A' for Active; 'I' for Inactive)
REMARK    1  A    between atoms: C_1  and  C_7 
REMARK    2  A    between atoms: C_1  and  C_9 
REMARK    3  A    between atoms: N_2  and  C_8 
REMARK       I    between atoms: N_2  and  C_12 
REMARK    4  A    between atoms: N_3  and  C_7 
REMARK    5  A    between atoms: C_7  and  C_12 
REMARK    6  A    between atoms: C_8  and  C_10 
REMARK    7  A    between atoms: C_9  and  S_11 
ROOT
HETATM    1  C           1     -33.902  -3.987 -12.316  0.00  0.00     0.275 C 
ENDROOT
BRANCH   1   2
HETATM    2  C           1     -34.654  -5.253 -11.929  0.00  0.00     0.053 C 
BRANCH   2   3
HETATM    3  C           1     -33.816  -6.064 -10.950  0.00  0.00     0.076 C 
BRANCH   3   4
HETATM    4  S           1     -34.908  -7.073  -9.909  0.00  0.00    -0.173 SA
HETATM    5  C           1     -33.890  -8.575  -9.950  0.00  0.00     0.089 C 
ENDBRANCH   3   4
ENDBRANCH   2   3
ENDBRANCH   1   2
BRANCH   1   6
HETATM    6  N           1     -32.927  -3.634 -11.233  0.00  0.00    -0.066 N 
HETATM    7  H           1     -32.535  -4.509 -10.818  0.00  0.00     0.275 HD
HETATM    8  H           1     -32.152  -3.061 -11.635  0.00  0.00     0.275 HD
HETATM    9  H           1     -33.416  -3.086 -10.489  0.00  0.00     0.275 HD
ENDBRANCH   1   6
BRANCH   1  10
HETATM   10  C           1     -34.883  -2.854 -12.497  0.00  0.00     0.248 C 
HETATM   11  N           1     -34.690  -1.933 -13.490  0.00  0.00    -0.349 N 
HETATM   12  H           1     -33.890  -2.011 -14.104  0.00  0.00     0.163 HD
HETATM   13  O           1     -35.839  -2.761 -11.764  0.00  0.00    -0.271 OA
BRANCH  11  14
HETATM   14  C           1     -35.633  -0.845 -13.664  0.00  0.00     0.235 C 
BRANCH  14  15
HETATM   15  C           1     -35.100   0.396 -12.991  0.00  0.00     0.191 C 
HETATM   16  O           1     -34.469   1.245 -13.657  0.00  0.00    -0.647 OA
HETATM   17  O           1     -35.290   0.575 -11.769  0.00  0.00    -0.647 OA
ENDBRANCH  14  15
ENDBRANCH  11  14
ENDBRANCH   1  10
TORSDOF 7
ENDMDL
MODEL 8
REMARK VINA RESULT:      -4.8      3.989      6.448
REMARK  7 active torsions:
REMARK  status: ('A' for Active; 'I' for Inactive)
REMARK    1  A    between atoms: C_1  and  C_7 
REMARK    2  A    between atoms: C_1  and  C_9 
REMARK    3  A    between atoms: N_2  and  C_8 
REMARK       I    between atoms: N_2  and  C_12 
REMARK    4  A    between atoms: N_3  and  C_7 
REMARK    5  A    between atoms: C_7  and  C_12 
REMARK    6  A    between atoms: C_8  and  C_10 
REMARK    7  A    between atoms: C_9  and  S_11 
ROOT
HETATM    1  C           1     -23.119  -4.509  -9.170  0.00  0.00     0.275 C 
ENDROOT
BRANCH   1   2
HETATM    2  C           1     -22.978  -3.582 -10.370  0.00  0.00     0.053 C 
BRANCH   2   3
HETATM    3  C           1     -24.354  -3.300 -10.960  0.00  0.00     0.076 C 
BRANCH   3   4
HETATM    4  S           1     -24.194  -2.973 -12.739  0.00  0.00    -0.173 SA
HETATM    5  C           1     -22.390  -3.167 -12.814  0.00  0.00     0.089 C 
ENDBRANCH   3   4
ENDBRANCH   2   3
ENDBRANCH   1   2
BRANCH   1   6
HETATM    6  N           1     -24.172  -3.974  -8.246  0.00  0.00    -0.066 N 
HETATM    7  H           1     -23.819  -3.107  -7.781  0.00  0.00     0.275 HD
HETATM    8  H           1     -25.034  -3.751  -8.791  0.00  0.00     0.275 HD
HETATM    9  H           1     -24.394  -4.691  -7.519  0.00  0.00     0.275 HD
ENDBRANCH   1   6
BRANCH   1  10
HETATM   10  C           1     -21.802  -4.589  -8.438  0.00  0.00     0.248 C 
HETATM   11  N           1     -21.779  -4.605  -7.070  0.00  0.00    -0.349 N 
HETATM   12  H           1     -22.645  -4.563  -6.548  0.00  0.00     0.163 HD
HETATM   13  O           1     -20.767  -4.639  -9.060  0.00  0.00    -0.271 OA
BRANCH  11  14
HETATM   14  C           1     -20.513  -4.682  -6.367  0.00  0.00     0.235 C 
BRANCH  14  15
HETATM   15  C           1     -20.252  -6.109  -5.953  0.00  0.00     0.191 C 
HETATM   16  O           1     -20.636  -6.515  -4.835  0.00  0.00    -0.647 OA
HETATM   17  O           1     -19.652  -6.885  -6.727  0.00  0.00    -0.647 OA
ENDBRANCH  14  15
ENDBRANCH  11  14
ENDBRANCH   1  10
TORSDOF 7
ENDMDL
MODEL 9
REMARK VINA RESULT:      -4.7      5.948      9.103
REMARK  7 active torsions:
REMARK  status: ('A' for Active; 'I' for Inactive)
REMARK    1  A    between atoms: C_1  and  C_7 
REMARK    2  A    between atoms: C_1  and  C_9 
REMARK    3  A    between atoms: N_2  and  C_8 
REMARK       I    between atoms: N_2  and  C_12 
REMARK    4  A    between atoms: N_3  and  C_7 
REMARK    5  A    between atoms: C_7  and  C_12 
REMARK    6  A    between atoms: C_8  and  C_10 
REMARK    7  A    between atoms: C_9  and  S_11 
ROOT
HETATM    1  C           1     -20.521  -6.592  -5.316  0.00  0.00     0.275 C 
ENDROOT
BRANCH   1   2
HETATM    2  C           1     -20.265  -5.298  -6.076  0.00  0.00     0.053 C 
BRANCH   2   3
HETATM    3  C           1     -20.769  -5.439  -7.506  0.00  0.00     0.076 C 
BRANCH   3   4
HETATM    4  S           1     -22.197  -4.347  -7.755  0.00  0.00    -0.173 SA
HETATM    5  C           1     -22.105  -4.310  -9.568  0.00  0.00     0.089 C 
ENDBRANCH   3   4
ENDBRANCH   2   3
ENDBRANCH   1   2
BRANCH   1   6
HETATM    6  N           1     -20.996  -7.647  -6.270  0.00  0.00    -0.066 N 
HETATM    7  H           1     -21.235  -7.205  -7.187  0.00  0.00     0.275 HD
HETATM    8  H           1     -20.241  -8.354  -6.411  0.00  0.00     0.275 HD
HETATM    9  H           1     -21.845  -8.114  -5.878  0.00  0.00     0.275 HD
ENDBRANCH   1   6
BRANCH   1  10
HETATM   10  C           1     -21.576  -6.356  -4.262  0.00  0.00     0.248 C 
HETATM   11  N           1     -21.230  -6.341  -2.938  0.00  0.00    -0.349 N 
HETATM   12  H           1     -20.266  -6.487  -2.665  0.00  0.00     0.163 HD
HETATM   13  O           1     -22.726  -6.182  -4.588  0.00  0.00    -0.271 OA
BRANCH  11  14
HETATM   14  C           1     -22.244  -6.115  -1.926  0.00  0.00     0.235 C 
BRANCH  14  15
HETATM   15  C           1     -22.177  -7.211  -0.892  0.00  0.00     0.191 C 
HETATM   16  O           1     -21.146  -7.911  -0.789  0.00  0.00    -0.647 OA
HETATM   17  O           1     -23.152  -7.420  -0.138  0.00  0.00    -0.647 OA
ENDBRANCH  14  15
ENDBRANCH  11  14
ENDBRANCH   1  10
TORSDOF 7
ENDMDL
