MODEL 1
REMARK VINA RESULT:      -7.2      0.000      0.000
REMARK  6 active torsions:
REMARK  status: ('A' for Active; 'I' for Inactive)
REMARK       I    between atoms: C_1  and  N_24 
REMARK    1  A    between atoms: C_1  and  C_2 
REMARK    2  A    between atoms: C_13  and  C_16 
REMARK    3  A    between atoms: C_16  and  C_20 
REMARK    4  A    between atoms: O_19  and  C_26 
REMARK    5  A    between atoms: C_20  and  C_21 
REMARK    6  A    between atoms: C_20  and  N_24 
ROOT
HETATM    1  C           1     -21.097  -5.499  -6.777  0.00  0.00     0.189 C 
ENDROOT
BRANCH   1   2
HETATM    2  C           1     -22.119  -4.474  -7.247  0.00  0.00     0.074 C 
BRANCH   2   3
HETATM    3  C           1     -22.002  -4.292  -8.728  0.00  0.00    -0.056 A 
HETATM    4  C           1     -20.772  -4.477  -9.359  0.00  0.00     0.010 A 
HETATM    5  C           1     -20.663  -4.307 -10.739  0.00  0.00     0.037 A 
HETATM    6  C           1     -21.784  -3.954 -11.489  0.00  0.00     0.065 A 
HETATM    7  C           1     -23.015  -3.769 -10.859  0.00  0.00     0.037 A 
HETATM    8  C           1     -23.124  -3.938  -9.478  0.00  0.00     0.010 A 
BRANCH   6   9
HETATM    9  O           1     -21.678  -3.789 -12.830  0.00  0.00    -0.361 OA
HETATM   10  H           1     -21.319  -2.902 -12.996  0.00  0.00     0.217 HD
ENDBRANCH   6   9
ENDBRANCH   2   3
ENDBRANCH   1   2
BRANCH   1  11
HETATM   11  C           1     -19.942  -4.790  -6.113  0.00  0.00     0.197 C 
HETATM   12  O           1     -20.046  -4.399  -4.930  0.00  0.00    -0.646 OA
HETATM   13  O           1     -18.881  -4.594  -6.744  0.00  0.00    -0.646 OA
ENDBRANCH   1  11
BRANCH   1  14
HETATM   14  N           1     -21.719  -6.402  -5.828  0.00  0.00    -0.344 N 
HETATM   15  C           1     -21.132  -7.605  -5.542  0.00  0.00     0.249 C 
HETATM   16  O           1     -20.096  -7.915  -6.081  0.00  0.00    -0.271 OA
HETATM   17  H           1     -22.586  -6.142  -5.377  0.00  0.00     0.163 HD
BRANCH  15  18
HETATM   18  C           1     -21.778  -8.544  -4.554  0.00  0.00     0.274 C 
HETATM   19  C           1     -21.442  -8.103  -3.137  0.00  0.00     0.042 C 
HETATM   20  C           1     -19.931  -8.123  -2.943  0.00  0.00     0.003 C 
HETATM   21 Se           1     -19.262  -9.930  -3.234  0.00  0.00     0.000 Se
HETATM   22  C           1     -17.398  -9.471  -2.893  0.00  0.00     0.000 C 
HETATM   23  H           1     -20.227  -9.949  -4.646  0.00  0.00     0.275 HD
HETATM   24  N           1     -21.263  -9.936  -4.780  0.00  0.00    -0.067 N 
HETATM   25  H           1     -21.710 -10.588  -4.096  0.00  0.00     0.275 HD
HETATM   26  H           1     -21.495 -10.239  -5.753  0.00  0.00     0.275 HD
ENDBRANCH  15  18
ENDBRANCH   1  14
TORSDOF 6
ENDMDL
MODEL 2
REMARK VINA RESULT:      -7.1      3.274      7.737
REMARK  6 active torsions:
REMARK  status: ('A' for Active; 'I' for Inactive)
REMARK       I    between atoms: C_1  and  N_24 
REMARK    1  A    between atoms: C_1  and  C_2 
REMARK    2  A    between atoms: C_13  and  C_16 
REMARK    3  A    between atoms: C_16  and  C_20 
REMARK    4  A    between atoms: O_19  and  C_26 
REMARK    5  A    between atoms: C_20  and  C_21 
REMARK    6  A    between atoms: C_20  and  N_24 
ROOT
HETATM    1  C           1     -21.008  -6.248  -4.452  0.00  0.00     0.189 C 
ENDROOT
BRANCH   1   2
HETATM    2  C           1     -21.154  -5.750  -3.021  0.00  0.00     0.074 C 
BRANCH   2   3
HETATM    3  C           1     -21.309  -6.918  -2.099  0.00  0.00    -0.056 A 
HETATM    4  C           1     -20.445  -8.008  -2.199  0.00  0.00     0.010 A 
HETATM    5  C           1     -20.590  -9.096  -1.340  0.00  0.00     0.037 A 
HETATM    6  C           1     -21.599  -9.095  -0.378  0.00  0.00     0.065 A 
HETATM    7  C           1     -22.464  -8.005  -0.275  0.00  0.00     0.037 A 
HETATM    8  C           1     -22.319  -6.917  -1.136  0.00  0.00     0.010 A 
BRANCH   6   9
HETATM    9  O           1     -21.740 -10.152   0.459  0.00  0.00    -0.361 OA
HETATM   10  H           1     -20.887 -10.303   0.898  0.00  0.00     0.217 HD
ENDBRANCH   6   9
ENDBRANCH   2   3
ENDBRANCH   1   2
BRANCH   1  11
HETATM   11  C           1     -22.307  -6.870  -4.904  0.00  0.00     0.197 C 
HETATM   12  O           1     -23.320  -6.156  -5.064  0.00  0.00    -0.646 OA
HETATM   13  O           1     -22.369  -8.100  -5.119  0.00  0.00    -0.646 OA
ENDBRANCH   1  11
BRANCH   1  14
HETATM   14  N           1     -20.681  -5.133  -5.321  0.00  0.00    -0.344 N 
HETATM   15  C           1     -20.317  -5.360  -6.620  0.00  0.00     0.249 C 
HETATM   16  O           1     -20.270  -6.491  -7.045  0.00  0.00    -0.271 OA
HETATM   17  H           1     -20.721  -4.186  -4.965  0.00  0.00     0.163 HD
BRANCH  15  18
HETATM   18  C           1     -19.977  -4.201  -7.523  0.00  0.00     0.274 C 
HETATM   19  C           1     -21.113  -3.187  -7.500  0.00  0.00     0.042 C 
HETATM   20  C           1     -22.397  -3.849  -7.985  0.00  0.00     0.003 C 
HETATM   21 Se           1     -22.146  -4.498  -9.805  0.00  0.00     0.000 Se
HETATM   22  C           1     -23.949  -5.219  -9.971  0.00  0.00     0.000 C 
HETATM   23  H           1     -20.665  -5.156  -9.257  0.00  0.00     0.275 HD
HETATM   24  N           1     -19.784  -4.702  -8.925  0.00  0.00    -0.067 N 
HETATM   25  H           1     -19.549  -3.900  -9.552  0.00  0.00     0.275 HD
HETATM   26  H           1     -19.004  -5.397  -8.941  0.00  0.00     0.275 HD
ENDBRANCH  15  18
ENDBRANCH   1  14
TORSDOF 6
ENDMDL
MODEL 3
REMARK VINA RESULT:      -7.1      2.238      3.088
REMARK  6 active torsions:
REMARK  status: ('A' for Active; 'I' for Inactive)
REMARK       I    between atoms: C_1  and  N_24 
REMARK    1  A    between atoms: C_1  and  C_2 
REMARK    2  A    between atoms: C_13  and  C_16 
REMARK    3  A    between atoms: C_16  and  C_20 
REMARK    4  A    between atoms: O_19  and  C_26 
REMARK    5  A    between atoms: C_20  and  C_21 
REMARK    6  A    between atoms: C_20  and  N_24 
ROOT
HETATM    1  C           1     -21.073  -6.021  -5.221  0.00  0.00     0.189 C 
ENDROOT
BRANCH   1   2
HETATM    2  C           1     -20.365  -4.767  -5.714  0.00  0.00     0.074 C 
BRANCH   2   3
HETATM    3  C           1     -20.836  -4.438  -7.096  0.00  0.00    -0.056 A 
HETATM    4  C           1     -19.915  -4.312  -8.136  0.00  0.00     0.010 A 
HETATM    5  C           1     -20.355  -4.005  -9.423  0.00  0.00     0.037 A 
HETATM    6  C           1     -21.715  -3.825  -9.672  0.00  0.00     0.065 A 
HETATM    7  C           1     -22.636  -3.951  -8.632  0.00  0.00     0.037 A 
HETATM    8  C           1     -22.197  -4.257  -7.344  0.00  0.00     0.010 A 
BRANCH   6   9
HETATM    9  O           1     -22.142  -3.527 -10.923  0.00  0.00    -0.361 OA
HETATM   10  H           1     -22.366  -4.360 -11.370  0.00  0.00     0.217 HD
ENDBRANCH   6   9
ENDBRANCH   2   3
ENDBRANCH   1   2
BRANCH   1  11
HETATM   11  C           1     -20.631  -7.206  -6.045  0.00  0.00     0.197 C 
HETATM   12  O           1     -19.434  -7.317  -6.386  0.00  0.00    -0.646 OA
HETATM   13  O           1     -21.462  -8.076  -6.385  0.00  0.00    -0.646 OA
ENDBRANCH   1  11
BRANCH   1  14
HETATM   14  N           1     -20.736  -6.250  -3.828  0.00  0.00    -0.344 N 
HETATM   15  C           1     -21.728  -6.462  -2.909  0.00  0.00     0.249 C 
HETATM   16  O           1     -22.885  -6.459  -3.258  0.00  0.00    -0.271 OA
HETATM   17  H           1     -19.767  -6.253  -3.537  0.00  0.00     0.163 HD
BRANCH  15  18
HETATM   18  C           1     -21.377  -6.701  -1.462  0.00  0.00     0.274 C 
HETATM   19  C           1     -20.371  -7.838  -1.362  0.00  0.00     0.042 C 
HETATM   20  C           1     -20.975  -9.106  -1.954  0.00  0.00     0.003 C 
HETATM   21 Se           1     -22.587  -9.580  -0.968  0.00  0.00     0.000 Se
HETATM   22  C           1     -22.970 -11.166  -2.034  0.00  0.00     0.000 C 
HETATM   23  H           1     -23.033  -7.935  -1.109  0.00  0.00     0.275 HD
HETATM   24  N           1     -22.620  -7.066  -0.703  0.00  0.00    -0.067 N 
HETATM   25  H           1     -22.379  -7.232   0.300  0.00  0.00     0.275 HD
HETATM   26  H           1     -23.311  -6.284  -0.770  0.00  0.00     0.275 HD
ENDBRANCH  15  18
ENDBRANCH   1  14
TORSDOF 6
ENDMDL
MODEL 4
REMARK VINA RESULT:      -6.8      3.916      7.012
REMARK  6 active torsions:
REMARK  status: ('A' for Active; 'I' for Inactive)
REMARK       I    between atoms: C_1  and  N_24 
REMARK    1  A    between atoms: C_1  and  C_2 
REMARK    2  A    between atoms: C_13  and  C_16 
REMARK    3  A    between atoms: C_16  and  C_20 
REMARK    4  A    between atoms: O_19  and  C_26 
REMARK    5  A    between atoms: C_20  and  C_21 
REMARK    6  A    between atoms: C_20  and  N_24 
ROOT
HETATM    1  C           1     -21.146  -8.599  -4.858  0.00  0.00     0.189 C 
ENDROOT
BRANCH   1   2
HETATM    2  C           1     -20.294  -8.329  -3.626  0.00  0.00     0.074 C 
BRANCH   2   3
HETATM    3  C           1     -21.174  -8.235  -2.419  0.00  0.00    -0.056 A 
HETATM    4  C           1     -21.540  -6.987  -1.916  0.00  0.00     0.010 A 
HETATM    5  C           1     -22.360  -6.901  -0.791  0.00  0.00     0.037 A 
HETATM    6  C           1     -22.816  -8.063  -0.170  0.00  0.00     0.065 A 
HETATM    7  C           1     -22.451  -9.312  -0.673  0.00  0.00     0.037 A 
HETATM    8  C           1     -21.630  -9.398  -1.797  0.00  0.00     0.010 A 
BRANCH   6   9
HETATM    9  O           1     -23.614  -7.979   0.922  0.00  0.00    -0.361 OA
HETATM   10  H           1     -23.094  -8.257   1.695  0.00  0.00     0.217 HD
ENDBRANCH   6   9
ENDBRANCH   2   3
ENDBRANCH   1   2
BRANCH   1  11
HETATM   11  C           1     -21.299  -7.327  -5.654  0.00  0.00     0.197 C 
HETATM   12  O           1     -20.552  -7.108  -6.632  0.00  0.00    -0.646 OA
HETATM   13  O           1     -22.173  -6.491  -5.336  0.00  0.00    -0.646 OA
ENDBRANCH   1  11
BRANCH   1  14
HETATM   14  N           1     -20.502  -9.607  -5.679  0.00  0.00    -0.344 N 
HETATM   15  C           1     -20.915 -10.910  -5.613  0.00  0.00     0.249 C 
HETATM   16  O           1     -21.817 -11.221  -4.871  0.00  0.00    -0.271 OA
HETATM   17  H           1     -19.747  -9.346  -6.300  0.00  0.00     0.163 HD
BRANCH  15  18
HETATM   18  C           1     -20.246 -11.958  -6.468  0.00  0.00     0.274 C 
HETATM   19  C           1     -19.714 -13.075  -5.580  0.00  0.00     0.042 C 
HETATM   20  C           1     -18.703 -12.503  -4.594  0.00  0.00     0.003 C 
HETATM   21 Se           1     -17.225 -11.694  -5.573  0.00  0.00     0.000 Se
HETATM   22  C           1     -16.256 -11.139  -3.976  0.00  0.00     0.000 C 
HETATM   23  H           1     -18.416 -10.943  -6.545  0.00  0.00     0.275 HD
HETATM   24  N           1     -19.108 -11.334  -7.222  0.00  0.00    -0.067 N 
HETATM   25  H           1     -18.644 -12.059  -7.814  0.00  0.00     0.275 HD
HETATM   26  H           1     -19.474 -10.568  -7.831  0.00  0.00     0.275 HD
ENDBRANCH  15  18
ENDBRANCH   1  14
TORSDOF 6
ENDMDL
MODEL 5
REMARK VINA RESULT:      -6.7      2.424      3.636
REMARK  6 active torsions:
REMARK  status: ('A' for Active; 'I' for Inactive)
REMARK       I    between atoms: C_1  and  N_24 
REMARK    1  A    between atoms: C_1  and  C_2 
REMARK    2  A    between atoms: C_13  and  C_16 
REMARK    3  A    between atoms: C_16  and  C_20 
REMARK    4  A    between atoms: O_19  and  C_26 
REMARK    5  A    between atoms: C_20  and  C_21 
REMARK    6  A    between atoms: C_20  and  N_24 
ROOT
HETATM    1  C           1     -21.438  -7.224  -4.080  0.00  0.00     0.189 C 
ENDROOT
BRANCH   1   2
HETATM    2  C           1     -22.408  -6.393  -4.907  0.00  0.00     0.074 C 
BRANCH   2   3
HETATM    3  C           1     -21.647  -5.584  -5.910  0.00  0.00    -0.056 A 
HETATM    4  C           1     -22.327  -4.899  -6.916  0.00  0.00     0.010 A 
HETATM    5  C           1     -21.616  -4.145  -7.850  0.00  0.00     0.037 A 
HETATM    6  C           1     -20.226  -4.075  -7.777  0.00  0.00     0.065 A 
HETATM    7  C           1     -19.545  -4.760  -6.771  0.00  0.00     0.037 A 
HETATM    8  C           1     -20.255  -5.514  -5.836  0.00  0.00     0.010 A 
BRANCH   6   9
HETATM    9  O           1     -19.535  -3.343  -8.684  0.00  0.00    -0.361 OA
HETATM   10  H           1     -18.642  -3.719  -8.757  0.00  0.00     0.217 HD
ENDBRANCH   6   9
ENDBRANCH   2   3
ENDBRANCH   1   2
BRANCH   1  11
HETATM   11  C           1     -21.616  -6.900  -2.617  0.00  0.00     0.197 C 
HETATM   12  O           1     -20.973  -7.534  -1.753  0.00  0.00    -0.646 OA
HETATM   13  O           1     -22.407  -5.996  -2.269  0.00  0.00    -0.646 OA
ENDBRANCH   1  11
BRANCH   1  14
HETATM   14  N           1     -21.702  -8.634  -4.297  0.00  0.00    -0.344 N 
HETATM   15  C           1     -20.888  -9.365  -5.118  0.00  0.00     0.249 C 
HETATM   16  O           1     -19.947  -8.836  -5.663  0.00  0.00    -0.271 OA
HETATM   17  H           1     -22.490  -9.076  -3.841  0.00  0.00     0.163 HD
BRANCH  15  18
HETATM   18  C           1     -21.162 -10.831  -5.344  0.00  0.00     0.274 C 
HETATM   19  C           1     -20.918 -11.599  -4.052  0.00  0.00     0.042 C 
HETATM   20  C           1     -19.470 -11.415  -3.616  0.00  0.00     0.003 C 
HETATM   21 Se           1     -18.282 -12.090  -5.005  0.00  0.00     0.000 Se
HETATM   22  C           1     -16.643 -11.659  -4.041  0.00  0.00     0.000 C 
HETATM   23  H           1     -19.254 -11.224  -6.114  0.00  0.00     0.275 HD
HETATM   24  N           1     -20.246 -11.350  -6.414  0.00  0.00    -0.067 N 
HETATM   25  H           1     -20.435 -12.366  -6.571  0.00  0.00     0.275 HD
HETATM   26  H           1     -20.414 -10.823  -7.301  0.00  0.00     0.275 HD
ENDBRANCH  15  18
ENDBRANCH   1  14
TORSDOF 6
ENDMDL
MODEL 6
REMARK VINA RESULT:      -6.7      5.382      7.542
REMARK  6 active torsions:
REMARK  status: ('A' for Active; 'I' for Inactive)
REMARK       I    between atoms: C_1  and  N_24 
REMARK    1  A    between atoms: C_1  and  C_2 
REMARK    2  A    between atoms: C_13  and  C_16 
REMARK    3  A    between atoms: C_16  and  C_20 
REMARK    4  A    between atoms: O_19  and  C_26 
REMARK    5  A    between atoms: C_20  and  C_21 
REMARK    6  A    between atoms: C_20  and  N_24 
ROOT
HETATM    1  C           1     -19.857  -9.349  -4.091  0.00  0.00     0.189 C 
ENDROOT
BRANCH   1   2
HETATM    2  C           1     -20.551  -8.005  -3.922  0.00  0.00     0.074 C 
BRANCH   2   3
HETATM    3  C           1     -21.318  -7.996  -2.637  0.00  0.00    -0.056 A 
HETATM    4  C           1     -21.623  -9.198  -1.997  0.00  0.00     0.010 A 
HETATM    5  C           1     -22.339  -9.189  -0.800  0.00  0.00     0.037 A 
HETATM    6  C           1     -22.748  -7.979  -0.241  0.00  0.00     0.065 A 
HETATM    7  C           1     -22.443  -6.777  -0.880  0.00  0.00     0.037 A 
HETATM    8  C           1     -21.728  -6.785  -2.078  0.00  0.00     0.010 A 
BRANCH   6   9
HETATM    9  O           1     -23.442  -7.970   0.923  0.00  0.00    -0.361 OA
HETATM   10  H           1     -24.263  -8.472   0.787  0.00  0.00     0.217 HD
ENDBRANCH   6   9
ENDBRANCH   2   3
ENDBRANCH   1   2
BRANCH   1  11
HETATM   11  C           1     -20.238  -9.949  -5.423  0.00  0.00     0.197 C 
HETATM   12  O           1     -19.477 -10.769  -5.979  0.00  0.00    -0.646 OA
HETATM   13  O           1     -21.315  -9.625  -5.969  0.00  0.00    -0.646 OA
ENDBRANCH   1  11
BRANCH   1  14
HETATM   14  N           1     -18.420  -9.161  -4.041  0.00  0.00    -0.344 N 
HETATM   15  C           1     -17.681  -9.780  -3.070  0.00  0.00     0.249 C 
HETATM   16  O           1     -18.227 -10.485  -2.253  0.00  0.00    -0.271 OA
HETATM   17  H           1     -17.963  -8.571  -4.725  0.00  0.00     0.163 HD
BRANCH  15  18
HETATM   18  C           1     -16.187  -9.585  -3.018  0.00  0.00     0.274 C 
HETATM   19  C           1     -15.593  -9.827  -4.398  0.00  0.00     0.042 C 
HETATM   20  C           1     -15.904 -11.251  -4.843  0.00  0.00     0.003 C 
HETATM   21 Se           1     -15.130 -12.512  -3.575  0.00  0.00     0.000 Se
HETATM   22  C           1     -15.758 -14.098  -4.518  0.00  0.00     0.000 C 
HETATM   23  H           1     -15.804 -11.532  -2.346  0.00  0.00     0.275 HD
HETATM   24  N           1     -15.591 -10.557  -2.041  0.00  0.00    -0.067 N 
HETATM   25  H           1     -14.555 -10.422  -2.004  0.00  0.00     0.275 HD
HETATM   26  H           1     -15.998 -10.390  -1.093  0.00  0.00     0.275 HD
ENDBRANCH  15  18
ENDBRANCH   1  14
TORSDOF 6
ENDMDL
MODEL 7
REMARK VINA RESULT:      -6.4      5.768      8.532
REMARK  6 active torsions:
REMARK  status: ('A' for Active; 'I' for Inactive)
REMARK       I    between atoms: C_1  and  N_24 
REMARK    1  A    between atoms: C_1  and  C_2 
REMARK    2  A    between atoms: C_13  and  C_16 
REMARK    3  A    between atoms: C_16  and  C_20 
REMARK    4  A    between atoms: O_19  and  C_26 
REMARK    5  A    between atoms: C_20  and  C_21 
REMARK    6  A    between atoms: C_20  and  N_24 
ROOT
HETATM    1  C           1     -21.772  -8.149  -1.857  0.00  0.00     0.189 C 
ENDROOT
BRANCH   1   2
HETATM    2  C           1     -21.551  -8.455  -0.383  0.00  0.00     0.074 C 
BRANCH   2   3
HETATM    3  C           1     -22.062  -9.828  -0.075  0.00  0.00    -0.056 A 
HETATM    4  C           1     -23.396 -10.149  -0.326  0.00  0.00     0.010 A 
HETATM    5  C           1     -23.871 -11.428  -0.039  0.00  0.00     0.037 A 
HETATM    6  C           1     -23.013 -12.387   0.497  0.00  0.00     0.065 A 
HETATM    7  C           1     -21.678 -12.067   0.748  0.00  0.00     0.037 A 
HETATM    8  C           1     -21.202 -10.787   0.461  0.00  0.00     0.010 A 
BRANCH   6   9
HETATM    9  O           1     -23.474 -13.631   0.776  0.00  0.00    -0.361 OA
HETATM   10  H           1     -24.318 -13.539   1.249  0.00  0.00     0.217 HD
ENDBRANCH   6   9
ENDBRANCH   2   3
ENDBRANCH   1   2
BRANCH   1  11
HETATM   11  C           1     -22.034  -6.673  -2.031  0.00  0.00     0.197 C 
HETATM   12  O           1     -22.379  -5.979  -1.050  0.00  0.00    -0.646 OA
HETATM   13  O           1     -21.906  -6.143  -3.156  0.00  0.00    -0.646 OA
ENDBRANCH   1  11
BRANCH   1  14
HETATM   14  N           1     -20.589  -8.520  -2.611  0.00  0.00    -0.344 N 
HETATM   15  C           1     -20.670  -9.477  -3.585  0.00  0.00     0.249 C 
HETATM   16  O           1     -21.727 -10.013  -3.819  0.00  0.00    -0.271 OA
HETATM   17  H           1     -19.703  -8.070  -2.415  0.00  0.00     0.163 HD
BRANCH  15  18
HETATM   18  C           1     -19.440  -9.863  -4.369  0.00  0.00     0.274 C 
HETATM   19  C           1     -19.302 -11.379  -4.387  0.00  0.00     0.042 C 
HETATM   20  C           1     -19.177 -11.895  -2.959  0.00  0.00     0.003 C 
HETATM   21 Se           1     -17.602 -11.112  -2.120  0.00  0.00     0.000 Se
HETATM   22  C           1     -17.856 -12.021  -0.415  0.00  0.00     0.000 C 
HETATM   23  H           1     -18.142  -9.613  -2.744  0.00  0.00     0.275 HD
HETATM   24  N           1     -18.227  -9.259  -3.722  0.00  0.00    -0.067 N 
HETATM   25  H           1     -17.375  -9.525  -4.264  0.00  0.00     0.275 HD
HETATM   26  H           1     -18.322  -8.218  -3.711  0.00  0.00     0.275 HD
ENDBRANCH  15  18
ENDBRANCH   1  14
TORSDOF 6
ENDMDL
MODEL 8
REMARK VINA RESULT:      -6.3      4.495      6.786
REMARK  6 active torsions:
REMARK  status: ('A' for Active; 'I' for Inactive)
REMARK       I    between atoms: C_1  and  N_24 
REMARK    1  A    between atoms: C_1  and  C_2 
REMARK    2  A    between atoms: C_13  and  C_16 
REMARK    3  A    between atoms: C_16  and  C_20 
REMARK    4  A    between atoms: O_19  and  C_26 
REMARK    5  A    between atoms: C_20  and  C_21 
REMARK    6  A    between atoms: C_20  and  N_24 
ROOT
HETATM    1  C           1     -21.383  -8.736  -0.650  0.00  0.00     0.189 C 
ENDROOT
BRANCH   1   2
HETATM    2  C           1     -21.713  -7.359  -1.208  0.00  0.00     0.074 C 
BRANCH   2   3
HETATM    3  C           1     -21.314  -7.294  -2.649  0.00  0.00    -0.056 A 
HETATM    4  C           1     -20.305  -8.127  -3.133  0.00  0.00     0.010 A 
HETATM    5  C           1     -19.934  -8.066  -4.475  0.00  0.00     0.037 A 
HETATM    6  C           1     -20.572  -7.173  -5.335  0.00  0.00     0.065 A 
HETATM    7  C           1     -21.581  -6.340  -4.853  0.00  0.00     0.037 A 
HETATM    8  C           1     -21.953  -6.400  -3.509  0.00  0.00     0.010 A 
BRANCH   6   9
HETATM    9  O           1     -20.211  -7.114  -6.640  0.00  0.00    -0.361 OA
HETATM   10  H           1     -20.963  -7.422  -7.174  0.00  0.00     0.217 HD
ENDBRANCH   6   9
ENDBRANCH   2   3
ENDBRANCH   1   2
BRANCH   1  11
HETATM   11  C           1     -21.400  -8.686   0.858  0.00  0.00     0.197 C 
HETATM   12  O           1     -22.110  -7.843   1.447  0.00  0.00    -0.646 OA
HETATM   13  O           1     -20.705  -9.488   1.519  0.00  0.00    -0.646 OA
ENDBRANCH   1  11
BRANCH   1  14
HETATM   14  N           1     -22.369  -9.694  -1.111  0.00  0.00    -0.344 N 
HETATM   15  C           1     -21.979 -10.949  -1.494  0.00  0.00     0.249 C 
HETATM   16  O           1     -20.812 -11.259  -1.446  0.00  0.00    -0.271 OA
HETATM   17  H           1     -23.347  -9.434  -1.151  0.00  0.00     0.163 HD
BRANCH  15  18
HETATM   18  C           1     -23.005 -11.946  -1.973  0.00  0.00     0.274 C 
HETATM   19  C           1     -24.050 -12.163  -0.888  0.00  0.00     0.042 C 
HETATM   20  C           1     -23.375 -12.695   0.370  0.00  0.00     0.003 C 
HETATM   21 Se           1     -22.496 -14.387  -0.030  0.00  0.00     0.000 Se
HETATM   22  C           1     -21.819 -14.651   1.779  0.00  0.00     0.000 C 
HETATM   23  H           1     -21.864 -13.613  -1.418  0.00  0.00     0.275 HD
HETATM   24  N           1     -22.327 -13.249  -2.281  0.00  0.00    -0.067 N 
HETATM   25  H           1     -23.036 -13.940  -2.613  0.00  0.00     0.275 HD
HETATM   26  H           1     -21.610 -13.100  -3.027  0.00  0.00     0.275 HD
ENDBRANCH  15  18
ENDBRANCH   1  14
TORSDOF 6
ENDMDL
MODEL 9
REMARK VINA RESULT:      -6.2      5.912      7.929
REMARK  6 active torsions:
REMARK  status: ('A' for Active; 'I' for Inactive)
REMARK       I    between atoms: C_1  and  N_24 
REMARK    1  A    between atoms: C_1  and  C_2 
REMARK    2  A    between atoms: C_13  and  C_16 
REMARK    3  A    between atoms: C_16  and  C_20 
REMARK    4  A    between atoms: O_19  and  C_26 
REMARK    5  A    between atoms: C_20  and  C_21 
REMARK    6  A    between atoms: C_20  and  N_24 
ROOT
HETATM    1  C           1     -18.919 -10.835  -1.533  0.00  0.00     0.189 C 
ENDROOT
BRANCH   1   2
HETATM    2  C           1     -20.332 -10.812  -2.098  0.00  0.00     0.074 C 
BRANCH   2   3
HETATM    3  C           1     -20.885  -9.424  -2.007  0.00  0.00    -0.056 A 
HETATM    4  C           1     -21.590  -9.027  -0.871  0.00  0.00     0.010 A 
HETATM    5  C           1     -22.105  -7.734  -0.787  0.00  0.00     0.037 A 
HETATM    6  C           1     -21.915  -6.837  -1.837  0.00  0.00     0.065 A 
HETATM    7  C           1     -21.209  -7.233  -2.973  0.00  0.00     0.037 A 
HETATM    8  C           1     -20.694  -8.527  -3.058  0.00  0.00     0.010 A 
BRANCH   6   9
HETATM    9  O           1     -22.414  -5.580  -1.755  0.00  0.00    -0.361 OA
HETATM   10  H           1     -22.082  -5.178  -0.935  0.00  0.00     0.217 HD
ENDBRANCH   6   9
ENDBRANCH   2   3
ENDBRANCH   1   2
BRANCH   1  11
HETATM   11  C           1     -18.851 -11.815  -0.388  0.00  0.00     0.197 C 
HETATM   12  O           1     -19.885 -12.404  -0.006  0.00  0.00    -0.646 OA
HETATM   13  O           1     -17.759 -12.039   0.180  0.00  0.00    -0.646 OA
ENDBRANCH   1  11
BRANCH   1  14
HETATM   14  N           1     -17.990 -11.241  -2.571  0.00  0.00    -0.344 N 
HETATM   15  C           1     -17.122 -10.330  -3.108  0.00  0.00     0.249 C 
HETATM   16  O           1     -17.129  -9.186  -2.718  0.00  0.00    -0.271 OA
HETATM   17  H           1     -17.985 -12.199  -2.897  0.00  0.00     0.163 HD
BRANCH  15  18
HETATM   18  C           1     -16.156 -10.752  -4.187  0.00  0.00     0.274 C 
HETATM   19  C           1     -16.447  -9.976  -5.464  0.00  0.00     0.042 C 
HETATM   20  C           1     -17.873 -10.262  -5.919  0.00  0.00     0.003 C 
HETATM   21 Se           1     -18.076 -12.170  -6.260  0.00  0.00     0.000 Se
HETATM   22  C           1     -19.949 -12.043  -6.785  0.00  0.00     0.000 C 
HETATM   23  H           1     -17.290 -12.417  -4.761  0.00  0.00     0.275 HD
HETATM   24  N           1     -16.313 -12.222  -4.449  0.00  0.00    -0.067 N 
HETATM   25  H           1     -15.644 -12.516  -5.196  0.00  0.00     0.275 HD
HETATM   26  H           1     -16.112 -12.755  -3.572  0.00  0.00     0.275 HD
ENDBRANCH  15  18
ENDBRANCH   1  14
TORSDOF 6
ENDMDL
