MODEL 1
REMARK VINA RESULT:      -7.2      0.000      0.000
REMARK  10 active torsions:
REMARK  status: ('A' for Active; 'I' for Inactive)
REMARK    1  A    between atoms: C_5  and  C_20 
REMARK    2  A    between atoms: S_7  and  C_23 
REMARK    3  A    between atoms: C_8  and  C_9 
REMARK    4  A    between atoms: C_9  and  C_16 
REMARK    5  A    between atoms: C_12  and  O_25 
REMARK    6  A    between atoms: N_14  and  C_16 
REMARK    7  A    between atoms: C_16  and  C_21 
REMARK    8  A    between atoms: C_20  and  C_24 
REMARK    9  A    between atoms: C_20  and  N_22 
REMARK       I    between atoms: C_21  and  N_22 
REMARK   10  A    between atoms: C_23  and  C_24 
ROOT
HETATM    1  C           1     -21.041  -5.709  -6.833  0.00  0.00     0.278 C 
ENDROOT
BRANCH   1   2
HETATM    2  C           1     -20.861  -5.222  -5.401  0.00  0.00     0.081 C 
BRANCH   2   3
HETATM    3  C           1     -21.146  -6.345  -4.453  0.00  0.00    -0.056 A 
HETATM    4  C           1     -21.295  -7.645  -4.937  0.00  0.00     0.010 A 
HETATM    5  C           1     -21.560  -8.691  -4.052  0.00  0.00     0.037 A 
HETATM    6  C           1     -21.678  -8.437  -2.686  0.00  0.00     0.065 A 
HETATM    7  C           1     -21.528  -7.137  -2.203  0.00  0.00     0.037 A 
HETATM    8  C           1     -21.263  -6.091  -3.087  0.00  0.00     0.010 A 
BRANCH   6   9
HETATM    9  O           1     -21.935  -9.453  -1.828  0.00  0.00    -0.361 OA
HETATM   10  H           1     -22.866  -9.709  -1.935  0.00  0.00     0.217 HD
ENDBRANCH   6   9
ENDBRANCH   2   3
ENDBRANCH   1   2
BRANCH   1  11
HETATM   11  N           1     -19.712  -6.130  -7.388  0.00  0.00    -0.066 N 
HETATM   12  H           1     -19.835  -6.985  -7.974  0.00  0.00     0.275 HD
HETATM   13  H           1     -19.057  -6.338  -6.601  0.00  0.00     0.275 HD
HETATM   14  H           1     -19.319  -5.359  -7.974  0.00  0.00     0.275 HD
ENDBRANCH   1  11
BRANCH   1  15
HETATM   15  C           1     -21.607  -4.593  -7.677  0.00  0.00     0.249 C 
HETATM   16  N           1     -22.158  -4.871  -8.898  0.00  0.00    -0.345 N 
HETATM   17  H           1     -22.187  -5.825  -9.236  0.00  0.00     0.163 HD
HETATM   18  O           1     -21.573  -3.455  -7.275  0.00  0.00    -0.271 OA
BRANCH  16  19
HETATM   19  C           1     -22.703  -3.799  -9.710  0.00  0.00     0.186 C 
BRANCH  19  20
HETATM   20  C           1     -24.210  -3.845  -9.658  0.00  0.00     0.196 C 
HETATM   21  O           1     -24.811  -4.917  -9.886  0.00  0.00    -0.646 OA
HETATM   22  O           1     -24.858  -2.810  -9.387  0.00  0.00    -0.646 OA
ENDBRANCH  19  20
BRANCH  19  23
HETATM   23  C           1     -22.240  -3.968 -11.151  0.00  0.00     0.046 C 
BRANCH  23  24
HETATM   24  C           1     -22.568  -2.708 -11.942  0.00  0.00     0.076 C 
BRANCH  24  25
HETATM   25  S           1     -23.870  -3.073 -13.152  0.00  0.00    -0.173 SA
HETATM   26  C           1     -22.902  -2.637 -14.623  0.00  0.00     0.089 C 
ENDBRANCH  24  25
ENDBRANCH  23  24
ENDBRANCH  19  23
ENDBRANCH  16  19
ENDBRANCH   1  15
TORSDOF 10
ENDMDL
MODEL 2
REMARK VINA RESULT:      -7.1      3.785      8.655
REMARK  10 active torsions:
REMARK  status: ('A' for Active; 'I' for Inactive)
REMARK    1  A    between atoms: C_5  and  C_20 
REMARK    2  A    between atoms: S_7  and  C_23 
REMARK    3  A    between atoms: C_8  and  C_9 
REMARK    4  A    between atoms: C_9  and  C_16 
REMARK    5  A    between atoms: C_12  and  O_25 
REMARK    6  A    between atoms: N_14  and  C_16 
REMARK    7  A    between atoms: C_16  and  C_21 
REMARK    8  A    between atoms: C_20  and  C_24 
REMARK    9  A    between atoms: C_20  and  N_22 
REMARK       I    between atoms: C_21  and  N_22 
REMARK   10  A    between atoms: C_23  and  C_24 
ROOT
HETATM    1  C           1     -22.292  -5.047  -6.974  0.00  0.00     0.278 C 
ENDROOT
BRANCH   1   2
HETATM    2  C           1     -21.680  -3.748  -7.482  0.00  0.00     0.081 C 
BRANCH   2   3
HETATM    3  C           1     -21.700  -3.739  -8.978  0.00  0.00    -0.056 A 
HETATM    4  C           1     -22.882  -3.441  -9.658  0.00  0.00     0.010 A 
HETATM    5  C           1     -22.900  -3.432 -11.053  0.00  0.00     0.037 A 
HETATM    6  C           1     -21.738  -3.723 -11.768  0.00  0.00     0.065 A 
HETATM    7  C           1     -20.557  -4.021 -11.089  0.00  0.00     0.037 A 
HETATM    8  C           1     -20.539  -4.030  -9.694  0.00  0.00     0.010 A 
BRANCH   6   9
HETATM    9  O           1     -21.756  -3.714 -13.123  0.00  0.00    -0.361 OA
HETATM   10  H           1     -21.234  -2.954 -13.425  0.00  0.00     0.217 HD
ENDBRANCH   6   9
ENDBRANCH   2   3
ENDBRANCH   1   2
BRANCH   1  11
HETATM   11  N           1     -23.691  -4.788  -6.499  0.00  0.00    -0.066 N 
HETATM   12  H           1     -24.177  -4.159  -7.177  0.00  0.00     0.275 HD
HETATM   13  H           1     -23.660  -4.331  -5.560  0.00  0.00     0.275 HD
HETATM   14  H           1     -24.209  -5.692  -6.429  0.00  0.00     0.275 HD
ENDBRANCH   1  11
BRANCH   1  15
HETATM   15  C           1     -21.464  -5.581  -5.831  0.00  0.00     0.249 C 
HETATM   16  N           1     -22.077  -6.164  -4.755  0.00  0.00    -0.345 N 
HETATM   17  H           1     -23.086  -6.239  -4.726  0.00  0.00     0.163 HD
HETATM   18  O           1     -20.260  -5.491  -5.864  0.00  0.00    -0.271 OA
BRANCH  16  19
HETATM   19  C           1     -21.282  -6.677  -3.657  0.00  0.00     0.186 C 
BRANCH  19  20
HETATM   20  C           1     -20.935  -8.122  -3.918  0.00  0.00     0.196 C 
HETATM   21  O           1     -19.740  -8.492  -3.895  0.00  0.00    -0.646 OA
HETATM   22  O           1     -21.841  -8.949  -4.159  0.00  0.00    -0.646 OA
ENDBRANCH  19  20
BRANCH  19  23
HETATM   23  C           1     -22.077  -6.573  -2.361  0.00  0.00     0.046 C 
BRANCH  23  24
HETATM   24  C           1     -21.382  -7.377  -1.271  0.00  0.00     0.076 C 
BRANCH  24  25
HETATM   25  S           1     -22.596  -7.878  -0.019  0.00  0.00    -0.173 SA
HETATM   26  C           1     -21.391  -8.465   1.204  0.00  0.00     0.089 C 
ENDBRANCH  24  25
ENDBRANCH  23  24
ENDBRANCH  19  23
ENDBRANCH  16  19
ENDBRANCH   1  15
TORSDOF 10
ENDMDL
MODEL 3
REMARK VINA RESULT:      -6.8     12.932     16.126
REMARK  10 active torsions:
REMARK  status: ('A' for Active; 'I' for Inactive)
REMARK    1  A    between atoms: C_5  and  C_20 
REMARK    2  A    between atoms: S_7  and  C_23 
REMARK    3  A    between atoms: C_8  and  C_9 
REMARK    4  A    between atoms: C_9  and  C_16 
REMARK    5  A    between atoms: C_12  and  O_25 
REMARK    6  A    between atoms: N_14  and  C_16 
REMARK    7  A    between atoms: C_16  and  C_21 
REMARK    8  A    between atoms: C_20  and  C_24 
REMARK    9  A    between atoms: C_20  and  N_22 
REMARK       I    between atoms: C_21  and  N_22 
REMARK   10  A    between atoms: C_23  and  C_24 
ROOT
HETATM    1  C           1     -36.339  -0.782 -10.823  0.00  0.00     0.278 C 
ENDROOT
BRANCH   1   2
HETATM    2  C           1     -35.904   0.418 -11.655  0.00  0.00     0.081 C 
BRANCH   2   3
HETATM    3  C           1     -36.159   0.140 -13.103  0.00  0.00    -0.056 A 
HETATM    4  C           1     -37.461  -0.086 -13.551  0.00  0.00     0.010 A 
HETATM    5  C           1     -37.698  -0.345 -14.901  0.00  0.00     0.037 A 
HETATM    6  C           1     -36.635  -0.379 -15.803  0.00  0.00     0.065 A 
HETATM    7  C           1     -35.333  -0.153 -15.355  0.00  0.00     0.037 A 
HETATM    8  C           1     -35.096   0.106 -14.005  0.00  0.00     0.010 A 
BRANCH   6   9
HETATM    9  O           1     -36.865  -0.630 -17.114  0.00  0.00    -0.361 OA
HETATM   10  H           1     -36.265  -1.341 -17.394  0.00  0.00     0.217 HD
ENDBRANCH   6   9
ENDBRANCH   2   3
ENDBRANCH   1   2
BRANCH   1  11
HETATM   11  N           1     -36.587  -0.345  -9.409  0.00  0.00    -0.066 N 
HETATM   12  H           1     -35.993  -0.910  -8.762  0.00  0.00     0.275 HD
HETATM   13  H           1     -37.595  -0.489  -9.173  0.00  0.00     0.275 HD
HETATM   14  H           1     -36.347   0.666  -9.309  0.00  0.00     0.275 HD
ENDBRANCH   1  11
BRANCH   1  15
HETATM   15  C           1     -35.254  -1.829 -10.843  0.00  0.00     0.249 C 
HETATM   16  N           1     -35.449  -3.004 -11.518  0.00  0.00    -0.345 N 
HETATM   17  H           1     -36.320  -3.170 -12.005  0.00  0.00     0.163 HD
HETATM   18  O           1     -34.213  -1.632 -10.262  0.00  0.00    -0.271 OA
BRANCH  16  19
HETATM   19  C           1     -34.405  -4.011 -11.538  0.00  0.00     0.186 C 
BRANCH  19  20
HETATM   20  C           1     -33.670  -3.949 -12.854  0.00  0.00     0.196 C 
HETATM   21  O           1     -34.254  -3.528 -13.876  0.00  0.00    -0.646 OA
HETATM   22  O           1     -32.478  -4.319 -12.922  0.00  0.00    -0.646 OA
ENDBRANCH  19  20
BRANCH  19  23
HETATM   23  C           1     -35.028  -5.391 -11.369  0.00  0.00     0.046 C 
BRANCH  23  24
HETATM   24  C           1     -34.039  -6.314 -10.669  0.00  0.00     0.076 C 
BRANCH  24  25
HETATM   25  S           1     -34.946  -7.558  -9.708  0.00  0.00    -0.173 SA
HETATM   26  C           1     -33.755  -8.904  -9.951  0.00  0.00     0.089 C 
ENDBRANCH  24  25
ENDBRANCH  23  24
ENDBRANCH  19  23
ENDBRANCH  16  19
ENDBRANCH   1  15
TORSDOF 10
ENDMDL
MODEL 4
REMARK VINA RESULT:      -6.7      3.511      8.052
REMARK  10 active torsions:
REMARK  status: ('A' for Active; 'I' for Inactive)
REMARK    1  A    between atoms: C_5  and  C_20 
REMARK    2  A    between atoms: S_7  and  C_23 
REMARK    3  A    between atoms: C_8  and  C_9 
REMARK    4  A    between atoms: C_9  and  C_16 
REMARK    5  A    between atoms: C_12  and  O_25 
REMARK    6  A    between atoms: N_14  and  C_16 
REMARK    7  A    between atoms: C_16  and  C_21 
REMARK    8  A    between atoms: C_20  and  C_24 
REMARK    9  A    between atoms: C_20  and  N_22 
REMARK       I    between atoms: C_21  and  N_22 
REMARK   10  A    between atoms: C_23  and  C_24 
ROOT
HETATM    1  C           1     -20.885  -4.877  -6.498  0.00  0.00     0.278 C 
ENDROOT
BRANCH   1   2
HETATM    2  C           1     -20.634  -5.582  -7.824  0.00  0.00     0.081 C 
BRANCH   2   3
HETATM    3  C           1     -21.193  -4.758  -8.942  0.00  0.00    -0.056 A 
HETATM    4  C           1     -20.377  -4.388 -10.011  0.00  0.00     0.010 A 
HETATM    5  C           1     -20.898  -3.620 -11.053  0.00  0.00     0.037 A 
HETATM    6  C           1     -22.234  -3.220 -11.024  0.00  0.00     0.065 A 
HETATM    7  C           1     -23.050  -3.590  -9.954  0.00  0.00     0.037 A 
HETATM    8  C           1     -22.528  -4.358  -8.913  0.00  0.00     0.010 A 
BRANCH   6   9
HETATM    9  O           1     -22.740  -2.475 -12.035  0.00  0.00    -0.361 OA
HETATM   10  H           1     -22.339  -1.591 -11.987  0.00  0.00     0.217 HD
ENDBRANCH   6   9
ENDBRANCH   2   3
ENDBRANCH   1   2
BRANCH   1  11
HETATM   11  N           1     -19.573  -4.490  -5.881  0.00  0.00    -0.066 N 
HETATM   12  H           1     -19.652  -3.534  -5.468  0.00  0.00     0.275 HD
HETATM   13  H           1     -18.830  -4.493  -6.616  0.00  0.00     0.275 HD
HETATM   14  H           1     -19.325  -5.174  -5.132  0.00  0.00     0.275 HD
ENDBRANCH   1  11
BRANCH   1  15
HETATM   15  C           1     -21.625  -5.805  -5.566  0.00  0.00     0.249 C 
HETATM   16  N           1     -20.927  -6.637  -4.733  0.00  0.00    -0.345 N 
HETATM   17  H           1     -19.915  -6.630  -4.741  0.00  0.00     0.163 HD
HETATM   18  O           1     -22.832  -5.814  -5.556  0.00  0.00    -0.271 OA
BRANCH  16  19
HETATM   19  C           1     -21.637  -7.529  -3.837  0.00  0.00     0.186 C 
BRANCH  19  20
HETATM   20  C           1     -21.654  -6.940  -2.449  0.00  0.00     0.196 C 
HETATM   21  O           1     -22.390  -5.962  -2.193  0.00  0.00    -0.646 OA
HETATM   22  O           1     -20.930  -7.429  -1.554  0.00  0.00    -0.646 OA
ENDBRANCH  19  20
BRANCH  19  23
HETATM   23  C           1     -20.936  -8.882  -3.806  0.00  0.00     0.046 C 
BRANCH  23  24
HETATM   24  C           1     -19.600  -8.779  -4.530  0.00  0.00     0.076 C 
BRANCH  24  25
HETATM   25  S           1     -18.289  -9.470  -3.482  0.00  0.00    -0.173 SA
HETATM   26  C           1     -17.345 -10.240  -4.827  0.00  0.00     0.089 C 
ENDBRANCH  24  25
ENDBRANCH  23  24
ENDBRANCH  19  23
ENDBRANCH  16  19
ENDBRANCH   1  15
TORSDOF 10
ENDMDL
MODEL 5
REMARK VINA RESULT:      -6.6     12.598     14.242
REMARK  10 active torsions:
REMARK  status: ('A' for Active; 'I' for Inactive)
REMARK    1  A    between atoms: C_5  and  C_20 
REMARK    2  A    between atoms: S_7  and  C_23 
REMARK    3  A    between atoms: C_8  and  C_9 
REMARK    4  A    between atoms: C_9  and  C_16 
REMARK    5  A    between atoms: C_12  and  O_25 
REMARK    6  A    between atoms: N_14  and  C_16 
REMARK    7  A    between atoms: C_16  and  C_21 
REMARK    8  A    between atoms: C_20  and  C_24 
REMARK    9  A    between atoms: C_20  and  N_22 
REMARK       I    between atoms: C_21  and  N_22 
REMARK   10  A    between atoms: C_23  and  C_24 
ROOT
HETATM    1  C           1     -33.938  -3.160 -11.559  0.00  0.00     0.278 C 
ENDROOT
BRANCH   1   2
HETATM    2  C           1     -34.975  -3.898 -10.722  0.00  0.00     0.081 C 
BRANCH   2   3
HETATM    3  C           1     -34.545  -5.318 -10.532  0.00  0.00    -0.056 A 
HETATM    4  C           1     -35.360  -6.205  -9.828  0.00  0.00     0.010 A 
HETATM    5  C           1     -34.958  -7.530  -9.650  0.00  0.00     0.037 A 
HETATM    6  C           1     -33.742  -7.967 -10.175  0.00  0.00     0.065 A 
HETATM    7  C           1     -32.927  -7.080 -10.879  0.00  0.00     0.037 A 
HETATM    8  C           1     -33.329  -5.755 -11.056  0.00  0.00     0.010 A 
BRANCH   6   9
HETATM    9  O           1     -33.353  -9.252 -10.003  0.00  0.00    -0.361 OA
HETATM   10  H           1     -34.050  -9.714  -9.508  0.00  0.00     0.217 HD
ENDBRANCH   6   9
ENDBRANCH   2   3
ENDBRANCH   1   2
BRANCH   1  11
HETATM   11  N           1     -33.224  -2.158 -10.701  0.00  0.00    -0.066 N 
HETATM   12  H           1     -32.192  -2.272 -10.817  0.00  0.00     0.275 HD
HETATM   13  H           1     -33.482  -2.312  -9.700  0.00  0.00     0.275 HD
HETATM   14  H           1     -33.502  -1.192 -10.988  0.00  0.00     0.275 HD
ENDBRANCH   1  11
BRANCH   1  15
HETATM   15  C           1     -34.623  -2.449 -12.699  0.00  0.00     0.249 C 
HETATM   16  N           1     -35.272  -1.265 -12.476  0.00  0.00    -0.345 N 
HETATM   17  H           1     -35.292  -0.865 -11.546  0.00  0.00     0.163 HD
HETATM   18  O           1     -34.601  -2.926 -13.809  0.00  0.00    -0.271 OA
BRANCH  16  19
HETATM   19  C           1     -35.932  -0.581 -13.572  0.00  0.00     0.186 C 
BRANCH  19  20
HETATM   20  C           1     -34.997   0.447 -14.159  0.00  0.00     0.196 C 
HETATM   21  O           1     -34.572   0.310 -15.327  0.00  0.00    -0.646 OA
HETATM   22  O           1     -34.647   1.435 -13.478  0.00  0.00    -0.646 OA
ENDBRANCH  19  20
BRANCH  19  23
HETATM   23  C           1     -37.188   0.111 -13.056  0.00  0.00     0.046 C 
BRANCH  23  24
HETATM   24  C           1     -37.715  -0.634 -11.837  0.00  0.00     0.076 C 
BRANCH  24  25
HETATM   25  S           1     -37.667   0.461 -10.390  0.00  0.00    -0.173 SA
HETATM   26  C           1     -36.720  -0.661  -9.324  0.00  0.00     0.089 C 
ENDBRANCH  24  25
ENDBRANCH  23  24
ENDBRANCH  19  23
ENDBRANCH  16  19
ENDBRANCH   1  15
TORSDOF 10
ENDMDL
MODEL 6
REMARK VINA RESULT:      -6.4      3.507      8.258
REMARK  10 active torsions:
REMARK  status: ('A' for Active; 'I' for Inactive)
REMARK    1  A    between atoms: C_5  and  C_20 
REMARK    2  A    between atoms: S_7  and  C_23 
REMARK    3  A    between atoms: C_8  and  C_9 
REMARK    4  A    between atoms: C_9  and  C_16 
REMARK    5  A    between atoms: C_12  and  O_25 
REMARK    6  A    between atoms: N_14  and  C_16 
REMARK    7  A    between atoms: C_16  and  C_21 
REMARK    8  A    between atoms: C_20  and  C_24 
REMARK    9  A    between atoms: C_20  and  N_22 
REMARK       I    between atoms: C_21  and  N_22 
REMARK   10  A    between atoms: C_23  and  C_24 
ROOT
HETATM    1  C           1     -21.365  -4.846  -6.507  0.00  0.00     0.278 C 
ENDROOT
BRANCH   1   2
HETATM    2  C           1     -21.191  -5.494  -7.875  0.00  0.00     0.081 C 
BRANCH   2   3
HETATM    3  C           1     -21.956  -4.715  -8.897  0.00  0.00    -0.056 A 
HETATM    4  C           1     -21.355  -4.377 -10.110  0.00  0.00     0.010 A 
HETATM    5  C           1     -22.069  -3.650 -11.063  0.00  0.00     0.037 A 
HETATM    6  C           1     -23.383  -3.260 -10.804  0.00  0.00     0.065 A 
HETATM    7  C           1     -23.984  -3.598  -9.591  0.00  0.00     0.037 A 
HETATM    8  C           1     -23.270  -4.325  -8.638  0.00  0.00     0.010 A 
BRANCH   6   9
HETATM    9  O           1     -24.076  -2.555 -11.730  0.00  0.00    -0.361 OA
HETATM   10  H           1     -24.954  -2.359 -11.363  0.00  0.00     0.217 HD
ENDBRANCH   6   9
ENDBRANCH   2   3
ENDBRANCH   1   2
BRANCH   1  11
HETATM   11  N           1     -20.036  -4.356  -6.015  0.00  0.00    -0.066 N 
HETATM   12  H           1     -20.112  -4.099  -5.004  0.00  0.00     0.275 HD
HETATM   13  H           1     -19.749  -3.516  -6.566  0.00  0.00     0.275 HD
HETATM   14  H           1     -19.321  -5.109  -6.130  0.00  0.00     0.275 HD
ENDBRANCH   1  11
BRANCH   1  15
HETATM   15  C           1     -21.918  -5.860  -5.536  0.00  0.00     0.249 C 
HETATM   16  N           1     -21.072  -6.548  -4.709  0.00  0.00    -0.345 N 
HETATM   17  H           1     -20.075  -6.378  -4.748  0.00  0.00     0.163 HD
HETATM   18  O           1     -23.108  -6.065  -5.489  0.00  0.00    -0.271 OA
BRANCH  16  19
HETATM   19  C           1     -21.603  -7.523  -3.776  0.00  0.00     0.186 C 
BRANCH  19  20
HETATM   20  C           1     -21.644  -6.924  -2.392  0.00  0.00     0.196 C 
HETATM   21  O           1     -22.079  -5.764  -2.225  0.00  0.00    -0.646 OA
HETATM   22  O           1     -21.241  -7.587  -1.411  0.00  0.00    -0.646 OA
ENDBRANCH  19  20
BRANCH  19  23
HETATM   23  C           1     -20.712  -8.758  -3.768  0.00  0.00     0.046 C 
BRANCH  23  24
HETATM   24  C           1     -21.529  -9.978  -4.173  0.00  0.00     0.076 C 
BRANCH  24  25
HETATM   25  S           1     -21.296 -11.297  -2.949  0.00  0.00    -0.173 SA
HETATM   26  C           1     -22.693 -10.834  -1.888  0.00  0.00     0.089 C 
ENDBRANCH  24  25
ENDBRANCH  23  24
ENDBRANCH  19  23
ENDBRANCH  16  19
ENDBRANCH   1  15
TORSDOF 10
ENDMDL
MODEL 7
REMARK VINA RESULT:      -6.2      2.895      4.136
REMARK  10 active torsions:
REMARK  status: ('A' for Active; 'I' for Inactive)
REMARK    1  A    between atoms: C_5  and  C_20 
REMARK    2  A    between atoms: S_7  and  C_23 
REMARK    3  A    between atoms: C_8  and  C_9 
REMARK    4  A    between atoms: C_9  and  C_16 
REMARK    5  A    between atoms: C_12  and  O_25 
REMARK    6  A    between atoms: N_14  and  C_16 
REMARK    7  A    between atoms: C_16  and  C_21 
REMARK    8  A    between atoms: C_20  and  C_24 
REMARK    9  A    between atoms: C_20  and  N_22 
REMARK       I    between atoms: C_21  and  N_22 
REMARK   10  A    between atoms: C_23  and  C_24 
ROOT
HETATM    1  C           1     -21.159  -8.621  -4.870  0.00  0.00     0.278 C 
ENDROOT
BRANCH   1   2
HETATM    2  C           1     -20.322  -8.614  -3.598  0.00  0.00     0.081 C 
BRANCH   2   3
HETATM    3  C           1     -21.205  -8.352  -2.420  0.00  0.00    -0.056 A 
HETATM    4  C           1     -21.549  -7.042  -2.083  0.00  0.00     0.010 A 
HETATM    5  C           1     -22.372  -6.798  -0.984  0.00  0.00     0.037 A 
HETATM    6  C           1     -22.852  -7.862  -0.221  0.00  0.00     0.065 A 
HETATM    7  C           1     -22.508  -9.172  -0.557  0.00  0.00     0.037 A 
HETATM    8  C           1     -21.685  -9.416  -1.656  0.00  0.00     0.010 A 
BRANCH   6   9
HETATM    9  O           1     -23.652  -7.625   0.846  0.00  0.00    -0.361 OA
HETATM   10  H           1     -24.363  -7.028   0.562  0.00  0.00     0.217 HD
ENDBRANCH   6   9
ENDBRANCH   2   3
ENDBRANCH   1   2
BRANCH   1  11
HETATM   11  N           1     -21.082  -9.974  -5.513  0.00  0.00    -0.066 N 
HETATM   12  H           1     -20.155 -10.083  -5.982  0.00  0.00     0.275 HD
HETATM   13  H           1     -21.844 -10.068  -6.220  0.00  0.00     0.275 HD
HETATM   14  H           1     -21.191 -10.714  -4.783  0.00  0.00     0.275 HD
ENDBRANCH   1  11
BRANCH   1  15
HETATM   15  C           1     -20.632  -7.580  -5.827  0.00  0.00     0.249 C 
HETATM   16  N           1     -21.424  -6.525  -6.194  0.00  0.00    -0.345 N 
HETATM   17  H           1     -22.362  -6.443  -5.825  0.00  0.00     0.163 HD
HETATM   18  O           1     -19.512  -7.677  -6.268  0.00  0.00    -0.271 OA
BRANCH  16  19
HETATM   19  C           1     -20.917  -5.524  -7.113  0.00  0.00     0.186 C 
BRANCH  19  20
HETATM   20  C           1     -19.833  -4.722  -6.437  0.00  0.00     0.196 C 
HETATM   21  O           1     -19.977  -4.354  -5.251  0.00  0.00    -0.646 OA
HETATM   22  O           1     -18.792  -4.426  -7.062  0.00  0.00    -0.646 OA
ENDBRANCH  19  20
BRANCH  19  23
HETATM   23  C           1     -22.051  -4.595  -7.528  0.00  0.00     0.046 C 
BRANCH  23  24
HETATM   24  C           1     -22.354  -4.791  -9.008  0.00  0.00     0.076 C 
BRANCH  24  25
HETATM   25  S           1     -20.968  -4.165  -9.998  0.00  0.00    -0.173 SA
HETATM   26  C           1     -21.843  -4.167 -11.588  0.00  0.00     0.089 C 
ENDBRANCH  24  25
ENDBRANCH  23  24
ENDBRANCH  19  23
ENDBRANCH  16  19
ENDBRANCH   1  15
TORSDOF 10
ENDMDL
MODEL 8
REMARK VINA RESULT:      -6.2     12.791     14.880
REMARK  10 active torsions:
REMARK  status: ('A' for Active; 'I' for Inactive)
REMARK    1  A    between atoms: C_5  and  C_20 
REMARK    2  A    between atoms: S_7  and  C_23 
REMARK    3  A    between atoms: C_8  and  C_9 
REMARK    4  A    between atoms: C_9  and  C_16 
REMARK    5  A    between atoms: C_12  and  O_25 
REMARK    6  A    between atoms: N_14  and  C_16 
REMARK    7  A    between atoms: C_16  and  C_21 
REMARK    8  A    between atoms: C_20  and  C_24 
REMARK    9  A    between atoms: C_20  and  N_22 
REMARK       I    between atoms: C_21  and  N_22 
REMARK   10  A    between atoms: C_23  and  C_24 
ROOT
HETATM    1  C           1     -35.049  -0.607 -11.956  0.00  0.00     0.278 C 
ENDROOT
BRANCH   1   2
HETATM    2  C           1     -35.415  -1.512 -10.787  0.00  0.00     0.081 C 
BRANCH   2   3
HETATM    3  C           1     -34.723  -2.830 -10.939  0.00  0.00    -0.056 A 
HETATM    4  C           1     -33.372  -2.872 -11.284  0.00  0.00     0.010 A 
HETATM    5  C           1     -32.727  -4.101 -11.426  0.00  0.00     0.037 A 
HETATM    6  C           1     -33.432  -5.287 -11.225  0.00  0.00     0.065 A 
HETATM    7  C           1     -34.784  -5.245 -10.881  0.00  0.00     0.037 A 
HETATM    8  C           1     -35.429  -4.016 -10.739  0.00  0.00     0.010 A 
BRANCH   6   9
HETATM    9  O           1     -32.806  -6.480 -11.363  0.00  0.00    -0.361 OA
HETATM   10  H           1     -32.991  -6.816 -12.256  0.00  0.00     0.217 HD
ENDBRANCH   6   9
ENDBRANCH   2   3
ENDBRANCH   1   2
BRANCH   1  11
HETATM   11  N           1     -35.557   0.780 -11.692  0.00  0.00    -0.066 N 
HETATM   12  H           1     -34.778   1.370 -11.322  0.00  0.00     0.275 HD
HETATM   13  H           1     -36.328   0.739 -10.988  0.00  0.00     0.275 HD
HETATM   14  H           1     -35.917   1.195 -12.580  0.00  0.00     0.275 HD
ENDBRANCH   1  11
BRANCH   1  15
HETATM   15  C           1     -35.675  -1.139 -13.221  0.00  0.00     0.249 C 
HETATM   16  N           1     -34.888  -1.443 -14.299  0.00  0.00    -0.345 N 
HETATM   17  H           1     -33.886  -1.312 -14.247  0.00  0.00     0.163 HD
HETATM   18  O           1     -36.871  -1.296 -13.284  0.00  0.00    -0.271 OA
BRANCH  16  19
HETATM   19  C           1     -35.489  -1.954 -15.515  0.00  0.00     0.186 C 
BRANCH  19  20
HETATM   20  C           1     -34.519  -2.882 -16.205  0.00  0.00     0.196 C 
HETATM   21  O           1     -33.938  -2.514 -17.249  0.00  0.00    -0.646 OA
HETATM   22  O           1     -34.298  -4.018 -15.733  0.00  0.00    -0.646 OA
ENDBRANCH  19  20
BRANCH  19  23
HETATM   23  C           1     -35.827  -0.793 -16.442  0.00  0.00     0.046 C 
BRANCH  23  24
HETATM   24  C           1     -37.340  -0.650 -16.547  0.00  0.00     0.076 C 
BRANCH  24  25
HETATM   25  S           1     -37.858   0.901 -15.759  0.00  0.00    -0.173 SA
HETATM   26  C           1     -36.203   1.641 -15.671  0.00  0.00     0.089 C 
ENDBRANCH  24  25
ENDBRANCH  23  24
ENDBRANCH  19  23
ENDBRANCH  16  19
ENDBRANCH   1  15
TORSDOF 10
ENDMDL
MODEL 9
REMARK VINA RESULT:      -6.1      3.440      7.926
REMARK  10 active torsions:
REMARK  status: ('A' for Active; 'I' for Inactive)
REMARK    1  A    between atoms: C_5  and  C_20 
REMARK    2  A    between atoms: S_7  and  C_23 
REMARK    3  A    between atoms: C_8  and  C_9 
REMARK    4  A    between atoms: C_9  and  C_16 
REMARK    5  A    between atoms: C_12  and  O_25 
REMARK    6  A    between atoms: N_14  and  C_16 
REMARK    7  A    between atoms: C_16  and  C_21 
REMARK    8  A    between atoms: C_20  and  C_24 
REMARK    9  A    between atoms: C_20  and  N_22 
REMARK       I    between atoms: C_21  and  N_22 
REMARK   10  A    between atoms: C_23  and  C_24 
ROOT
HETATM    1  C           1     -20.255  -5.433  -6.207  0.00  0.00     0.278 C 
ENDROOT
BRANCH   1   2
HETATM    2  C           1     -20.952  -4.156  -6.658  0.00  0.00     0.081 C 
BRANCH   2   3
HETATM    3  C           1     -21.242  -4.235  -8.124  0.00  0.00    -0.056 A 
HETATM    4  C           1     -20.224  -4.006  -9.050  0.00  0.00     0.010 A 
HETATM    5  C           1     -20.495  -4.080 -10.416  0.00  0.00     0.037 A 
HETATM    6  C           1     -21.784  -4.381 -10.857  0.00  0.00     0.065 A 
HETATM    7  C           1     -22.802  -4.610  -9.931  0.00  0.00     0.037 A 
HETATM    8  C           1     -22.531  -4.537  -8.564  0.00  0.00     0.010 A 
BRANCH   6   9
HETATM    9  O           1     -22.046  -4.453 -12.184  0.00  0.00    -0.361 OA
HETATM   10  H           1     -21.931  -5.376 -12.463  0.00  0.00     0.217 HD
ENDBRANCH   6   9
ENDBRANCH   2   3
ENDBRANCH   1   2
BRANCH   1  11
HETATM   11  N           1     -19.952  -6.286  -7.404  0.00  0.00    -0.066 N 
HETATM   12  H           1     -20.466  -7.192  -7.325  0.00  0.00     0.275 HD
HETATM   13  H           1     -18.925  -6.470  -7.448  0.00  0.00     0.275 HD
HETATM   14  H           1     -20.255  -5.789  -8.272  0.00  0.00     0.275 HD
ENDBRANCH   1  11
BRANCH   1  15
HETATM   15  C           1     -21.155  -6.193  -5.264  0.00  0.00     0.249 C 
HETATM   16  N           1     -20.632  -7.162  -4.451  0.00  0.00    -0.345 N 
HETATM   17  H           1     -19.642  -7.369  -4.481  0.00  0.00     0.163 HD
HETATM   18  O           1     -22.337  -5.947  -5.228  0.00  0.00    -0.271 OA
BRANCH  16  19
HETATM   19  C           1     -21.497  -7.892  -3.544  0.00  0.00     0.186 C 
BRANCH  19  20
HETATM   20  C           1     -21.413  -7.281  -2.167  0.00  0.00     0.196 C 
HETATM   21  O           1     -22.113  -6.285  -1.882  0.00  0.00    -0.646 OA
HETATM   22  O           1     -20.644  -7.769  -1.312  0.00  0.00    -0.646 OA
ENDBRANCH  19  20
BRANCH  19  23
HETATM   23  C           1     -21.053  -9.348  -3.481  0.00  0.00     0.046 C 
BRANCH  23  24
HETATM   24  C           1     -22.277 -10.249  -3.379  0.00  0.00     0.076 C 
BRANCH  24  25
HETATM   25  S           1     -22.016 -11.741  -4.378  0.00  0.00    -0.173 SA
HETATM   26  C           1     -21.091 -10.929  -5.711  0.00  0.00     0.089 C 
ENDBRANCH  24  25
ENDBRANCH  23  24
ENDBRANCH  19  23
ENDBRANCH  16  19
ENDBRANCH   1  15
TORSDOF 10
ENDMDL
