MODEL 1
REMARK VINA RESULT:      -6.3      0.000      0.000
REMARK  10 active torsions:
REMARK  status: ('A' for Active; 'I' for Inactive)
REMARK    1  A    between atoms: C_1  and  C_22 
REMARK    2  A    between atoms: C_1  and  C_2 
REMARK    3  A    between atoms: C_1  and  N_6 
REMARK    4  A    between atoms: C_2  and  C_3 
REMARK    5  A    between atoms: C_3  and  Se_4 
REMARK    6  A    between atoms: C_10  and  C_12 
REMARK    7  A    between atoms: C_12  and  C_13 
REMARK    8  A    between atoms: C_13  and  C_14 
REMARK    9  A    between atoms: C_14  and  C_18 
REMARK   10  A    between atoms: C_14  and  N_21 
REMARK       I    between atoms: N_21  and  C_22 
ROOT
HETATM    1  O           1     -33.895  -1.678 -11.274  0.00  0.00    -0.271 OA
HETATM    2  H           1     -35.943  -2.148 -13.604  0.00  0.00     0.163 HD
HETATM    3  N           1     -35.450  -1.645 -12.877  0.00  0.00    -0.345 N 
HETATM    4  C           1     -34.483  -2.278 -12.143  0.00  0.00     0.249 C 
ENDROOT
BRANCH   3   5
HETATM    5  C           1     -35.768  -0.256 -12.612  0.00  0.00     0.186 C 
BRANCH   5   6
HETATM    6  C           1     -36.318   0.389 -13.878  0.00  0.00     0.046 C 
BRANCH   6   7
HETATM    7  C           1     -35.270   0.318 -14.981  0.00  0.00     0.116 C 
BRANCH   7   8
HETATM    8  C           1     -35.652  -0.755 -15.971  0.00  0.00     0.172 C 
HETATM    9  O           1     -36.469  -0.503 -16.882  0.00  0.00    -0.648 OA
HETATM   10  O           1     -35.151  -1.896 -15.879  0.00  0.00    -0.648 OA
ENDBRANCH   7   8
ENDBRANCH   6   7
ENDBRANCH   5   6
BRANCH   5  11
HETATM   11  C           1     -36.803  -0.176 -11.517  0.00  0.00     0.196 C 
HETATM   12  O           1     -36.562   0.472 -10.475  0.00  0.00    -0.646 OA
HETATM   13  O           1     -37.900  -0.759 -11.650  0.00  0.00    -0.646 OA
ENDBRANCH   5  11
ENDBRANCH   3   5
BRANCH   4  14
HETATM   14  C           1     -34.152  -3.724 -12.417  0.00  0.00     0.274 C 
BRANCH  14  15
HETATM   15  C           1     -32.967  -4.146 -11.559  0.00  0.00     0.042 C 
BRANCH  15  16
HETATM   16  C           1     -33.083  -5.627 -11.226  0.00  0.00     0.003 C 
BRANCH  16  17
HETATM   17 Se           1     -34.957  -6.162 -11.282  0.00  0.00     0.000 Se
HETATM   18  C           1     -34.767  -7.561  -9.937  0.00  0.00     0.000 C 
ENDBRANCH  16  17
ENDBRANCH  15  16
ENDBRANCH  14  15
BRANCH  14  19
HETATM   19  N           1     -33.803  -3.890 -13.866  0.00  0.00    -0.067 N 
HETATM   20  H           1     -33.298  -4.795 -14.002  0.00  0.00     0.275 HD
HETATM   21  H           1     -34.678  -3.890 -14.437  0.00  0.00     0.275 HD
HETATM   22  H           1     -33.189  -3.099 -14.169  0.00  0.00     0.275 HD
ENDBRANCH  14  19
ENDBRANCH   4  14
TORSDOF 10
ENDMDL
MODEL 2
REMARK VINA RESULT:      -6.3     12.057     13.717
REMARK  10 active torsions:
REMARK  status: ('A' for Active; 'I' for Inactive)
REMARK    1  A    between atoms: C_1  and  C_22 
REMARK    2  A    between atoms: C_1  and  C_2 
REMARK    3  A    between atoms: C_1  and  N_6 
REMARK    4  A    between atoms: C_2  and  C_3 
REMARK    5  A    between atoms: C_3  and  Se_4 
REMARK    6  A    between atoms: C_10  and  C_12 
REMARK    7  A    between atoms: C_12  and  C_13 
REMARK    8  A    between atoms: C_13  and  C_14 
REMARK    9  A    between atoms: C_14  and  C_18 
REMARK   10  A    between atoms: C_14  and  N_21 
REMARK       I    between atoms: N_21  and  C_22 
ROOT
HETATM    1  O           1     -21.762  -3.601  -7.302  0.00  0.00    -0.271 OA
HETATM    2  H           1     -22.178  -5.791  -9.509  0.00  0.00     0.163 HD
HETATM    3  N           1     -22.207  -4.875  -9.081  0.00  0.00    -0.345 N 
HETATM    4  C           1     -21.726  -4.696  -7.813  0.00  0.00     0.249 C 
ENDROOT
BRANCH   3   5
HETATM    5  C           1     -22.760  -3.751  -9.812  0.00  0.00     0.186 C 
BRANCH   5   6
HETATM    6  C           1     -22.306  -3.818 -11.264  0.00  0.00     0.046 C 
BRANCH   6   7
HETATM    7  C           1     -22.605  -2.493 -11.952  0.00  0.00     0.116 C 
BRANCH   7   8
HETATM    8  C           1     -23.441  -2.741 -13.184  0.00  0.00     0.172 C 
HETATM    9  O           1     -24.687  -2.775 -13.096  0.00  0.00    -0.648 OA
HETATM   10  O           1     -22.887  -2.912 -14.291  0.00  0.00    -0.648 OA
ENDBRANCH   7   8
ENDBRANCH   6   7
ENDBRANCH   5   6
BRANCH   5  11
HETATM   11  C           1     -24.267  -3.804  -9.753  0.00  0.00     0.196 C 
HETATM   12  O           1     -24.920  -2.766  -9.512  0.00  0.00    -0.646 OA
HETATM   13  O           1     -24.862  -4.887  -9.943  0.00  0.00    -0.646 OA
ENDBRANCH   5  11
ENDBRANCH   3   5
BRANCH   4  14
HETATM   14  C           1     -21.152  -5.864  -7.051  0.00  0.00     0.274 C 
BRANCH  14  15
HETATM   15  C           1     -21.138  -5.545  -5.562  0.00  0.00     0.042 C 
BRANCH  15  16
HETATM   16  C           1     -22.119  -6.456  -4.838  0.00  0.00     0.003 C 
BRANCH  16  17
HETATM   17 Se           1     -21.234  -7.281  -3.309  0.00  0.00     0.000 Se
HETATM   18  C           1     -22.167  -6.204  -1.979  0.00  0.00     0.000 C 
ENDBRANCH  16  17
ENDBRANCH  15  16
ENDBRANCH  14  15
BRANCH  14  19
HETATM   19  N           1     -19.750  -6.124  -7.518  0.00  0.00    -0.067 N 
HETATM   20  H           1     -19.756  -6.890  -8.229  0.00  0.00     0.275 HD
HETATM   21  H           1     -19.359  -5.256  -7.947  0.00  0.00     0.275 HD
HETATM   22  H           1     -19.159  -6.408  -6.704  0.00  0.00     0.275 HD
ENDBRANCH  14  19
ENDBRANCH   4  14
TORSDOF 10
ENDMDL
MODEL 3
REMARK VINA RESULT:      -5.4     12.997     16.015
REMARK  10 active torsions:
REMARK  status: ('A' for Active; 'I' for Inactive)
REMARK    1  A    between atoms: C_1  and  C_22 
REMARK    2  A    between atoms: C_1  and  C_2 
REMARK    3  A    between atoms: C_1  and  N_6 
REMARK    4  A    between atoms: C_2  and  C_3 
REMARK    5  A    between atoms: C_3  and  Se_4 
REMARK    6  A    between atoms: C_10  and  C_12 
REMARK    7  A    between atoms: C_12  and  C_13 
REMARK    8  A    between atoms: C_13  and  C_14 
REMARK    9  A    between atoms: C_14  and  C_18 
REMARK   10  A    between atoms: C_14  and  N_21 
REMARK       I    between atoms: N_21  and  C_22 
ROOT
HETATM    1  O           1     -21.890  -3.152  -7.828  0.00  0.00    -0.271 OA
HETATM    2  H           1     -22.705  -6.169  -7.552  0.00  0.00     0.163 HD
HETATM    3  N           1     -22.232  -5.302  -7.331  0.00  0.00    -0.345 N 
HETATM    4  C           1     -22.455  -4.188  -8.092  0.00  0.00     0.249 C 
ENDROOT
BRANCH   3   5
HETATM    5  C           1     -21.317  -5.242  -6.208  0.00  0.00     0.186 C 
BRANCH   5   6
HETATM    6  C           1     -21.764  -6.225  -5.135  0.00  0.00     0.046 C 
BRANCH   6   7
HETATM    7  C           1     -20.802  -6.166  -3.956  0.00  0.00     0.116 C 
BRANCH   7   8
HETATM    8  C           1     -21.541  -6.497  -2.684  0.00  0.00     0.172 C 
HETATM    9  O           1     -21.086  -7.360  -1.902  0.00  0.00    -0.648 OA
HETATM   10  O           1     -22.609  -5.908  -2.410  0.00  0.00    -0.648 OA
ENDBRANCH   7   8
ENDBRANCH   6   7
ENDBRANCH   5   6
BRANCH   5  11
HETATM   11  C           1     -19.926  -5.602  -6.672  0.00  0.00     0.196 C 
HETATM   12  O           1     -19.673  -6.770  -7.041  0.00  0.00    -0.646 OA
HETATM   13  O           1     -19.028  -4.734  -6.686  0.00  0.00    -0.646 OA
ENDBRANCH   5  11
ENDBRANCH   3   5
BRANCH   4  14
HETATM   14  C           1     -23.407  -4.250  -9.261  0.00  0.00     0.274 C 
BRANCH  14  15
HETATM   15  C           1     -22.686  -3.811 -10.529  0.00  0.00     0.042 C 
BRANCH  15  16
HETATM   16  C           1     -23.390  -4.400 -11.743  0.00  0.00     0.003 C 
BRANCH  16  17
HETATM   17 Se           1     -24.341  -2.989 -12.694  0.00  0.00     0.000 Se
HETATM   18  C           1     -23.024  -2.838 -14.122  0.00  0.00     0.000 C 
ENDBRANCH  16  17
ENDBRANCH  15  16
ENDBRANCH  14  15
BRANCH  14  19
HETATM   19  N           1     -24.570  -3.337  -9.007  0.00  0.00    -0.067 N 
HETATM   20  H           1     -24.488  -2.925  -8.051  0.00  0.00     0.275 HD
HETATM   21  H           1     -24.572  -2.570  -9.717  0.00  0.00     0.275 HD
HETATM   22  H           1     -25.460  -3.881  -9.077  0.00  0.00     0.275 HD
ENDBRANCH  14  19
ENDBRANCH   4  14
TORSDOF 10
ENDMDL
MODEL 4
REMARK VINA RESULT:      -5.3     12.317     15.201
REMARK  10 active torsions:
REMARK  status: ('A' for Active; 'I' for Inactive)
REMARK    1  A    between atoms: C_1  and  C_22 
REMARK    2  A    between atoms: C_1  and  C_2 
REMARK    3  A    between atoms: C_1  and  N_6 
REMARK    4  A    between atoms: C_2  and  C_3 
REMARK    5  A    between atoms: C_3  and  Se_4 
REMARK    6  A    between atoms: C_10  and  C_12 
REMARK    7  A    between atoms: C_12  and  C_13 
REMARK    8  A    between atoms: C_13  and  C_14 
REMARK    9  A    between atoms: C_14  and  C_18 
REMARK   10  A    between atoms: C_14  and  N_21 
REMARK       I    between atoms: N_21  and  C_22 
ROOT
HETATM    1  O           1     -22.866  -2.920  -8.956  0.00  0.00    -0.271 OA
HETATM    2  H           1     -22.183  -5.894  -8.227  0.00  0.00     0.163 HD
HETATM    3  N           1     -22.090  -4.887  -8.236  0.00  0.00    -0.345 N 
HETATM    4  C           1     -22.977  -4.124  -8.945  0.00  0.00     0.249 C 
ENDROOT
BRANCH   3   5
HETATM    5  C           1     -21.016  -4.252  -7.498  0.00  0.00     0.186 C 
BRANCH   5   6
HETATM    6  C           1     -20.897  -4.893  -6.122  0.00  0.00     0.046 C 
BRANCH   6   7
HETATM    7  C           1     -21.258  -6.369  -6.215  0.00  0.00     0.116 C 
BRANCH   7   8
HETATM    8  C           1     -22.168  -6.739  -5.071  0.00  0.00     0.172 C 
HETATM    9  O           1     -23.279  -6.179  -4.950  0.00  0.00    -0.648 OA
HETATM   10  O           1     -21.812  -7.606  -4.244  0.00  0.00    -0.648 OA
ENDBRANCH   7   8
ENDBRANCH   6   7
ENDBRANCH   5   6
BRANCH   5  11
HETATM   11  C           1     -19.718  -4.427  -8.249  0.00  0.00     0.196 C 
HETATM   12  O           1     -18.628  -4.287  -7.653  0.00  0.00    -0.646 OA
HETATM   13  O           1     -19.733  -4.711  -9.465  0.00  0.00    -0.646 OA
ENDBRANCH   5  11
ENDBRANCH   3   5
BRANCH   4  14
HETATM   14  C           1     -24.095  -4.784  -9.714  0.00  0.00     0.274 C 
BRANCH  14  15
HETATM   15  C           1     -23.672  -4.978 -11.163  0.00  0.00     0.042 C 
BRANCH  15  16
HETATM   16  C           1     -24.150  -3.796 -11.995  0.00  0.00     0.003 C 
BRANCH  16  17
HETATM   17 Se           1     -22.617  -2.721 -12.539  0.00  0.00     0.000 Se
HETATM   18  C           1     -23.064  -2.749 -14.436  0.00  0.00     0.000 C 
ENDBRANCH  16  17
ENDBRANCH  15  16
ENDBRANCH  14  15
BRANCH  14  19
HETATM   19  N           1     -25.317  -3.915  -9.663  0.00  0.00    -0.067 N 
HETATM   20  H           1     -26.107  -4.448  -9.235  0.00  0.00     0.275 HD
HETATM   21  H           1     -25.118  -3.067  -9.086  0.00  0.00     0.275 HD
HETATM   22  H           1     -25.577  -3.624 -10.633  0.00  0.00     0.275 HD
ENDBRANCH  14  19
ENDBRANCH   4  14
TORSDOF 10
ENDMDL
MODEL 5
REMARK VINA RESULT:      -5.3     13.223     15.317
REMARK  10 active torsions:
REMARK  status: ('A' for Active; 'I' for Inactive)
REMARK    1  A    between atoms: C_1  and  C_22 
REMARK    2  A    between atoms: C_1  and  C_2 
REMARK    3  A    between atoms: C_1  and  N_6 
REMARK    4  A    between atoms: C_2  and  C_3 
REMARK    5  A    between atoms: C_3  and  Se_4 
REMARK    6  A    between atoms: C_10  and  C_12 
REMARK    7  A    between atoms: C_12  and  C_13 
REMARK    8  A    between atoms: C_13  and  C_14 
REMARK    9  A    between atoms: C_14  and  C_18 
REMARK   10  A    between atoms: C_14  and  N_21 
REMARK       I    between atoms: N_21  and  C_22 
ROOT
HETATM    1  O           1     -21.172  -7.186  -6.817  0.00  0.00    -0.271 OA
HETATM    2  H           1     -21.520  -4.147  -6.121  0.00  0.00     0.163 HD
HETATM    3  N           1     -21.473  -4.976  -6.699  0.00  0.00    -0.345 N 
HETATM    4  C           1     -21.228  -6.195  -6.127  0.00  0.00     0.249 C 
ENDROOT
BRANCH   3   5
HETATM    5  C           1     -21.664  -4.872  -8.132  0.00  0.00     0.186 C 
BRANCH   5   6
HETATM    6  C           1     -22.846  -3.958  -8.422  0.00  0.00     0.046 C 
BRANCH   6   7
HETATM    7  C           1     -23.738  -4.598  -9.477  0.00  0.00     0.116 C 
BRANCH   7   8
HETATM    8  C           1     -24.394  -3.521 -10.305  0.00  0.00     0.172 C 
HETATM    9  O           1     -23.750  -2.949 -11.211  0.00  0.00    -0.648 OA
HETATM   10  O           1     -25.582  -3.199 -10.083  0.00  0.00    -0.648 OA
ENDBRANCH   7   8
ENDBRANCH   6   7
ENDBRANCH   5   6
BRANCH   5  11
HETATM   11  C           1     -20.418  -4.302  -8.766  0.00  0.00     0.196 C 
HETATM   12  O           1     -19.457  -3.950  -8.048  0.00  0.00    -0.646 OA
HETATM   13  O           1     -20.348  -4.181 -10.007  0.00  0.00    -0.646 OA
ENDBRANCH   5  11
ENDBRANCH   3   5
BRANCH   4  14
HETATM   14  C           1     -21.029  -6.304  -4.636  0.00  0.00     0.274 C 
BRANCH  14  15
HETATM   15  C           1     -20.416  -7.657  -4.300  0.00  0.00     0.042 C 
BRANCH  15  16
HETATM   16  C           1     -21.363  -8.433  -3.396  0.00  0.00     0.003 C 
BRANCH  16  17
HETATM   17 Se           1     -20.546  -8.661  -1.641  0.00  0.00     0.000 Se
HETATM   18  C           1     -22.240  -8.732  -0.680  0.00  0.00     0.000 C 
ENDBRANCH  16  17
ENDBRANCH  15  16
ENDBRANCH  14  15
BRANCH  14  19
HETATM   19  N           1     -22.354  -6.171  -3.944  0.00  0.00    -0.067 N 
HETATM   20  H           1     -22.428  -6.891  -3.191  0.00  0.00     0.275 HD
HETATM   21  H           1     -22.433  -5.218  -3.523  0.00  0.00     0.275 HD
HETATM   22  H           1     -23.124  -6.312  -4.638  0.00  0.00     0.275 HD
ENDBRANCH  14  19
ENDBRANCH   4  14
TORSDOF 10
ENDMDL
MODEL 6
REMARK VINA RESULT:      -5.3     14.117     17.070
REMARK  10 active torsions:
REMARK  status: ('A' for Active; 'I' for Inactive)
REMARK    1  A    between atoms: C_1  and  C_22 
REMARK    2  A    between atoms: C_1  and  C_2 
REMARK    3  A    between atoms: C_1  and  N_6 
REMARK    4  A    between atoms: C_2  and  C_3 
REMARK    5  A    between atoms: C_3  and  Se_4 
REMARK    6  A    between atoms: C_10  and  C_12 
REMARK    7  A    between atoms: C_12  and  C_13 
REMARK    8  A    between atoms: C_13  and  C_14 
REMARK    9  A    between atoms: C_14  and  C_18 
REMARK   10  A    between atoms: C_14  and  N_21 
REMARK       I    between atoms: N_21  and  C_22 
ROOT
HETATM    1  O           1     -19.766  -4.505  -5.604  0.00  0.00    -0.271 OA
HETATM    2  H           1     -22.192  -6.338  -6.378  0.00  0.00     0.163 HD
HETATM    3  N           1     -21.409  -6.001  -5.833  0.00  0.00    -0.345 N 
HETATM    4  C           1     -20.702  -4.908  -6.254  0.00  0.00     0.249 C 
ENDROOT
BRANCH   3   5
HETATM    5  C           1     -21.034  -6.679  -4.607  0.00  0.00     0.186 C 
BRANCH   5   6
HETATM    6  C           1     -22.229  -6.719  -3.665  0.00  0.00     0.046 C 
BRANCH   6   7
HETATM    7  C           1     -21.845  -6.096  -2.329  0.00  0.00     0.116 C 
BRANCH   7   8
HETATM    8  C           1     -21.979  -7.126  -1.235  0.00  0.00     0.172 C 
HETATM    9  O           1     -21.078  -7.975  -1.062  0.00  0.00    -0.648 OA
HETATM   10  O           1     -22.991  -7.131  -0.502  0.00  0.00    -0.648 OA
ENDBRANCH   7   8
ENDBRANCH   6   7
ENDBRANCH   5   6
BRANCH   5  11
HETATM   11  C           1     -20.595  -8.087  -4.924  0.00  0.00     0.196 C 
HETATM   12  O           1     -19.772  -8.667  -4.184  0.00  0.00    -0.646 OA
HETATM   13  O           1     -21.055  -8.674  -5.927  0.00  0.00    -0.646 OA
ENDBRANCH   5  11
ENDBRANCH   3   5
BRANCH   4  14
HETATM   14  C           1     -21.091  -4.203  -7.531  0.00  0.00     0.274 C 
BRANCH  14  15
HETATM   15  C           1     -22.564  -4.451  -7.821  0.00  0.00     0.042 C 
BRANCH  15  16
HETATM   16  C           1     -22.995  -3.610  -9.016  0.00  0.00     0.003 C 
BRANCH  16  17
HETATM   17 Se           1     -23.756  -4.769 -10.386  0.00  0.00     0.000 Se
HETATM   18  C           1     -24.246  -3.309 -11.581  0.00  0.00     0.000 C 
ENDBRANCH  16  17
ENDBRANCH  15  16
ENDBRANCH  14  15
BRANCH  14  19
HETATM   19  N           1     -20.263  -4.731  -8.665  0.00  0.00    -0.067 N 
HETATM   20  H           1     -19.885  -3.933  -9.223  0.00  0.00     0.275 HD
HETATM   21  H           1     -19.470  -5.295  -8.284  0.00  0.00     0.275 HD
HETATM   22  H           1     -20.857  -5.334  -9.278  0.00  0.00     0.275 HD
ENDBRANCH  14  19
ENDBRANCH   4  14
TORSDOF 10
ENDMDL
MODEL 7
REMARK VINA RESULT:      -5.2     15.787     17.633
REMARK  10 active torsions:
REMARK  status: ('A' for Active; 'I' for Inactive)
REMARK    1  A    between atoms: C_1  and  C_22 
REMARK    2  A    between atoms: C_1  and  C_2 
REMARK    3  A    between atoms: C_1  and  N_6 
REMARK    4  A    between atoms: C_2  and  C_3 
REMARK    5  A    between atoms: C_3  and  Se_4 
REMARK    6  A    between atoms: C_10  and  C_12 
REMARK    7  A    between atoms: C_12  and  C_13 
REMARK    8  A    between atoms: C_13  and  C_14 
REMARK    9  A    between atoms: C_14  and  C_18 
REMARK   10  A    between atoms: C_14  and  N_21 
REMARK       I    between atoms: N_21  and  C_22 
ROOT
HETATM    1  O           1     -19.766  -7.266  -5.961  0.00  0.00    -0.271 OA
HETATM    2  H           1     -22.606  -7.636  -4.679  0.00  0.00     0.163 HD
HETATM    3  N           1     -21.629  -7.824  -4.861  0.00  0.00    -0.345 N 
HETATM    4  C           1     -20.934  -7.041  -5.742  0.00  0.00     0.249 C 
ENDROOT
BRANCH   3   5
HETATM    5  C           1     -20.965  -8.925  -4.190  0.00  0.00     0.186 C 
BRANCH   5   6
HETATM    6  C           1     -21.393  -8.961  -2.729  0.00  0.00     0.046 C 
BRANCH   6   7
HETATM    7  C           1     -20.903  -7.703  -2.025  0.00  0.00     0.116 C 
BRANCH   7   8
HETATM    8  C           1     -22.072  -6.786  -1.760  0.00  0.00     0.172 C 
HETATM    9  O           1     -22.426  -5.958  -2.628  0.00  0.00    -0.648 OA
HETATM   10  O           1     -22.686  -6.853  -0.674  0.00  0.00    -0.648 OA
ENDBRANCH   7   8
ENDBRANCH   6   7
ENDBRANCH   5   6
BRANCH   5  11
HETATM   11  C           1     -21.345 -10.224  -4.858  0.00  0.00     0.196 C 
HETATM   12  O           1     -22.116 -11.021  -4.281  0.00  0.00    -0.646 OA
HETATM   13  O           1     -20.888 -10.503  -5.987  0.00  0.00    -0.646 OA
ENDBRANCH   5  11
ENDBRANCH   3   5
BRANCH   4  14
HETATM   14  C           1     -21.624  -5.896  -6.441  0.00  0.00     0.274 C 
BRANCH  14  15
HETATM   15  C           1     -20.691  -4.694  -6.494  0.00  0.00     0.042 C 
BRANCH  15  16
HETATM   16  C           1     -21.342  -3.579  -7.301  0.00  0.00     0.003 C 
BRANCH  16  17
HETATM   17 Se           1     -22.046  -4.307  -8.967  0.00  0.00     0.000 Se
HETATM   18  C           1     -20.309  -4.414  -9.845  0.00  0.00     0.000 C 
ENDBRANCH  16  17
ENDBRANCH  15  16
ENDBRANCH  14  15
BRANCH  14  19
HETATM   19  N           1     -22.868  -5.528  -5.689  0.00  0.00    -0.067 N 
HETATM   20  H           1     -23.155  -6.326  -5.078  0.00  0.00     0.275 HD
HETATM   21  H           1     -22.682  -4.687  -5.097  0.00  0.00     0.275 HD
HETATM   22  H           1     -23.635  -5.315  -6.367  0.00  0.00     0.275 HD
ENDBRANCH  14  19
ENDBRANCH   4  14
TORSDOF 10
ENDMDL
MODEL 8
REMARK VINA RESULT:      -4.9      1.396      3.601
REMARK  10 active torsions:
REMARK  status: ('A' for Active; 'I' for Inactive)
REMARK    1  A    between atoms: C_1  and  C_22 
REMARK    2  A    between atoms: C_1  and  C_2 
REMARK    3  A    between atoms: C_1  and  N_6 
REMARK    4  A    between atoms: C_2  and  C_3 
REMARK    5  A    between atoms: C_3  and  Se_4 
REMARK    6  A    between atoms: C_10  and  C_12 
REMARK    7  A    between atoms: C_12  and  C_13 
REMARK    8  A    between atoms: C_13  and  C_14 
REMARK    9  A    between atoms: C_14  and  C_18 
REMARK   10  A    between atoms: C_14  and  N_21 
REMARK       I    between atoms: N_21  and  C_22 
ROOT
HETATM    1  O           1     -34.149  -1.546 -11.533  0.00  0.00    -0.271 OA
HETATM    2  H           1     -35.884  -2.248 -14.050  0.00  0.00     0.163 HD
HETATM    3  N           1     -35.495  -1.679 -13.310  0.00  0.00    -0.345 N 
HETATM    4  C           1     -34.613  -2.226 -12.418  0.00  0.00     0.249 C 
ENDROOT
BRANCH   3   5
HETATM    5  C           1     -35.873  -0.284 -13.193  0.00  0.00     0.186 C 
BRANCH   5   6
HETATM    6  C           1     -35.832   0.132 -11.729  0.00  0.00     0.046 C 
BRANCH   6   7
HETATM    7  C           1     -37.239   0.096 -11.150  0.00  0.00     0.116 C 
BRANCH   7   8
HETATM    8  C           1     -37.238   0.732  -9.781  0.00  0.00     0.172 C 
HETATM    9  O           1     -38.075   1.618  -9.503  0.00  0.00    -0.648 OA
HETATM   10  O           1     -36.400   0.373  -8.926  0.00  0.00    -0.648 OA
ENDBRANCH   7   8
ENDBRANCH   6   7
ENDBRANCH   5   6
BRANCH   5  11
HETATM   11  C           1     -34.912   0.566 -13.987  0.00  0.00     0.196 C 
HETATM   12  O           1     -34.451   1.617 -13.491  0.00  0.00    -0.646 OA
HETATM   13  O           1     -34.576   0.220 -15.139  0.00  0.00    -0.646 OA
ENDBRANCH   5  11
ENDBRANCH   3   5
BRANCH   4  14
HETATM   14  C           1     -34.220  -3.677 -12.538  0.00  0.00     0.274 C 
BRANCH  14  15
HETATM   15  C           1     -33.105  -3.987 -11.548  0.00  0.00     0.042 C 
BRANCH  15  16
HETATM   16  C           1     -33.113  -5.474 -11.222  0.00  0.00     0.003 C 
BRANCH  16  17
HETATM   17 Se           1     -34.950  -6.127 -11.205  0.00  0.00     0.000 Se
HETATM   18  C           1     -34.577  -7.634 -10.027  0.00  0.00     0.000 C 
ENDBRANCH  16  17
ENDBRANCH  15  16
ENDBRANCH  14  15
BRANCH  14  19
HETATM   19  N           1     -33.738  -3.950 -13.932  0.00  0.00    -0.067 N 
HETATM   20  H           1     -32.902  -3.357 -14.135  0.00  0.00     0.275 HD
HETATM   21  H           1     -33.478  -4.958 -14.020  0.00  0.00     0.275 HD
HETATM   22  H           1     -34.499  -3.725 -14.613  0.00  0.00     0.275 HD
ENDBRANCH  14  19
ENDBRANCH   4  14
TORSDOF 10
ENDMDL
MODEL 9
REMARK VINA RESULT:      -4.8     14.866     17.338
REMARK  10 active torsions:
REMARK  status: ('A' for Active; 'I' for Inactive)
REMARK    1  A    between atoms: C_1  and  C_22 
REMARK    2  A    between atoms: C_1  and  C_2 
REMARK    3  A    between atoms: C_1  and  N_6 
REMARK    4  A    between atoms: C_2  and  C_3 
REMARK    5  A    between atoms: C_3  and  Se_4 
REMARK    6  A    between atoms: C_10  and  C_12 
REMARK    7  A    between atoms: C_12  and  C_13 
REMARK    8  A    between atoms: C_13  and  C_14 
REMARK    9  A    between atoms: C_14  and  C_18 
REMARK   10  A    between atoms: C_14  and  N_21 
REMARK       I    between atoms: N_21  and  C_22 
ROOT
HETATM    1  O           1     -22.685  -5.904  -5.531  0.00  0.00    -0.271 OA
HETATM    2  H           1     -19.916  -6.309  -4.112  0.00  0.00     0.163 HD
HETATM    3  N           1     -20.904  -6.435  -4.292  0.00  0.00    -0.345 N 
HETATM    4  C           1     -21.505  -5.753  -5.315  0.00  0.00     0.249 C 
ENDROOT
BRANCH   3   5
HETATM    5  C           1     -21.682  -7.337  -3.466  0.00  0.00     0.186 C 
BRANCH   5   6
HETATM    6  C           1     -20.980  -8.686  -3.387  0.00  0.00     0.046 C 
BRANCH   6   7
HETATM    7  C           1     -21.262  -9.482  -4.654  0.00  0.00     0.116 C 
BRANCH   7   8
HETATM    8  C           1     -20.002  -9.584  -5.477  0.00  0.00     0.172 C 
HETATM    9  O           1     -19.646 -10.689  -5.941  0.00  0.00    -0.648 OA
HETATM   10  O           1     -19.314  -8.563  -5.696  0.00  0.00    -0.648 OA
ENDBRANCH   7   8
ENDBRANCH   6   7
ENDBRANCH   5   6
BRANCH   5  11
HETATM   11  C           1     -21.818  -6.758  -2.079  0.00  0.00     0.196 C 
HETATM   12  O           1     -22.127  -5.556  -1.931  0.00  0.00    -0.646 OA
HETATM   13  O           1     -21.621  -7.480  -1.079  0.00  0.00    -0.646 OA
ENDBRANCH   5  11
ENDBRANCH   3   5
BRANCH   4  14
HETATM   14  C           1     -20.696  -4.814  -6.175  0.00  0.00     0.274 C 
BRANCH  14  15
HETATM   15  C           1     -21.605  -4.151  -7.201  0.00  0.00     0.042 C 
BRANCH  15  16
HETATM   16  C           1     -21.302  -4.709  -8.585  0.00  0.00     0.003 C 
BRANCH  16  17
HETATM   17 Se           1     -22.795  -4.332  -9.780  0.00  0.00     0.000 Se
HETATM   18  C           1     -21.706  -4.299 -11.396  0.00  0.00     0.000 C 
ENDBRANCH  16  17
ENDBRANCH  15  16
ENDBRANCH  14  15
BRANCH  14  19
HETATM   19  N           1     -19.623  -5.585  -6.884  0.00  0.00    -0.067 N 
HETATM   20  H           1     -19.881  -6.597  -6.913  0.00  0.00     0.275 HD
HETATM   21  H           1     -19.522  -5.225  -7.860  0.00  0.00     0.275 HD
HETATM   22  H           1     -18.717  -5.470  -6.375  0.00  0.00     0.275 HD
ENDBRANCH  14  19
ENDBRANCH   4  14
TORSDOF 10
ENDMDL
