MODEL 1
REMARK VINA RESULT:      -8.0      0.000      0.000
REMARK  9 active torsions:
REMARK  status: ('A' for Active; 'I' for Inactive)
REMARK    1  A    between atoms: C_2  and  C_3 
REMARK    2  A    between atoms: C_2  and  N_6 
REMARK       I    between atoms: N_6  and  C_7 
REMARK    3  A    between atoms: C_7  and  C_8 
REMARK    4  A    between atoms: C_8  and  C_9 
REMARK    5  A    between atoms: C_8  and  N_21 
REMARK    6  A    between atoms: C_9  and  C_10 
REMARK    7  A    between atoms: C_13  and  O_14 
REMARK    8  A    between atoms: O_14  and  P_15 
REMARK    9  A    between atoms: P_15  and  O_16 
ROOT
HETATM    1  C           1     -20.765  -4.791  -6.607  0.00  0.00     0.278 C 
ENDROOT
BRANCH   1   2
HETATM    2  C           1     -21.550  -5.701  -5.695  0.00  0.00     0.249 C 
HETATM    3  N           1     -20.895  -6.567  -4.861  0.00  0.00    -0.345 N 
HETATM    4  H           1     -19.883  -6.597  -4.856  0.00  0.00     0.163 HD
HETATM    5  O           1     -22.758  -5.667  -5.700  0.00  0.00    -0.271 OA
BRANCH   3   6
HETATM    6  C           1     -21.649  -7.442  -3.985  0.00  0.00     0.181 C 
HETATM    7  C           1     -21.028  -8.832  -3.999  0.00  0.00     0.043 C 
BRANCH   6   8
HETATM    8  C           1     -21.620  -6.893  -2.580  0.00  0.00     0.196 C 
HETATM    9  O           1     -22.365  -5.940  -2.266  0.00  0.00    -0.646 OA
HETATM   10  O           1     -20.850  -7.391  -1.729  0.00  0.00    -0.646 OA
ENDBRANCH   6   8
ENDBRANCH   3   6
ENDBRANCH   1   2
BRANCH   1  11
HETATM   11  C           1     -20.514  -5.494  -7.934  0.00  0.00     0.081 C 
BRANCH  11  12
HETATM   12  C           1     -21.133  -4.702  -9.043  0.00  0.00    -0.056 A 
HETATM   13  C           1     -20.408  -4.448 -10.207  0.00  0.00     0.010 A 
HETATM   14  C           1     -20.985  -3.710 -11.242  0.00  0.00     0.038 A 
HETATM   15  C           1     -22.287  -3.227 -11.111  0.00  0.00     0.081 A 
HETATM   16  C           1     -23.013  -3.483  -9.947  0.00  0.00     0.038 A 
HETATM   17  C           1     -22.435  -4.220  -8.913  0.00  0.00     0.010 A 
BRANCH  15  18
HETATM   18  O           1     -22.848  -2.511 -12.115  0.00  0.00    -0.247 OA
BRANCH  18  19
HETATM   19  P           1     -23.917  -3.254 -13.071  0.00  0.00     0.411 P 
HETATM   20  O           1     -25.286  -2.841 -12.691  0.00  0.00    -0.624 OA
HETATM   21  O           1     -23.661  -2.882 -14.481  0.00  0.00    -0.624 OA
BRANCH  19  22
HETATM   22  O           1     -23.771  -4.854 -12.902  0.00  0.00    -0.300 OA
HETATM   23  H           1     -24.437  -5.094 -12.282  0.00  0.00     0.223 HD
ENDBRANCH  19  22
ENDBRANCH  18  19
ENDBRANCH  15  18
ENDBRANCH  11  12
ENDBRANCH   1  11
BRANCH   1  24
HETATM   24  N           1     -19.452  -4.453  -5.965  0.00  0.00    -0.066 N 
HETATM   25  H           1     -19.567  -4.431  -4.926  0.00  0.00     0.275 HD
HETATM   26  H           1     -18.743  -5.175  -6.222  0.00  0.00     0.275 HD
HETATM   27  H           1     -19.132  -3.516  -6.299  0.00  0.00     0.275 HD
ENDBRANCH   1  24
TORSDOF 9
ENDMDL
MODEL 2
REMARK VINA RESULT:      -7.5      1.533      2.352
REMARK  9 active torsions:
REMARK  status: ('A' for Active; 'I' for Inactive)
REMARK    1  A    between atoms: C_2  and  C_3 
REMARK    2  A    between atoms: C_2  and  N_6 
REMARK       I    between atoms: N_6  and  C_7 
REMARK    3  A    between atoms: C_7  and  C_8 
REMARK    4  A    between atoms: C_8  and  C_9 
REMARK    5  A    between atoms: C_8  and  N_21 
REMARK    6  A    between atoms: C_9  and  C_10 
REMARK    7  A    between atoms: C_13  and  O_14 
REMARK    8  A    between atoms: O_14  and  P_15 
REMARK    9  A    between atoms: P_15  and  O_16 
ROOT
HETATM    1  C           1     -22.373  -5.452  -6.480  0.00  0.00     0.278 C 
ENDROOT
BRANCH   1   2
HETATM    2  C           1     -21.543  -5.744  -5.254  0.00  0.00     0.249 C 
HETATM    3  N           1     -22.131  -6.278  -4.140  0.00  0.00    -0.345 N 
HETATM    4  H           1     -23.124  -6.477  -4.137  0.00  0.00     0.163 HD
HETATM    5  O           1     -20.358  -5.506  -5.255  0.00  0.00    -0.271 OA
BRANCH   3   6
HETATM    6  C           1     -21.334  -6.558  -2.961  0.00  0.00     0.181 C 
HETATM    7  C           1     -22.139  -6.225  -1.713  0.00  0.00     0.043 C 
BRANCH   6   8
HETATM    8  C           1     -20.961  -8.020  -2.943  0.00  0.00     0.196 C 
HETATM    9  O           1     -21.722  -8.852  -2.402  0.00  0.00    -0.646 OA
HETATM   10  O           1     -19.892  -8.400  -3.467  0.00  0.00    -0.646 OA
ENDBRANCH   6   8
ENDBRANCH   3   6
ENDBRANCH   1   2
BRANCH   1  11
HETATM   11  C           1     -21.820  -4.222  -7.188  0.00  0.00     0.081 C 
BRANCH  11  12
HETATM   12  C           1     -22.205  -4.263  -8.634  0.00  0.00    -0.056 A 
HETATM   13  C           1     -23.550  -4.245  -8.998  0.00  0.00     0.010 A 
HETATM   14  C           1     -23.909  -4.282 -10.346  0.00  0.00     0.038 A 
HETATM   15  C           1     -22.921  -4.336 -11.329  0.00  0.00     0.081 A 
HETATM   16  C           1     -21.574  -4.353 -10.964  0.00  0.00     0.038 A 
HETATM   17  C           1     -21.216  -4.316  -9.616  0.00  0.00     0.010 A 
BRANCH  15  18
HETATM   18  O           1     -23.269  -4.372 -12.638  0.00  0.00    -0.247 OA
BRANCH  18  19
HETATM   19  P           1     -23.865  -3.025 -13.301  0.00  0.00     0.411 P 
HETATM   20  O           1     -23.626  -3.048 -14.761  0.00  0.00    -0.624 OA
HETATM   21  O           1     -25.320  -2.948 -13.039  0.00  0.00    -0.624 OA
BRANCH  19  22
HETATM   22  O           1     -23.134  -1.737 -12.655  0.00  0.00    -0.300 OA
HETATM   23  H           1     -22.491  -2.092 -12.067  0.00  0.00     0.223 HD
ENDBRANCH  19  22
ENDBRANCH  18  19
ENDBRANCH  15  18
ENDBRANCH  11  12
ENDBRANCH   1  11
BRANCH   1  24
HETATM   24  N           1     -23.793  -5.198  -6.073  0.00  0.00    -0.066 N 
HETATM   25  H           1     -24.262  -4.603  -6.793  0.00  0.00     0.275 HD
HETATM   26  H           1     -24.300  -6.108  -5.989  0.00  0.00     0.275 HD
HETATM   27  H           1     -23.808  -4.705  -5.151  0.00  0.00     0.275 HD
ENDBRANCH   1  24
TORSDOF 9
ENDMDL
MODEL 3
REMARK VINA RESULT:      -7.4      1.171      1.514
REMARK  9 active torsions:
REMARK  status: ('A' for Active; 'I' for Inactive)
REMARK    1  A    between atoms: C_2  and  C_3 
REMARK    2  A    between atoms: C_2  and  N_6 
REMARK       I    between atoms: N_6  and  C_7 
REMARK    3  A    between atoms: C_7  and  C_8 
REMARK    4  A    between atoms: C_8  and  C_9 
REMARK    5  A    between atoms: C_8  and  N_21 
REMARK    6  A    between atoms: C_9  and  C_10 
REMARK    7  A    between atoms: C_13  and  O_14 
REMARK    8  A    between atoms: O_14  and  P_15 
REMARK    9  A    between atoms: P_15  and  O_16 
ROOT
HETATM    1  C           1     -20.904  -5.629  -6.231  0.00  0.00     0.278 C 
ENDROOT
BRANCH   1   2
HETATM    2  C           1     -20.930  -7.014  -5.632  0.00  0.00     0.249 C 
HETATM    3  N           1     -20.629  -7.193  -4.309  0.00  0.00    -0.345 N 
HETATM    4  H           1     -20.389  -6.397  -3.731  0.00  0.00     0.163 HD
HETATM    5  O           1     -21.215  -7.965  -6.320  0.00  0.00    -0.271 OA
BRANCH   3   6
HETATM    6  C           1     -20.653  -8.524  -3.732  0.00  0.00     0.181 C 
HETATM    7  C           1     -19.249  -9.114  -3.759  0.00  0.00     0.043 C 
BRANCH   6   8
HETATM    8  C           1     -21.138  -8.445  -2.306  0.00  0.00     0.196 C 
HETATM    9  O           1     -21.979  -9.269  -1.886  0.00  0.00    -0.646 OA
HETATM   10  O           1     -20.699  -7.556  -1.544  0.00  0.00    -0.646 OA
ENDBRANCH   6   8
ENDBRANCH   3   6
ENDBRANCH   1   2
BRANCH   1  11
HETATM   11  C           1     -20.167  -5.665  -7.563  0.00  0.00     0.081 C 
BRANCH  11  12
HETATM   12  C           1     -20.921  -4.857  -8.573  0.00  0.00    -0.056 A 
HETATM   13  C           1     -20.311  -4.495  -9.773  0.00  0.00     0.010 A 
HETATM   14  C           1     -21.014  -3.743 -10.715  0.00  0.00     0.038 A 
HETATM   15  C           1     -22.329  -3.354 -10.455  0.00  0.00     0.081 A 
HETATM   16  C           1     -22.940  -3.718  -9.255  0.00  0.00     0.038 A 
HETATM   17  C           1     -22.236  -4.470  -8.314  0.00  0.00     0.010 A 
BRANCH  15  18
HETATM   18  O           1     -23.012  -2.624 -11.370  0.00  0.00    -0.247 OA
BRANCH  18  19
HETATM   19  P           1     -23.534  -3.374 -12.701  0.00  0.00     0.411 P 
HETATM   20  O           1     -23.788  -4.799 -12.396  0.00  0.00    -0.624 OA
HETATM   21  O           1     -24.787  -2.737 -13.167  0.00  0.00    -0.624 OA
BRANCH  19  22
HETATM   22  O           1     -22.413  -3.263 -13.859  0.00  0.00    -0.300 OA
HETATM   23  H           1     -22.591  -2.447 -14.292  0.00  0.00     0.223 HD
ENDBRANCH  19  22
ENDBRANCH  18  19
ENDBRANCH  15  18
ENDBRANCH  11  12
ENDBRANCH   1  11
BRANCH   1  24
HETATM   24  N           1     -20.200  -4.693  -5.296  0.00  0.00    -0.066 N 
HETATM   25  H           1     -20.038  -5.170  -4.380  0.00  0.00     0.275 HD
HETATM   26  H           1     -19.282  -4.413  -5.709  0.00  0.00     0.275 HD
HETATM   27  H           1     -20.789  -3.843  -5.145  0.00  0.00     0.275 HD
ENDBRANCH   1  24
TORSDOF 9
ENDMDL
MODEL 4
REMARK VINA RESULT:      -7.2      3.571      8.637
REMARK  9 active torsions:
REMARK  status: ('A' for Active; 'I' for Inactive)
REMARK    1  A    between atoms: C_2  and  C_3 
REMARK    2  A    between atoms: C_2  and  N_6 
REMARK       I    between atoms: N_6  and  C_7 
REMARK    3  A    between atoms: C_7  and  C_8 
REMARK    4  A    between atoms: C_8  and  C_9 
REMARK    5  A    between atoms: C_8  and  N_21 
REMARK    6  A    between atoms: C_9  and  C_10 
REMARK    7  A    between atoms: C_13  and  O_14 
REMARK    8  A    between atoms: O_14  and  P_15 
REMARK    9  A    between atoms: P_15  and  O_16 
ROOT
HETATM    1  C           1     -21.275  -4.423 -10.659  0.00  0.00     0.278 C 
ENDROOT
BRANCH   1   2
HETATM    2  C           1     -22.457  -4.357 -11.594  0.00  0.00     0.249 C 
HETATM    3  N           1     -22.466  -3.457 -12.625  0.00  0.00    -0.345 N 
HETATM    4  H           1     -21.679  -2.834 -12.760  0.00  0.00     0.163 HD
HETATM    5  O           1     -23.397  -5.100 -11.434  0.00  0.00    -0.271 OA
BRANCH   3   6
HETATM    6  C           1     -23.602  -3.393 -13.524  0.00  0.00     0.181 C 
HETATM    7  C           1     -24.814  -2.857 -12.774  0.00  0.00     0.043 C 
BRANCH   6   8
HETATM    8  C           1     -23.279  -2.476 -14.678  0.00  0.00     0.196 C 
HETATM    9  O           1     -22.359  -2.771 -15.471  0.00  0.00    -0.646 OA
HETATM   10  O           1     -23.931  -1.422 -14.841  0.00  0.00    -0.646 OA
ENDBRANCH   6   8
ENDBRANCH   3   6
ENDBRANCH   1   2
BRANCH   1  11
HETATM   11  C           1     -21.575  -3.616  -9.403  0.00  0.00     0.081 C 
BRANCH  11  12
HETATM   12  C           1     -21.263  -4.440  -8.193  0.00  0.00    -0.056 A 
HETATM   13  C           1     -22.241  -4.654  -7.223  0.00  0.00     0.010 A 
HETATM   14  C           1     -21.950  -5.423  -6.095  0.00  0.00     0.038 A 
HETATM   15  C           1     -20.680  -5.978  -5.939  0.00  0.00     0.081 A 
HETATM   16  C           1     -19.701  -5.765  -6.911  0.00  0.00     0.038 A 
HETATM   17  C           1     -19.993  -4.996  -8.037  0.00  0.00     0.010 A 
BRANCH  15  18
HETATM   18  O           1     -20.397  -6.725  -4.844  0.00  0.00    -0.247 OA
BRANCH  18  19
HETATM   19  P           1     -20.419  -8.332  -4.998  0.00  0.00     0.411 P 
HETATM   20  O           1     -20.913  -8.939  -3.742  0.00  0.00    -0.624 OA
HETATM   21  O           1     -21.314  -8.709  -6.115  0.00  0.00    -0.624 OA
BRANCH  19  22
HETATM   22  O           1     -18.925  -8.866  -5.302  0.00  0.00    -0.300 OA
HETATM   23  H           1     -18.655  -8.405  -6.077  0.00  0.00     0.223 HD
ENDBRANCH  19  22
ENDBRANCH  18  19
ENDBRANCH  15  18
ENDBRANCH  11  12
ENDBRANCH   1  11
BRANCH   1  24
HETATM   24  N           1     -20.067  -3.855 -11.340  0.00  0.00    -0.066 N 
HETATM   25  H           1     -20.246  -3.783 -12.368  0.00  0.00     0.275 HD
HETATM   26  H           1     -19.864  -2.905 -10.955  0.00  0.00     0.275 HD
HETATM   27  H           1     -19.246  -4.480 -11.174  0.00  0.00     0.275 HD
ENDBRANCH   1  24
TORSDOF 9
ENDMDL
MODEL 5
REMARK VINA RESULT:      -7.1      3.595      8.954
REMARK  9 active torsions:
REMARK  status: ('A' for Active; 'I' for Inactive)
REMARK    1  A    between atoms: C_2  and  C_3 
REMARK    2  A    between atoms: C_2  and  N_6 
REMARK       I    between atoms: N_6  and  C_7 
REMARK    3  A    between atoms: C_7  and  C_8 
REMARK    4  A    between atoms: C_8  and  C_9 
REMARK    5  A    between atoms: C_8  and  N_21 
REMARK    6  A    between atoms: C_9  and  C_10 
REMARK    7  A    between atoms: C_13  and  O_14 
REMARK    8  A    between atoms: O_14  and  P_15 
REMARK    9  A    between atoms: P_15  and  O_16 
ROOT
HETATM    1  C           1     -22.368  -4.852  -6.664  0.00  0.00     0.278 C 
ENDROOT
BRANCH   1   2
HETATM    2  C           1     -22.282  -4.180  -8.012  0.00  0.00     0.249 C 
HETATM    3  N           1     -23.298  -4.330  -8.917  0.00  0.00    -0.345 N 
HETATM    4  H           1     -24.106  -4.892  -8.683  0.00  0.00     0.163 HD
HETATM    5  O           1     -21.318  -3.508  -8.293  0.00  0.00    -0.271 OA
BRANCH   3   6
HETATM    6  C           1     -23.216  -3.684 -10.213  0.00  0.00     0.181 C 
HETATM    7  C           1     -22.629  -4.656 -11.228  0.00  0.00     0.043 C 
BRANCH   6   8
HETATM    8  C           1     -24.597  -3.269 -10.656  0.00  0.00     0.196 C 
HETATM    9  O           1     -25.505  -3.117  -9.810  0.00  0.00    -0.646 OA
HETATM   10  O           1     -24.834  -3.077 -11.868  0.00  0.00    -0.646 OA
ENDBRANCH   6   8
ENDBRANCH   3   6
ENDBRANCH   1   2
BRANCH   1  11
HETATM   11  C           1     -21.660  -6.199  -6.721  0.00  0.00     0.081 C 
BRANCH  11  12
HETATM   12  C           1     -21.419  -6.696  -5.330  0.00  0.00    -0.056 A 
HETATM   13  C           1     -21.172  -5.792  -4.298  0.00  0.00     0.010 A 
HETATM   14  C           1     -20.948  -6.255  -3.001  0.00  0.00     0.038 A 
HETATM   15  C           1     -20.972  -7.625  -2.737  0.00  0.00     0.081 A 
HETATM   16  C           1     -21.221  -8.530  -3.769  0.00  0.00     0.038 A 
HETATM   17  C           1     -21.444  -8.066  -5.066  0.00  0.00     0.010 A 
BRANCH  15  18
HETATM   18  O           1     -20.755  -8.075  -1.478  0.00  0.00    -0.247 OA
BRANCH  18  19
HETATM   19  P           1     -22.019  -8.162  -0.476  0.00  0.00     0.411 P 
HETATM   20  O           1     -22.883  -6.977  -0.669  0.00  0.00    -0.624 OA
HETATM   21  O           1     -22.794  -9.391  -0.764  0.00  0.00    -0.624 OA
BRANCH  19  22
HETATM   22  O           1     -21.495  -8.204   1.052  0.00  0.00    -0.300 OA
HETATM   23  H           1     -22.055  -8.825   1.484  0.00  0.00     0.223 HD
ENDBRANCH  19  22
ENDBRANCH  18  19
ENDBRANCH  15  18
ENDBRANCH  11  12
ENDBRANCH   1  11
BRANCH   1  24
HETATM   24  N           1     -23.807  -5.059  -6.299  0.00  0.00    -0.066 N 
HETATM   25  H           1     -24.215  -5.810  -6.901  0.00  0.00     0.275 HD
HETATM   26  H           1     -23.875  -5.343  -5.296  0.00  0.00     0.275 HD
HETATM   27  H           1     -24.336  -4.170  -6.446  0.00  0.00     0.275 HD
ENDBRANCH   1  24
TORSDOF 9
ENDMDL
MODEL 6
REMARK VINA RESULT:      -6.7      1.744      2.652
REMARK  9 active torsions:
REMARK  status: ('A' for Active; 'I' for Inactive)
REMARK    1  A    between atoms: C_2  and  C_3 
REMARK    2  A    between atoms: C_2  and  N_6 
REMARK       I    between atoms: N_6  and  C_7 
REMARK    3  A    between atoms: C_7  and  C_8 
REMARK    4  A    between atoms: C_8  and  C_9 
REMARK    5  A    between atoms: C_8  and  N_21 
REMARK    6  A    between atoms: C_9  and  C_10 
REMARK    7  A    between atoms: C_13  and  O_14 
REMARK    8  A    between atoms: O_14  and  P_15 
REMARK    9  A    between atoms: P_15  and  O_16 
ROOT
HETATM    1  C           1     -20.467  -6.807  -5.467  0.00  0.00     0.278 C 
ENDROOT
BRANCH   1   2
HETATM    2  C           1     -21.180  -7.506  -4.335  0.00  0.00     0.249 C 
HETATM    3  N           1     -20.878  -7.192  -3.038  0.00  0.00    -0.345 N 
HETATM    4  H           1     -20.176  -6.491  -2.837  0.00  0.00     0.163 HD
HETATM    5  O           1     -22.019  -8.343  -4.574  0.00  0.00    -0.271 OA
BRANCH   3   6
HETATM    6  C           1     -21.563  -7.863  -1.950  0.00  0.00     0.181 C 
HETATM    7  C           1     -20.539  -8.508  -1.026  0.00  0.00     0.043 C 
BRANCH   6   8
HETATM    8  C           1     -22.377  -6.858  -1.172  0.00  0.00     0.196 C 
HETATM    9  O           1     -22.477  -5.682  -1.585  0.00  0.00    -0.646 OA
HETATM   10  O           1     -22.951  -7.201  -0.116  0.00  0.00    -0.646 OA
ENDBRANCH   6   8
ENDBRANCH   3   6
ENDBRANCH   1   2
BRANCH   1  11
HETATM   11  C           1     -20.709  -5.306  -5.371  0.00  0.00     0.081 C 
BRANCH  11  12
HETATM   12  C           1     -21.161  -4.787  -6.701  0.00  0.00    -0.056 A 
HETATM   13  C           1     -22.505  -4.488  -6.913  0.00  0.00     0.010 A 
HETATM   14  C           1     -22.926  -4.004  -8.152  0.00  0.00     0.038 A 
HETATM   15  C           1     -22.000  -3.819  -9.178  0.00  0.00     0.081 A 
HETATM   16  C           1     -20.654  -4.117  -8.966  0.00  0.00     0.038 A 
HETATM   17  C           1     -20.234  -4.602  -7.727  0.00  0.00     0.010 A 
BRANCH  15  18
HETATM   18  O           1     -22.408  -3.348 -10.382  0.00  0.00    -0.247 OA
BRANCH  18  19
HETATM   19  P           1     -23.671  -4.066 -11.087  0.00  0.00     0.411 P 
HETATM   20  O           1     -23.797  -5.451 -10.581  0.00  0.00    -0.624 OA
HETATM   21  O           1     -24.906  -3.311 -10.775  0.00  0.00    -0.624 OA
BRANCH  19  22
HETATM   22  O           1     -23.451  -4.097 -12.688  0.00  0.00    -0.300 OA
HETATM   23  H           1     -23.915  -4.860 -12.982  0.00  0.00     0.223 HD
ENDBRANCH  19  22
ENDBRANCH  18  19
ENDBRANCH  15  18
ENDBRANCH  11  12
ENDBRANCH   1  11
BRANCH   1  24
HETATM   24  N           1     -20.992  -7.315  -6.776  0.00  0.00    -0.066 N 
HETATM   25  H           1     -21.966  -7.670  -6.649  0.00  0.00     0.275 HD
HETATM   26  H           1     -20.993  -6.538  -7.476  0.00  0.00     0.275 HD
HETATM   27  H           1     -20.381  -8.091  -7.119  0.00  0.00     0.275 HD
ENDBRANCH   1  24
TORSDOF 9
ENDMDL
MODEL 7
REMARK VINA RESULT:      -6.7     13.113     16.158
REMARK  9 active torsions:
REMARK  status: ('A' for Active; 'I' for Inactive)
REMARK    1  A    between atoms: C_2  and  C_3 
REMARK    2  A    between atoms: C_2  and  N_6 
REMARK       I    between atoms: N_6  and  C_7 
REMARK    3  A    between atoms: C_7  and  C_8 
REMARK    4  A    between atoms: C_8  and  C_9 
REMARK    5  A    between atoms: C_8  and  N_21 
REMARK    6  A    between atoms: C_9  and  C_10 
REMARK    7  A    between atoms: C_13  and  O_14 
REMARK    8  A    between atoms: O_14  and  P_15 
REMARK    9  A    between atoms: P_15  and  O_16 
ROOT
HETATM    1  C           1     -36.214  -0.283 -11.752  0.00  0.00     0.278 C 
ENDROOT
BRANCH   1   2
HETATM    2  C           1     -36.781  -0.171 -13.146  0.00  0.00     0.249 C 
HETATM    3  N           1     -36.087   0.503 -14.115  0.00  0.00    -0.345 N 
HETATM    4  H           1     -35.194   0.926 -13.897  0.00  0.00     0.163 HD
HETATM    5  O           1     -37.848  -0.675 -13.407  0.00  0.00    -0.271 OA
BRANCH   3   6
HETATM    6  C           1     -36.632   0.611 -15.455  0.00  0.00     0.181 C 
HETATM    7  C           1     -36.213   1.941 -16.066  0.00  0.00     0.043 C 
BRANCH   6   8
HETATM    8  C           1     -36.106  -0.520 -16.304  0.00  0.00     0.196 C 
HETATM    9  O           1     -36.759  -0.912 -17.295  0.00  0.00    -0.646 OA
HETATM   10  O           1     -35.018  -1.064 -16.017  0.00  0.00    -0.646 OA
ENDBRANCH   6   8
ENDBRANCH   3   6
ENDBRANCH   1   2
BRANCH   1  11
HETATM   11  C           1     -34.701  -0.437 -11.829  0.00  0.00     0.081 C 
BRANCH  11  12
HETATM   12  C           1     -34.337  -1.880 -11.669  0.00  0.00    -0.056 A 
HETATM   13  C           1     -33.897  -2.356 -10.434  0.00  0.00     0.010 A 
HETATM   14  C           1     -33.558  -3.701 -10.284  0.00  0.00     0.038 A 
HETATM   15  C           1     -33.660  -4.570 -11.370  0.00  0.00     0.081 A 
HETATM   16  C           1     -34.101  -4.095 -12.606  0.00  0.00     0.038 A 
HETATM   17  C           1     -34.439  -2.749 -12.755  0.00  0.00     0.010 A 
BRANCH  15  18
HETATM   18  O           1     -33.331  -5.876 -11.225  0.00  0.00    -0.247 OA
BRANCH  18  19
HETATM   19  P           1     -34.489  -6.903 -10.763  0.00  0.00     0.411 P 
HETATM   20  O           1     -33.873  -8.080 -10.113  0.00  0.00    -0.624 OA
HETATM   21  O           1     -35.395  -6.227  -9.807  0.00  0.00    -0.624 OA
BRANCH  19  22
HETATM   22  O           1     -35.333  -7.381 -12.055  0.00  0.00    -0.300 OA
HETATM   23  H           1     -35.211  -8.314 -12.093  0.00  0.00     0.223 HD
ENDBRANCH  19  22
ENDBRANCH  18  19
ENDBRANCH  15  18
ENDBRANCH  11  12
ENDBRANCH   1  11
BRANCH   1  24
HETATM   24  N           1     -36.804  -1.480 -11.069  0.00  0.00    -0.066 N 
HETATM   25  H           1     -36.119  -2.270 -11.095  0.00  0.00     0.275 HD
HETATM   26  H           1     -37.022  -1.242 -10.075  0.00  0.00     0.275 HD
HETATM   27  H           1     -37.681  -1.765 -11.559  0.00  0.00     0.275 HD
ENDBRANCH   1  24
TORSDOF 9
ENDMDL
MODEL 8
REMARK VINA RESULT:      -6.4      3.337      8.468
REMARK  9 active torsions:
REMARK  status: ('A' for Active; 'I' for Inactive)
REMARK    1  A    between atoms: C_2  and  C_3 
REMARK    2  A    between atoms: C_2  and  N_6 
REMARK       I    between atoms: N_6  and  C_7 
REMARK    3  A    between atoms: C_7  and  C_8 
REMARK    4  A    between atoms: C_8  and  C_9 
REMARK    5  A    between atoms: C_8  and  N_21 
REMARK    6  A    between atoms: C_9  and  C_10 
REMARK    7  A    between atoms: C_13  and  O_14 
REMARK    8  A    between atoms: O_14  and  P_15 
REMARK    9  A    between atoms: P_15  and  O_16 
ROOT
HETATM    1  C           1     -21.280  -4.440 -10.334  0.00  0.00     0.278 C 
ENDROOT
BRANCH   1   2
HETATM    2  C           1     -22.246  -3.606 -11.138  0.00  0.00     0.249 C 
HETATM    3  N           1     -22.169  -3.596 -12.505  0.00  0.00    -0.345 N 
HETATM    4  H           1     -21.464  -4.147 -12.976  0.00  0.00     0.163 HD
HETATM    5  O           1     -23.088  -2.946 -10.576  0.00  0.00    -0.271 OA
BRANCH   3   6
HETATM    6  C           1     -23.098  -2.794 -13.278  0.00  0.00     0.181 C 
HETATM    7  C           1     -22.616  -2.707 -14.719  0.00  0.00     0.043 C 
BRANCH   6   8
HETATM    8  C           1     -24.464  -3.433 -13.243  0.00  0.00     0.196 C 
HETATM    9  O           1     -24.632  -4.574 -13.726  0.00  0.00    -0.646 OA
HETATM   10  O           1     -25.428  -2.822 -12.732  0.00  0.00    -0.646 OA
ENDBRANCH   6   8
ENDBRANCH   3   6
ENDBRANCH   1   2
BRANCH   1  11
HETATM   11  C           1     -20.916  -3.703  -9.052  0.00  0.00     0.081 C 
BRANCH  11  12
HETATM   12  C           1     -21.151  -4.600  -7.876  0.00  0.00    -0.056 A 
HETATM   13  C           1     -20.158  -5.488  -7.466  0.00  0.00     0.010 A 
HETATM   14  C           1     -20.377  -6.323  -6.370  0.00  0.00     0.038 A 
HETATM   15  C           1     -21.591  -6.269  -5.685  0.00  0.00     0.081 A 
HETATM   16  C           1     -22.585  -5.379  -6.094  0.00  0.00     0.038 A 
HETATM   17  C           1     -22.365  -4.545  -7.190  0.00  0.00     0.010 A 
BRANCH  15  18
HETATM   18  O           1     -21.804  -7.080  -4.620  0.00  0.00    -0.247 OA
BRANCH  18  19
HETATM   19  P           1     -21.500  -6.492  -3.147  0.00  0.00     0.411 P 
HETATM   20  O           1     -20.905  -7.554  -2.306  0.00  0.00    -0.624 OA
HETATM   21  O           1     -20.554  -5.358  -3.254  0.00  0.00    -0.624 OA
BRANCH  19  22
HETATM   22  O           1     -22.877  -5.981  -2.474  0.00  0.00    -0.300 OA
HETATM   23  H           1     -23.438  -5.771  -3.200  0.00  0.00     0.223 HD
ENDBRANCH  19  22
ENDBRANCH  18  19
ENDBRANCH  15  18
ENDBRANCH  11  12
ENDBRANCH   1  11
BRANCH   1  24
HETATM   24  N           1     -20.039  -4.683 -11.140  0.00  0.00    -0.066 N 
HETATM   25  H           1     -20.284  -4.726 -12.155  0.00  0.00     0.275 HD
HETATM   26  H           1     -19.361  -3.904 -10.979  0.00  0.00     0.275 HD
HETATM   27  H           1     -19.606  -5.588 -10.848  0.00  0.00     0.275 HD
ENDBRANCH   1  24
TORSDOF 9
ENDMDL
MODEL 9
REMARK VINA RESULT:      -6.4      2.893      4.153
REMARK  9 active torsions:
REMARK  status: ('A' for Active; 'I' for Inactive)
REMARK    1  A    between atoms: C_2  and  C_3 
REMARK    2  A    between atoms: C_2  and  N_6 
REMARK       I    between atoms: N_6  and  C_7 
REMARK    3  A    between atoms: C_7  and  C_8 
REMARK    4  A    between atoms: C_8  and  C_9 
REMARK    5  A    between atoms: C_8  and  N_21 
REMARK    6  A    between atoms: C_9  and  C_10 
REMARK    7  A    between atoms: C_13  and  O_14 
REMARK    8  A    between atoms: O_14  and  P_15 
REMARK    9  A    between atoms: P_15  and  O_16 
ROOT
HETATM    1  C           1     -20.545  -7.684  -4.550  0.00  0.00     0.278 C 
ENDROOT
BRANCH   1   2
HETATM    2  C           1     -20.549  -8.383  -3.212  0.00  0.00     0.249 C 
HETATM    3  N           1     -21.614  -8.235  -2.366  0.00  0.00    -0.345 N 
HETATM    4  H           1     -22.400  -7.656  -2.636  0.00  0.00     0.163 HD
HETATM    5  O           1     -19.612  -9.074  -2.888  0.00  0.00    -0.271 OA
BRANCH   3   6
HETATM    6  C           1     -21.619  -8.906  -1.080  0.00  0.00     0.181 C 
HETATM    7  C           1     -22.022  -7.918   0.007  0.00  0.00     0.043 C 
BRANCH   6   8
HETATM    8  C           1     -22.605 -10.047  -1.112  0.00  0.00     0.196 C 
HETATM    9  O           1     -23.335 -10.271  -0.122  0.00  0.00    -0.646 OA
HETATM   10  O           1     -22.692 -10.770  -2.129  0.00  0.00    -0.646 OA
ENDBRANCH   6   8
ENDBRANCH   3   6
ENDBRANCH   1   2
BRANCH   1  11
HETATM   11  C           1     -21.447  -6.459  -4.486  0.00  0.00     0.081 C 
BRANCH  11  12
HETATM   12  C           1     -21.248  -5.628  -5.716  0.00  0.00    -0.056 A 
HETATM   13  C           1     -22.348  -5.223  -6.470  0.00  0.00     0.010 A 
HETATM   14  C           1     -22.163  -4.448  -7.615  0.00  0.00     0.038 A 
HETATM   15  C           1     -20.876  -4.079  -8.006  0.00  0.00     0.081 A 
HETATM   16  C           1     -19.774  -4.483  -7.251  0.00  0.00     0.038 A 
HETATM   17  C           1     -19.961  -5.258  -6.106  0.00  0.00     0.010 A 
BRANCH  15  18
HETATM   18  O           1     -20.696  -3.326  -9.118  0.00  0.00    -0.247 OA
BRANCH  18  19
HETATM   19  P           1     -20.740  -4.070 -10.551  0.00  0.00     0.411 P 
HETATM   20  O           1     -19.762  -5.180 -10.560  0.00  0.00    -0.624 OA
HETATM   21  O           1     -22.100  -4.606 -10.787  0.00  0.00    -0.624 OA
BRANCH  19  22
HETATM   22  O           1     -20.368  -3.016 -11.718  0.00  0.00    -0.300 OA
HETATM   23  H           1     -20.848  -2.235 -11.502  0.00  0.00     0.223 HD
ENDBRANCH  19  22
ENDBRANCH  18  19
ENDBRANCH  15  18
ENDBRANCH  11  12
ENDBRANCH   1  11
BRANCH   1  24
HETATM   24  N           1     -21.050  -8.622  -5.605  0.00  0.00    -0.066 N 
HETATM   25  H           1     -20.438  -9.469  -5.642  0.00  0.00     0.275 HD
HETATM   26  H           1     -22.028  -8.909  -5.376  0.00  0.00     0.275 HD
HETATM   27  H           1     -21.036  -8.143  -6.533  0.00  0.00     0.275 HD
ENDBRANCH   1  24
TORSDOF 9
ENDMDL
