MODEL 1
REMARK VINA RESULT:      -7.0      0.000      0.000
REMARK  7 active torsions:
REMARK  status: ('A' for Active; 'I' for Inactive)
REMARK    1  A    between atoms: C_6  and  C_7 
REMARK    2  A    between atoms: C_6  and  C_17 
REMARK    3  A    between atoms: C_7  and  C_16 
REMARK    4  A    between atoms: C_7  and  N_8 
REMARK       I    between atoms: N_8  and  C_15 
REMARK    5  A    between atoms: N_12  and  C_25 
REMARK    6  A    between atoms: C_15  and  C_25 
REMARK    7  A    between atoms: C_21  and  C_25 
ROOT
HETATM    1  C           1     -20.748  -9.157  -4.317  0.00  0.00     0.190 C 
ENDROOT
BRANCH   1   2
HETATM    2  C           1     -20.004  -7.903  -4.757  0.00  0.00     0.077 C 
BRANCH   2   3
HETATM    3  C           1     -20.984  -6.899  -5.281  0.00  0.00    -0.028 A 
HETATM    4  C           1     -20.738  -5.944  -6.305  0.00  0.00    -0.002 A 
HETATM    5  C           1     -21.915  -5.214  -6.478  0.00  0.00     0.042 A 
HETATM    6  C           1     -19.623  -5.629  -7.105  0.00  0.00     0.014 A 
HETATM    7  N           1     -22.836  -5.717  -5.585  0.00  0.00    -0.365 N 
HETATM    8  C           1     -22.033  -4.181  -7.414  0.00  0.00     0.030 A 
HETATM    9  C           1     -22.283  -6.736  -4.856  0.00  0.00     0.096 A 
HETATM   10  H           1     -23.821  -5.368  -5.479  0.00  0.00     0.165 HD
HETATM   11  C           1     -20.912  -3.886  -8.196  0.00  0.00     0.002 A 
HETATM   12  C           1     -19.724  -4.598  -8.047  0.00  0.00     0.001 A 
ENDBRANCH   2   3
ENDBRANCH   1   2
BRANCH   1  13
HETATM   13  C           1     -20.340 -10.318  -5.192  0.00  0.00     0.197 C 
HETATM   14  O           1     -19.327 -10.991  -4.905  0.00  0.00    -0.646 OA
HETATM   15  O           1     -21.017 -10.607  -6.202  0.00  0.00    -0.646 OA
ENDBRANCH   1  13
BRANCH   1  16
HETATM   16  N           1     -20.418  -9.456  -2.937  0.00  0.00    -0.344 N 
HETATM   17  C           1     -21.329 -10.094  -2.139  0.00  0.00     0.249 C 
HETATM   18  O           1     -21.340 -11.301  -2.080  0.00  0.00    -0.271 OA
HETATM   19  H           1     -19.516  -9.192  -2.564  0.00  0.00     0.163 HD
BRANCH  17  20
HETATM   20  C           1     -22.320  -9.291  -1.332  0.00  0.00     0.278 C 
BRANCH  20  21
HETATM   21  N           1     -22.926 -10.164  -0.274  0.00  0.00    -0.066 N 
HETATM   22  H           1     -22.177 -10.497   0.375  0.00  0.00     0.275 HD
HETATM   23  H           1     -23.635  -9.618   0.265  0.00  0.00     0.275 HD
HETATM   24  H           1     -23.388 -10.987  -0.724  0.00  0.00     0.275 HD
ENDBRANCH  20  21
BRANCH  20  25
HETATM   25  C           1     -21.607  -8.117  -0.674  0.00  0.00     0.017 C 
HETATM   26  C           1     -22.241  -6.812  -1.138  0.00  0.00     0.012 C 
HETATM   27  C           1     -21.732  -8.232   0.839  0.00  0.00     0.012 C 
ENDBRANCH  20  25
ENDBRANCH  17  20
ENDBRANCH   1  16
TORSDOF 7
ENDMDL
MODEL 2
REMARK VINA RESULT:      -6.8      2.878      7.136
REMARK  7 active torsions:
REMARK  status: ('A' for Active; 'I' for Inactive)
REMARK    1  A    between atoms: C_6  and  C_7 
REMARK    2  A    between atoms: C_6  and  C_17 
REMARK    3  A    between atoms: C_7  and  C_16 
REMARK    4  A    between atoms: C_7  and  N_8 
REMARK       I    between atoms: N_8  and  C_15 
REMARK    5  A    between atoms: N_12  and  C_25 
REMARK    6  A    between atoms: C_15  and  C_25 
REMARK    7  A    between atoms: C_21  and  C_25 
ROOT
HETATM    1  C           1     -20.756  -5.053  -6.275  0.00  0.00     0.190 C 
ENDROOT
BRANCH   1   2
HETATM    2  C           1     -21.548  -6.345  -6.123  0.00  0.00     0.077 C 
BRANCH   2   3
HETATM    3  C           1     -20.957  -7.166  -5.020  0.00  0.00    -0.028 A 
HETATM    4  C           1     -21.299  -7.088  -3.642  0.00  0.00    -0.002 A 
HETATM    5  C           1     -20.512  -8.024  -2.969  0.00  0.00     0.042 A 
HETATM    6  C           1     -22.206  -6.307  -2.899  0.00  0.00     0.014 A 
HETATM    7  N           1     -19.724  -8.642  -3.914  0.00  0.00    -0.365 N 
HETATM    8  C           1     -20.587  -8.219  -1.585  0.00  0.00     0.030 A 
HETATM    9  C           1     -19.985  -8.131  -5.158  0.00  0.00     0.096 A 
HETATM   10  H           1     -19.023  -9.398  -3.711  0.00  0.00     0.165 HD
HETATM   11  C           1     -21.494  -7.432  -0.870  0.00  0.00     0.002 A 
HETATM   12  C           1     -22.293  -6.490  -1.513  0.00  0.00     0.001 A 
ENDBRANCH   2   3
ENDBRANCH   1   2
BRANCH   1  13
HETATM   13  C           1     -19.576  -5.290  -7.185  0.00  0.00     0.197 C 
HETATM   14  O           1     -18.612  -4.494  -7.180  0.00  0.00    -0.646 OA
HETATM   15  O           1     -19.562  -6.282  -7.944  0.00  0.00    -0.646 OA
ENDBRANCH   1  13
BRANCH   1  16
HETATM   16  N           1     -21.608  -4.028  -6.847  0.00  0.00    -0.344 N 
HETATM   17  C           1     -22.793  -4.376  -7.439  0.00  0.00     0.249 C 
HETATM   18  O           1     -23.805  -4.423  -6.782  0.00  0.00    -0.271 OA
HETATM   19  H           1     -21.327  -3.057  -6.811  0.00  0.00     0.163 HD
BRANCH  17  20
HETATM   20  C           1     -22.834  -4.701  -8.913  0.00  0.00     0.278 C 
BRANCH  20  21
HETATM   21  N           1     -24.260  -4.727  -9.377  0.00  0.00    -0.066 N 
HETATM   22  H           1     -24.400  -5.533 -10.029  0.00  0.00     0.275 HD
HETATM   23  H           1     -24.893  -4.834  -8.553  0.00  0.00     0.275 HD
HETATM   24  H           1     -24.481  -3.835  -9.875  0.00  0.00     0.275 HD
ENDBRANCH  20  21
BRANCH  20  25
HETATM   25  C           1     -22.067  -3.639  -9.689  0.00  0.00     0.017 C 
HETATM   26  C           1     -20.853  -4.274 -10.355  0.00  0.00     0.012 C 
HETATM   27  C           1     -22.972  -3.035 -10.754  0.00  0.00     0.012 C 
ENDBRANCH  20  25
ENDBRANCH  17  20
ENDBRANCH   1  16
TORSDOF 7
ENDMDL
MODEL 3
REMARK VINA RESULT:      -6.6      2.702      6.397
REMARK  7 active torsions:
REMARK  status: ('A' for Active; 'I' for Inactive)
REMARK    1  A    between atoms: C_6  and  C_7 
REMARK    2  A    between atoms: C_6  and  C_17 
REMARK    3  A    between atoms: C_7  and  C_16 
REMARK    4  A    between atoms: C_7  and  N_8 
REMARK       I    between atoms: N_8  and  C_15 
REMARK    5  A    between atoms: N_12  and  C_25 
REMARK    6  A    between atoms: C_15  and  C_25 
REMARK    7  A    between atoms: C_21  and  C_25 
ROOT
HETATM    1  C           1     -21.066  -7.806  -3.493  0.00  0.00     0.190 C 
ENDROOT
BRANCH   1   2
HETATM    2  C           1     -20.517  -7.921  -2.076  0.00  0.00     0.077 C 
BRANCH   2   3
HETATM    3  C           1     -21.599  -8.406  -1.161  0.00  0.00    -0.028 A 
HETATM    4  C           1     -22.288  -9.645  -1.260  0.00  0.00    -0.002 A 
HETATM    5  C           1     -23.208  -9.689  -0.212  0.00  0.00     0.042 A 
HETATM    6  C           1     -22.218 -10.738  -2.146  0.00  0.00     0.014 A 
HETATM    7  N           1     -23.073  -8.513   0.493  0.00  0.00    -0.365 N 
HETATM    8  C           1     -24.065 -10.776  -0.003  0.00  0.00     0.030 A 
HETATM    9  C           1     -22.103  -7.730  -0.073  0.00  0.00     0.096 A 
HETATM   10  H           1     -23.635  -8.255   1.343  0.00  0.00     0.165 HD
HETATM   11  C           1     -23.977 -11.849  -0.896  0.00  0.00     0.002 A 
HETATM   12  C           1     -23.068 -11.833  -1.952  0.00  0.00     0.001 A 
ENDBRANCH   2   3
ENDBRANCH   1   2
BRANCH   1  13
HETATM   13  C           1     -21.547  -6.395  -3.732  0.00  0.00     0.197 C 
HETATM   14  O           1     -22.511  -5.944  -3.077  0.00  0.00    -0.646 OA
HETATM   15  O           1     -20.980  -5.677  -4.584  0.00  0.00    -0.646 OA
ENDBRANCH   1  13
BRANCH   1  16
HETATM   16  N           1     -20.019  -8.125  -4.444  0.00  0.00    -0.344 N 
HETATM   17  C           1     -19.809  -9.425  -4.818  0.00  0.00     0.249 C 
HETATM   18  O           1     -20.396  -9.882  -5.771  0.00  0.00    -0.271 OA
HETATM   19  H           1     -19.444  -7.388  -4.830  0.00  0.00     0.163 HD
BRANCH  17  20
HETATM   20  C           1     -18.844 -10.288  -4.042  0.00  0.00     0.278 C 
BRANCH  20  21
HETATM   21  N           1     -18.681 -11.605  -4.740  0.00  0.00    -0.066 N 
HETATM   22  H           1     -19.618 -12.052  -4.866  0.00  0.00     0.275 HD
HETATM   23  H           1     -18.242 -11.451  -5.675  0.00  0.00     0.275 HD
HETATM   24  H           1     -18.071 -12.230  -4.166  0.00  0.00     0.275 HD
ENDBRANCH  20  21
BRANCH  20  25
HETATM   25  C           1     -17.495  -9.589  -3.954  0.00  0.00     0.017 C 
HETATM   26  C           1     -16.803  -9.978  -2.654  0.00  0.00     0.012 C 
HETATM   27  C           1     -16.628 -10.009  -5.134  0.00  0.00     0.012 C 
ENDBRANCH  20  25
ENDBRANCH  17  20
ENDBRANCH   1  16
TORSDOF 7
ENDMDL
MODEL 4
REMARK VINA RESULT:      -6.6      2.933      7.232
REMARK  7 active torsions:
REMARK  status: ('A' for Active; 'I' for Inactive)
REMARK    1  A    between atoms: C_6  and  C_7 
REMARK    2  A    between atoms: C_6  and  C_17 
REMARK    3  A    between atoms: C_7  and  C_16 
REMARK    4  A    between atoms: C_7  and  N_8 
REMARK       I    between atoms: N_8  and  C_15 
REMARK    5  A    between atoms: N_12  and  C_25 
REMARK    6  A    between atoms: C_15  and  C_25 
REMARK    7  A    between atoms: C_21  and  C_25 
ROOT
HETATM    1  C           1     -20.911  -4.842  -6.287  0.00  0.00     0.190 C 
ENDROOT
BRANCH   1   2
HETATM    2  C           1     -21.862  -5.996  -5.999  0.00  0.00     0.077 C 
BRANCH   2   3
HETATM    3  C           1     -21.520  -6.605  -4.674  0.00  0.00    -0.028 A 
HETATM    4  C           1     -21.243  -7.978  -4.430  0.00  0.00    -0.002 A 
HETATM    5  C           1     -20.976  -8.108  -3.067  0.00  0.00     0.042 A 
HETATM    6  C           1     -21.194  -9.128  -5.242  0.00  0.00     0.014 A 
HETATM    7  N           1     -21.089  -6.853  -2.512  0.00  0.00    -0.365 N 
HETATM    8  C           1     -20.660  -9.335  -2.472  0.00  0.00     0.030 A 
HETATM    9  C           1     -21.418  -5.936  -3.476  0.00  0.00     0.096 A 
HETATM   10  H           1     -20.944  -6.630  -1.495  0.00  0.00     0.165 HD
HETATM   11  C           1     -20.619 -10.462  -3.298  0.00  0.00     0.002 A 
HETATM   12  C           1     -20.880 -10.364  -4.663  0.00  0.00     0.001 A 
ENDBRANCH   2   3
ENDBRANCH   1   2
BRANCH   1  13
HETATM   13  C           1     -19.667  -5.370  -6.960  0.00  0.00     0.197 C 
HETATM   14  O           1     -19.578  -6.583  -7.245  0.00  0.00    -0.646 OA
HETATM   15  O           1     -18.727  -4.594  -7.235  0.00  0.00    -0.646 OA
ENDBRANCH   1  13
BRANCH   1  16
HETATM   16  N           1     -21.562  -3.885  -7.161  0.00  0.00    -0.344 N 
HETATM   17  C           1     -22.579  -4.292  -7.982  0.00  0.00     0.249 C 
HETATM   18  O           1     -23.722  -4.256  -7.591  0.00  0.00    -0.271 OA
HETATM   19  H           1     -21.265  -2.919  -7.165  0.00  0.00     0.163 HD
BRANCH  17  20
HETATM   20  C           1     -22.274  -4.787  -9.375  0.00  0.00     0.278 C 
BRANCH  20  21
HETATM   21  N           1     -23.544  -4.853 -10.170  0.00  0.00    -0.066 N 
HETATM   22  H           1     -23.325  -5.132 -11.154  0.00  0.00     0.275 HD
HETATM   23  H           1     -24.185  -5.559  -9.744  0.00  0.00     0.275 HD
HETATM   24  H           1     -24.005  -3.916 -10.168  0.00  0.00     0.275 HD
ENDBRANCH  20  21
BRANCH  20  25
HETATM   25  C           1     -21.301  -3.830 -10.051  0.00  0.00     0.017 C 
HETATM   26  C           1     -20.097  -4.609 -10.565  0.00  0.00     0.012 C 
HETATM   27  C           1     -21.995  -3.142 -11.219  0.00  0.00     0.012 C 
ENDBRANCH  20  25
ENDBRANCH  17  20
ENDBRANCH   1  16
TORSDOF 7
ENDMDL
MODEL 5
REMARK VINA RESULT:      -6.6      2.664      6.186
REMARK  7 active torsions:
REMARK  status: ('A' for Active; 'I' for Inactive)
REMARK    1  A    between atoms: C_6  and  C_7 
REMARK    2  A    between atoms: C_6  and  C_17 
REMARK    3  A    between atoms: C_7  and  C_16 
REMARK    4  A    between atoms: C_7  and  N_8 
REMARK       I    between atoms: N_8  and  C_15 
REMARK    5  A    between atoms: N_12  and  C_25 
REMARK    6  A    between atoms: C_15  and  C_25 
REMARK    7  A    between atoms: C_21  and  C_25 
ROOT
HETATM    1  C           1     -20.280  -8.548  -5.055  0.00  0.00     0.190 C 
ENDROOT
BRANCH   1   2
HETATM    2  C           1     -20.052  -8.281  -3.573  0.00  0.00     0.077 C 
BRANCH   2   3
HETATM    3  C           1     -20.953  -9.162  -2.764  0.00  0.00    -0.028 A 
HETATM    4  C           1     -21.723  -8.763  -1.637  0.00  0.00    -0.002 A 
HETATM    5  C           1     -22.412  -9.892  -1.190  0.00  0.00     0.042 A 
HETATM    6  C           1     -21.902  -7.545  -0.953  0.00  0.00     0.014 A 
HETATM    7  N           1     -22.064 -10.933  -2.021  0.00  0.00    -0.365 N 
HETATM    8  C           1     -23.273  -9.863  -0.087  0.00  0.00     0.030 A 
HETATM    9  C           1     -21.182 -10.503  -2.977  0.00  0.00     0.096 A 
HETATM   10  H           1     -22.424 -11.916  -1.935  0.00  0.00     0.165 HD
HETATM   11  C           1     -23.434  -8.643   0.576  0.00  0.00     0.002 A 
HETATM   12  C           1     -22.760  -7.499   0.152  0.00  0.00     0.001 A 
ENDBRANCH   2   3
ENDBRANCH   1   2
BRANCH   1  13
HETATM   13  C           1     -20.831  -7.305  -5.711  0.00  0.00     0.197 C 
HETATM   14  O           1     -20.255  -6.815  -6.706  0.00  0.00    -0.646 OA
HETATM   15  O           1     -21.864  -6.765  -5.260  0.00  0.00    -0.646 OA
ENDBRANCH   1  13
BRANCH   1  16
HETATM   16  N           1     -19.022  -8.904  -5.682  0.00  0.00    -0.344 N 
HETATM   17  C           1     -18.610 -10.210  -5.694  0.00  0.00     0.249 C 
HETATM   18  O           1     -18.923 -10.934  -6.610  0.00  0.00    -0.271 OA
HETATM   19  H           1     -18.448  -8.189  -6.108  0.00  0.00     0.163 HD
BRANCH  17  20
HETATM   20  C           1     -17.766 -10.747  -4.563  0.00  0.00     0.278 C 
BRANCH  20  21
HETATM   21  N           1     -17.121 -12.032  -4.989  0.00  0.00    -0.066 N 
HETATM   22  H           1     -16.109 -12.018  -4.728  0.00  0.00     0.275 HD
HETATM   23  H           1     -17.592 -12.833  -4.511  0.00  0.00     0.275 HD
HETATM   24  H           1     -17.212 -12.141  -6.024  0.00  0.00     0.275 HD
ENDBRANCH  20  21
BRANCH  20  25
HETATM   25  C           1     -16.688  -9.731  -4.209  0.00  0.00     0.017 C 
HETATM   26  C           1     -16.208  -9.975  -2.784  0.00  0.00     0.012 C 
HETATM   27  C           1     -15.516  -9.879  -5.171  0.00  0.00     0.012 C 
ENDBRANCH  20  25
ENDBRANCH  17  20
ENDBRANCH   1  16
TORSDOF 7
ENDMDL
MODEL 6
REMARK VINA RESULT:      -6.6      2.467      7.002
REMARK  7 active torsions:
REMARK  status: ('A' for Active; 'I' for Inactive)
REMARK    1  A    between atoms: C_6  and  C_7 
REMARK    2  A    between atoms: C_6  and  C_17 
REMARK    3  A    between atoms: C_7  and  C_16 
REMARK    4  A    between atoms: C_7  and  N_8 
REMARK       I    between atoms: N_8  and  C_15 
REMARK    5  A    between atoms: N_12  and  C_25 
REMARK    6  A    between atoms: C_15  and  C_25 
REMARK    7  A    between atoms: C_21  and  C_25 
ROOT
HETATM    1  C           1     -21.502  -7.454  -5.553  0.00  0.00     0.190 C 
ENDROOT
BRANCH   1   2
HETATM    2  C           1     -20.482  -8.090  -4.618  0.00  0.00     0.077 C 
BRANCH   2   3
HETATM    3  C           1     -21.170  -9.078  -3.727  0.00  0.00    -0.028 A 
HETATM    4  C           1     -21.454  -8.904  -2.345  0.00  0.00    -0.002 A 
HETATM    5  C           1     -22.100 -10.062  -1.909  0.00  0.00     0.042 A 
HETATM    6  C           1     -21.223  -7.868  -1.419  0.00  0.00     0.014 A 
HETATM    7  N           1     -22.198 -10.902  -2.996  0.00  0.00    -0.365 N 
HETATM    8  C           1     -22.528 -10.237  -0.588  0.00  0.00     0.030 A 
HETATM    9  C           1     -21.639 -10.317  -4.101  0.00  0.00     0.096 A 
HETATM   10  H           1     -22.640 -11.856  -2.979  0.00  0.00     0.165 HD
HETATM   11  C           1     -22.287  -9.195   0.313  0.00  0.00     0.002 A 
HETATM   12  C           1     -21.645  -8.027  -0.093  0.00  0.00     0.001 A 
ENDBRANCH   2   3
ENDBRANCH   1   2
BRANCH   1  13
HETATM   13  C           1     -22.258  -6.376  -4.815  0.00  0.00     0.197 C 
HETATM   14  O           1     -21.694  -5.725  -3.910  0.00  0.00    -0.646 OA
HETATM   15  O           1     -23.448  -6.133  -5.110  0.00  0.00    -0.646 OA
ENDBRANCH   1  13
BRANCH   1  16
HETATM   16  N           1     -20.816  -6.869  -6.689  0.00  0.00    -0.344 N 
HETATM   17  C           1     -20.660  -5.511  -6.768  0.00  0.00     0.249 C 
HETATM   18  O           1     -19.680  -4.987  -6.292  0.00  0.00    -0.271 OA
HETATM   19  H           1     -20.455  -7.463  -7.424  0.00  0.00     0.163 HD
BRANCH  17  20
HETATM   20  C           1     -21.711  -4.667  -7.448  0.00  0.00     0.278 C 
BRANCH  20  21
HETATM   21  N           1     -21.467  -3.221  -7.136  0.00  0.00    -0.066 N 
HETATM   22  H           1     -21.022  -3.137  -6.193  0.00  0.00     0.275 HD
HETATM   23  H           1     -20.831  -2.811  -7.857  0.00  0.00     0.275 HD
HETATM   24  H           1     -22.377  -2.706  -7.139  0.00  0.00     0.275 HD
ENDBRANCH  20  21
BRANCH  20  25
HETATM   25  C           1     -21.637  -4.881  -8.954  0.00  0.00     0.017 C 
HETATM   26  C           1     -22.909  -4.353  -9.605  0.00  0.00     0.012 C 
HETATM   27  C           1     -20.433  -4.136  -9.514  0.00  0.00     0.012 C 
ENDBRANCH  20  25
ENDBRANCH  17  20
ENDBRANCH   1  16
TORSDOF 7
ENDMDL
MODEL 7
REMARK VINA RESULT:      -6.6      2.703      5.613
REMARK  7 active torsions:
REMARK  status: ('A' for Active; 'I' for Inactive)
REMARK    1  A    between atoms: C_6  and  C_7 
REMARK    2  A    between atoms: C_6  and  C_17 
REMARK    3  A    between atoms: C_7  and  C_16 
REMARK    4  A    between atoms: C_7  and  N_8 
REMARK       I    between atoms: N_8  and  C_15 
REMARK    5  A    between atoms: N_12  and  C_25 
REMARK    6  A    between atoms: C_15  and  C_25 
REMARK    7  A    between atoms: C_21  and  C_25 
ROOT
HETATM    1  C           1     -21.245  -8.660  -1.907  0.00  0.00     0.190 C 
ENDROOT
BRANCH   1   2
HETATM    2  C           1     -20.040  -9.591  -1.938  0.00  0.00     0.077 C 
BRANCH   2   3
HETATM    3  C           1     -19.641  -9.843  -3.360  0.00  0.00    -0.028 A 
HETATM    4  C           1     -18.316  -9.821  -3.874  0.00  0.00    -0.002 A 
HETATM    5  C           1     -18.399 -10.108  -5.237  0.00  0.00     0.042 A 
HETATM    6  C           1     -17.048  -9.583  -3.309  0.00  0.00     0.014 A 
HETATM    7  N           1     -19.732 -10.296  -5.529  0.00  0.00    -0.365 N 
HETATM    8  C           1     -17.274 -10.170  -6.067  0.00  0.00     0.030 A 
HETATM    9  C           1     -20.492 -10.138  -4.401  0.00  0.00     0.096 A 
HETATM   10  H           1     -20.111 -10.527  -6.482  0.00  0.00     0.165 HD
HETATM   11  C           1     -16.026  -9.929  -5.483  0.00  0.00     0.002 A 
HETATM   12  C           1     -15.911  -9.640  -4.125  0.00  0.00     0.001 A 
ENDBRANCH   2   3
ENDBRANCH   1   2
BRANCH   1  13
HETATM   13  C           1     -21.762  -8.553  -0.493  0.00  0.00     0.197 C 
HETATM   14  O           1     -20.991  -8.751   0.470  0.00  0.00    -0.646 OA
HETATM   15  O           1     -22.960  -8.263  -0.286  0.00  0.00    -0.646 OA
ENDBRANCH   1  13
BRANCH   1  16
HETATM   16  N           1     -20.853  -7.346  -2.378  0.00  0.00    -0.344 N 
HETATM   17  C           1     -21.742  -6.578  -3.081  0.00  0.00     0.249 C 
HETATM   18  O           1     -22.477  -5.816  -2.496  0.00  0.00    -0.271 OA
HETATM   19  H           1     -19.923  -6.996  -2.188  0.00  0.00     0.163 HD
BRANCH  17  20
HETATM   20  C           1     -21.805  -6.681  -4.585  0.00  0.00     0.278 C 
BRANCH  20  21
HETATM   21  N           1     -23.114  -6.129  -5.068  0.00  0.00    -0.066 N 
HETATM   22  H           1     -23.836  -6.885  -5.058  0.00  0.00     0.275 HD
HETATM   23  H           1     -23.416  -5.351  -4.440  0.00  0.00     0.275 HD
HETATM   24  H           1     -23.001  -5.769  -6.042  0.00  0.00     0.275 HD
ENDBRANCH  20  21
BRANCH  20  25
HETATM   25  C           1     -20.661  -5.885  -5.198  0.00  0.00     0.017 C 
HETATM   26  C           1     -19.799  -6.807  -6.050  0.00  0.00     0.012 C 
HETATM   27  C           1     -21.227  -4.772  -6.070  0.00  0.00     0.012 C 
ENDBRANCH  20  25
ENDBRANCH  17  20
ENDBRANCH   1  16
TORSDOF 7
ENDMDL
MODEL 8
REMARK VINA RESULT:      -6.4      3.136      6.968
REMARK  7 active torsions:
REMARK  status: ('A' for Active; 'I' for Inactive)
REMARK    1  A    between atoms: C_6  and  C_7 
REMARK    2  A    between atoms: C_6  and  C_17 
REMARK    3  A    between atoms: C_7  and  C_16 
REMARK    4  A    between atoms: C_7  and  N_8 
REMARK       I    between atoms: N_8  and  C_15 
REMARK    5  A    between atoms: N_12  and  C_25 
REMARK    6  A    between atoms: C_15  and  C_25 
REMARK    7  A    between atoms: C_21  and  C_25 
ROOT
HETATM    1  C           1     -21.293  -7.886  -2.990  0.00  0.00     0.190 C 
ENDROOT
BRANCH   1   2
HETATM    2  C           1     -20.599  -8.067  -1.646  0.00  0.00     0.077 C 
BRANCH   2   3
HETATM    3  C           1     -20.663  -9.508  -1.243  0.00  0.00    -0.028 A 
HETATM    4  C           1     -21.805 -10.187  -0.738  0.00  0.00    -0.002 A 
HETATM    5  C           1     -21.424 -11.507  -0.492  0.00  0.00     0.042 A 
HETATM    6  C           1     -23.133  -9.804  -0.465  0.00  0.00     0.014 A 
HETATM    7  N           1     -20.095 -11.614  -0.839  0.00  0.00    -0.365 N 
HETATM    8  C           1     -22.307 -12.467   0.014  0.00  0.00     0.030 A 
HETATM    9  C           1     -19.625 -10.411  -1.294  0.00  0.00     0.096 A 
HETATM   10  H           1     -19.524 -12.493  -0.765  0.00  0.00     0.165 HD
HETATM   11  C           1     -23.619 -12.063   0.278  0.00  0.00     0.002 A 
HETATM   12  C           1     -24.029 -10.752   0.043  0.00  0.00     0.001 A 
ENDBRANCH   2   3
ENDBRANCH   1   2
BRANCH   1  13
HETATM   13  C           1     -21.979  -6.542  -3.025  0.00  0.00     0.197 C 
HETATM   14  O           1     -22.256  -5.953  -1.958  0.00  0.00    -0.646 OA
HETATM   15  O           1     -22.270  -6.017  -4.121  0.00  0.00    -0.646 OA
ENDBRANCH   1  13
BRANCH   1  16
HETATM   16  N           1     -20.310  -7.952  -4.054  0.00  0.00    -0.344 N 
HETATM   17  C           1     -20.479  -8.834  -5.087  0.00  0.00     0.249 C 
HETATM   18  O           1     -21.083  -8.496  -6.078  0.00  0.00    -0.271 OA
HETATM   19  H           1     -19.499  -7.347  -4.033  0.00  0.00     0.163 HD
BRANCH  17  20
HETATM   20  C           1     -19.911 -10.229  -4.990  0.00  0.00     0.278 C 
BRANCH  20  21
HETATM   21  N           1     -20.177 -10.966  -6.268  0.00  0.00    -0.066 N 
HETATM   22  H           1     -19.375 -11.604  -6.477  0.00  0.00     0.275 HD
HETATM   23  H           1     -21.051 -11.530  -6.169  0.00  0.00     0.275 HD
HETATM   24  H           1     -20.289 -10.281  -7.049  0.00  0.00     0.275 HD
ENDBRANCH  20  21
BRANCH  20  25
HETATM   25  C           1     -18.409 -10.150  -4.752  0.00  0.00     0.017 C 
HETATM   26  C           1     -17.884 -11.523  -4.352  0.00  0.00     0.012 C 
HETATM   27  C           1     -17.716  -9.696  -6.031  0.00  0.00     0.012 C 
ENDBRANCH  20  25
ENDBRANCH  17  20
ENDBRANCH   1  16
TORSDOF 7
ENDMDL
MODEL 9
REMARK VINA RESULT:      -6.4      2.402      3.473
REMARK  7 active torsions:
REMARK  status: ('A' for Active; 'I' for Inactive)
REMARK    1  A    between atoms: C_6  and  C_7 
REMARK    2  A    between atoms: C_6  and  C_17 
REMARK    3  A    between atoms: C_7  and  C_16 
REMARK    4  A    between atoms: C_7  and  N_8 
REMARK       I    between atoms: N_8  and  C_15 
REMARK    5  A    between atoms: N_12  and  C_25 
REMARK    6  A    between atoms: C_15  and  C_25 
REMARK    7  A    between atoms: C_21  and  C_25 
ROOT
HETATM    1  C           1     -21.219  -7.849  -2.321  0.00  0.00     0.190 C 
ENDROOT
BRANCH   1   2
HETATM    2  C           1     -21.801  -8.268  -3.665  0.00  0.00     0.077 C 
BRANCH   2   3
HETATM    3  C           1     -20.892  -7.817  -4.766  0.00  0.00    -0.028 A 
HETATM    4  C           1     -21.113  -6.713  -5.634  0.00  0.00    -0.002 A 
HETATM    5  C           1     -20.024  -6.651  -6.505  0.00  0.00     0.042 A 
HETATM    6  C           1     -22.139  -5.757  -5.764  0.00  0.00     0.014 A 
HETATM    7  N           1     -19.179  -7.685  -6.168  0.00  0.00    -0.365 N 
HETATM    8  C           1     -19.909  -5.677  -7.503  0.00  0.00     0.030 A 
HETATM    9  C           1     -19.694  -8.396  -5.117  0.00  0.00     0.096 A 
HETATM   10  H           1     -18.268  -7.897  -6.648  0.00  0.00     0.165 HD
HETATM   11  C           1     -20.940  -4.739  -7.613  0.00  0.00     0.002 A 
HETATM   12  C           1     -22.039  -4.775  -6.758  0.00  0.00     0.001 A 
ENDBRANCH   2   3
ENDBRANCH   1   2
BRANCH   1  13
HETATM   13  C           1     -22.066  -6.749  -1.727  0.00  0.00     0.197 C 
HETATM   14  O           1     -22.770  -6.978  -0.720  0.00  0.00    -0.646 OA
HETATM   15  O           1     -22.062  -5.610  -2.241  0.00  0.00    -0.646 OA
ENDBRANCH   1  13
BRANCH   1  16
HETATM   16  N           1     -21.208  -8.987  -1.423  0.00  0.00    -0.344 N 
HETATM   17  C           1     -21.349 -10.254  -1.923  0.00  0.00     0.249 C 
HETATM   18  O           1     -20.372 -10.886  -2.248  0.00  0.00    -0.271 OA
HETATM   19  H           1     -21.098  -8.845  -0.427  0.00  0.00     0.163 HD
BRANCH  17  20
HETATM   20  C           1     -22.723 -10.861  -2.066  0.00  0.00     0.278 C 
BRANCH  20  21
HETATM   21  N           1     -22.710 -11.867  -3.178  0.00  0.00    -0.066 N 
HETATM   22  H           1     -23.528 -11.703  -3.808  0.00  0.00     0.275 HD
HETATM   23  H           1     -21.825 -11.770  -3.725  0.00  0.00     0.275 HD
HETATM   24  H           1     -22.768 -12.830  -2.776  0.00  0.00     0.275 HD
ENDBRANCH  20  21
BRANCH  20  25
HETATM   25  C           1     -23.114 -11.547  -0.764  0.00  0.00     0.017 C 
HETATM   26  C           1     -24.073 -10.655   0.013  0.00  0.00     0.012 C 
HETATM   27  C           1     -23.795 -12.873  -1.075  0.00  0.00     0.012 C 
ENDBRANCH  20  25
ENDBRANCH  17  20
ENDBRANCH   1  16
TORSDOF 7
ENDMDL
