MODEL 1
REMARK VINA RESULT:      -7.0      0.000      0.000
REMARK  8 active torsions:
REMARK  status: ('A' for Active; 'I' for Inactive)
REMARK    1  A    between atoms: C_4  and  C_6 
REMARK    2  A    between atoms: C_6  and  C_7 
REMARK    3  A    between atoms: C_6  and  N_26 
REMARK    4  A    between atoms: C_7  and  C_8 
REMARK    5  A    between atoms: Se_11  and  C_23 
REMARK    6  A    between atoms: N_12  and  C_24 
REMARK    7  A    between atoms: C_23  and  C_24 
REMARK    8  A    between atoms: C_24  and  C_25 
REMARK       I    between atoms: C_25  and  N_26 
ROOT
HETATM    1  C           1     -21.166  -6.001  -7.149  0.00  0.00     0.190 C 
ENDROOT
BRANCH   1   2
HETATM    2  C           1     -19.672  -5.994  -6.936  0.00  0.00     0.197 C 
HETATM    3  O           1     -19.032  -4.923  -7.024  0.00  0.00    -0.646 OA
HETATM    4  O           1     -19.073  -7.060  -6.673  0.00  0.00    -0.646 OA
ENDBRANCH   1   2
BRANCH   1   5
HETATM    5  C           1     -21.716  -4.596  -6.937  0.00  0.00     0.077 C 
BRANCH   5   6
HETATM    6  C           1     -22.588  -4.222  -8.094  0.00  0.00    -0.028 A 
HETATM    7  C           1     -22.148  -3.919  -9.412  0.00  0.00    -0.002 A 
HETATM    8  C           1     -23.283  -3.625 -10.167  0.00  0.00     0.042 A 
HETATM    9  C           1     -20.886  -3.866 -10.035  0.00  0.00     0.014 A 
HETATM   10  N           1     -24.369  -3.748  -9.330  0.00  0.00    -0.365 N 
HETATM   11  C           1     -23.220  -3.280 -11.522  0.00  0.00     0.030 A 
HETATM   12  C           1     -23.960  -4.108  -8.074  0.00  0.00     0.096 A 
HETATM   13  H           1     -25.367  -3.589  -9.614  0.00  0.00     0.165 HD
HETATM   14  C           1     -21.957  -3.235 -12.120  0.00  0.00     0.002 A 
HETATM   15  C           1     -20.805  -3.523 -11.390  0.00  0.00     0.001 A 
ENDBRANCH   5   6
ENDBRANCH   1   5
BRANCH   1  16
HETATM   16  N           1     -21.784  -6.910  -6.204  0.00  0.00    -0.344 N 
HETATM   17  H           1     -21.834  -7.899  -6.412  0.00  0.00     0.163 HD
HETATM   18  C           1     -22.300  -6.431  -5.031  0.00  0.00     0.249 C 
HETATM   19  O           1     -23.454  -6.074  -4.979  0.00  0.00    -0.271 OA
BRANCH  18  20
HETATM   20  C           1     -21.429  -6.346  -3.802  0.00  0.00     0.274 C 
BRANCH  20  21
HETATM   21  N           1     -22.272  -5.983  -2.616  0.00  0.00    -0.067 N 
HETATM   22  H           1     -22.152  -6.704  -1.868  0.00  0.00     0.275 HD
HETATM   23  H           1     -21.974  -5.050  -2.249  0.00  0.00     0.275 HD
HETATM   24  H           1     -23.276  -5.942  -2.902  0.00  0.00     0.275 HD
ENDBRANCH  20  21
BRANCH  20  25
HETATM   25  C           1     -20.762  -7.693  -3.557  0.00  0.00     0.045 C 
BRANCH  25  26
HETATM   26 Se           1     -20.719  -8.059  -1.644  0.00  0.00     0.000 Se
HETATM   27  H           1     -19.610  -9.023  -1.735  0.00  0.00     0.000 HD
ENDBRANCH  25  26
ENDBRANCH  20  25
ENDBRANCH  18  20
ENDBRANCH   1  16
TORSDOF 8
ENDMDL
MODEL 2
REMARK VINA RESULT:      -6.6      1.698      2.383
REMARK  8 active torsions:
REMARK  status: ('A' for Active; 'I' for Inactive)
REMARK    1  A    between atoms: C_4  and  C_6 
REMARK    2  A    between atoms: C_6  and  C_7 
REMARK    3  A    between atoms: C_6  and  N_26 
REMARK    4  A    between atoms: C_7  and  C_8 
REMARK    5  A    between atoms: Se_11  and  C_23 
REMARK    6  A    between atoms: N_12  and  C_24 
REMARK    7  A    between atoms: C_23  and  C_24 
REMARK    8  A    between atoms: C_24  and  C_25 
REMARK       I    between atoms: C_25  and  N_26 
ROOT
HETATM    1  C           1     -21.526  -5.473  -6.890  0.00  0.00     0.190 C 
ENDROOT
BRANCH   1   2
HETATM    2  C           1     -20.045  -5.535  -6.605  0.00  0.00     0.197 C 
HETATM    3  O           1     -19.393  -6.558  -6.907  0.00  0.00    -0.646 OA
HETATM    4  O           1     -19.471  -4.564  -6.067  0.00  0.00    -0.646 OA
ENDBRANCH   1   2
BRANCH   1   5
HETATM    5  C           1     -21.884  -4.089  -7.418  0.00  0.00     0.077 C 
BRANCH   5   6
HETATM    6  C           1     -21.575  -4.018  -8.881  0.00  0.00    -0.028 A 
HETATM    7  C           1     -22.507  -3.749  -9.922  0.00  0.00    -0.002 A 
HETATM    8  C           1     -21.799  -3.777 -11.124  0.00  0.00     0.042 A 
HETATM    9  C           1     -23.889  -3.483  -9.955  0.00  0.00     0.014 A 
HETATM   10  N           1     -20.486  -4.054 -10.814  0.00  0.00    -0.365 N 
HETATM   11  C           1     -22.407  -3.551 -12.364  0.00  0.00     0.030 A 
HETATM   12  C           1     -20.340  -4.202  -9.460  0.00  0.00     0.096 A 
HETATM   13  H           1     -19.709  -4.140 -11.514  0.00  0.00     0.165 HD
HETATM   14  C           1     -23.780  -3.289 -12.373  0.00  0.00     0.002 A 
HETATM   15  C           1     -24.513  -3.255 -11.188  0.00  0.00     0.001 A 
ENDBRANCH   5   6
ENDBRANCH   1   5
BRANCH   1  16
HETATM   16  N           1     -22.264  -5.729  -5.669  0.00  0.00    -0.344 N 
HETATM   17  H           1     -23.190  -5.341  -5.547  0.00  0.00     0.163 HD
HETATM   18  C           1     -21.708  -6.497  -4.681  0.00  0.00     0.249 C 
HETATM   19  O           1     -21.046  -5.978  -3.814  0.00  0.00    -0.271 OA
BRANCH  18  20
HETATM   20  C           1     -21.920  -7.990  -4.677  0.00  0.00     0.274 C 
BRANCH  20  21
HETATM   21  N           1     -21.083  -8.618  -5.751  0.00  0.00    -0.067 N 
HETATM   22  H           1     -21.679  -9.248  -6.335  0.00  0.00     0.275 HD
HETATM   23  H           1     -20.673  -7.869  -6.354  0.00  0.00     0.275 HD
HETATM   24  H           1     -20.314  -9.173  -5.312  0.00  0.00     0.275 HD
ENDBRANCH  20  21
BRANCH  20  25
HETATM   25  C           1     -21.517  -8.557  -3.322  0.00  0.00     0.045 C 
BRANCH  25  26
HETATM   26 Se           1     -21.914 -10.465  -3.271  0.00  0.00     0.000 Se
HETATM   27  H           1     -20.602 -10.871  -3.799  0.00  0.00     0.000 HD
ENDBRANCH  25  26
ENDBRANCH  20  25
ENDBRANCH  18  20
ENDBRANCH   1  16
TORSDOF 8
ENDMDL
MODEL 3
REMARK VINA RESULT:      -6.6      1.764      2.241
REMARK  8 active torsions:
REMARK  status: ('A' for Active; 'I' for Inactive)
REMARK    1  A    between atoms: C_4  and  C_6 
REMARK    2  A    between atoms: C_6  and  C_7 
REMARK    3  A    between atoms: C_6  and  N_26 
REMARK    4  A    between atoms: C_7  and  C_8 
REMARK    5  A    between atoms: Se_11  and  C_23 
REMARK    6  A    between atoms: N_12  and  C_24 
REMARK    7  A    between atoms: C_23  and  C_24 
REMARK    8  A    between atoms: C_24  and  C_25 
REMARK       I    between atoms: C_25  and  N_26 
ROOT
HETATM    1  C           1     -21.101  -4.858  -7.972  0.00  0.00     0.190 C 
ENDROOT
BRANCH   1   2
HETATM    2  C           1     -19.871  -4.654  -8.822  0.00  0.00     0.197 C 
HETATM    3  O           1     -19.829  -5.116  -9.983  0.00  0.00    -0.646 OA
HETATM    4  O           1     -18.894  -4.022  -8.366  0.00  0.00    -0.646 OA
ENDBRANCH   1   2
BRANCH   1   5
HETATM    5  C           1     -21.925  -3.577  -7.953  0.00  0.00     0.077 C 
BRANCH   5   6
HETATM    6  C           1     -23.044  -3.689  -8.941  0.00  0.00    -0.028 A 
HETATM    7  C           1     -22.965  -3.403 -10.332  0.00  0.00    -0.002 A 
HETATM    8  C           1     -24.229  -3.638 -10.873  0.00  0.00     0.042 A 
HETATM    9  C           1     -21.934  -2.963 -11.185  0.00  0.00     0.014 A 
HETATM   10  N           1     -25.040  -4.052  -9.840  0.00  0.00    -0.365 N 
HETATM   11  C           1     -24.516  -3.457 -12.230  0.00  0.00     0.030 A 
HETATM   12  C           1     -24.333  -4.086  -8.667  0.00  0.00     0.096 A 
HETATM   13  H           1     -26.054  -4.306  -9.937  0.00  0.00     0.165 HD
HETATM   14  C           1     -23.478  -3.020 -13.058  0.00  0.00     0.002 A 
HETATM   15  C           1     -22.204  -2.777 -12.546  0.00  0.00     0.001 A 
ENDBRANCH   5   6
ENDBRANCH   1   5
BRANCH   1  16
HETATM   16  N           1     -20.703  -5.196  -6.619  0.00  0.00    -0.344 N 
HETATM   17  H           1     -20.581  -4.464  -5.931  0.00  0.00     0.163 HD
HETATM   18  C           1     -20.490  -6.503  -6.274  0.00  0.00     0.249 C 
HETATM   19  O           1     -19.391  -6.989  -6.396  0.00  0.00    -0.271 OA
BRANCH  18  20
HETATM   20  C           1     -21.629  -7.338  -5.743  0.00  0.00     0.274 C 
BRANCH  20  21
HETATM   21  N           1     -21.175  -8.758  -5.581  0.00  0.00    -0.067 N 
HETATM   22  H           1     -20.506  -9.000  -6.347  0.00  0.00     0.275 HD
HETATM   23  H           1     -20.700  -8.868  -4.657  0.00  0.00     0.275 HD
HETATM   24  H           1     -22.002  -9.395  -5.627  0.00  0.00     0.275 HD
ENDBRANCH  20  21
BRANCH  20  25
HETATM   25  C           1     -22.074  -6.790  -4.393  0.00  0.00     0.045 C 
BRANCH  25  26
HETATM   26 Se           1     -21.159  -7.753  -2.968  0.00  0.00     0.000 Se
HETATM   27  H           1     -21.271  -6.655  -1.995  0.00  0.00     0.000 HD
ENDBRANCH  25  26
ENDBRANCH  20  25
ENDBRANCH  18  20
ENDBRANCH   1  16
TORSDOF 8
ENDMDL
MODEL 4
REMARK VINA RESULT:      -6.5      2.878      6.904
REMARK  8 active torsions:
REMARK  status: ('A' for Active; 'I' for Inactive)
REMARK    1  A    between atoms: C_4  and  C_6 
REMARK    2  A    between atoms: C_6  and  C_7 
REMARK    3  A    between atoms: C_6  and  N_26 
REMARK    4  A    between atoms: C_7  and  C_8 
REMARK    5  A    between atoms: Se_11  and  C_23 
REMARK    6  A    between atoms: N_12  and  C_24 
REMARK    7  A    between atoms: C_23  and  C_24 
REMARK    8  A    between atoms: C_24  and  C_25 
REMARK       I    between atoms: C_25  and  N_26 
ROOT
HETATM    1  C           1     -20.710  -5.173  -6.147  0.00  0.00     0.190 C 
ENDROOT
BRANCH   1   2
HETATM    2  C           1     -19.588  -5.344  -7.142  0.00  0.00     0.197 C 
HETATM    3  O           1     -19.584  -6.323  -7.920  0.00  0.00    -0.646 OA
HETATM    4  O           1     -18.660  -4.506  -7.187  0.00  0.00    -0.646 OA
ENDBRANCH   1   2
BRANCH   1   5
HETATM    5  C           1     -21.484  -6.480  -6.025  0.00  0.00     0.077 C 
BRANCH   5   6
HETATM    6  C           1     -20.908  -7.298  -4.912  0.00  0.00    -0.028 A 
HETATM    7  C           1     -21.265  -7.213  -3.538  0.00  0.00    -0.002 A 
HETATM    8  C           1     -20.490  -8.148  -2.853  0.00  0.00     0.042 A 
HETATM    9  C           1     -22.177  -6.425  -2.809  0.00  0.00     0.014 A 
HETATM   10  N           1     -19.694  -8.775  -3.785  0.00  0.00    -0.365 N 
HETATM   11  C           1     -20.581  -8.337  -1.469  0.00  0.00     0.030 A 
HETATM   12  C           1     -19.939  -8.268  -5.034  0.00  0.00     0.096 A 
HETATM   13  H           1     -18.999  -9.532  -3.570  0.00  0.00     0.165 HD
HETATM   14  C           1     -21.494  -7.544  -0.767  0.00  0.00     0.002 A 
HETATM   15  C           1     -22.282  -6.601  -1.425  0.00  0.00     0.001 A 
ENDBRANCH   5   6
ENDBRANCH   1   5
BRANCH   1  16
HETATM   16  N           1     -21.603  -4.125  -6.601  0.00  0.00    -0.344 N 
HETATM   17  H           1     -21.349  -3.154  -6.471  0.00  0.00     0.163 HD
HETATM   18  C           1     -22.787  -4.448  -7.206  0.00  0.00     0.249 C 
HETATM   19  O           1     -23.786  -4.592  -6.540  0.00  0.00    -0.271 OA
BRANCH  18  20
HETATM   20  C           1     -22.847  -4.626  -8.703  0.00  0.00     0.274 C 
BRANCH  20  21
HETATM   21  N           1     -24.216  -4.263  -9.195  0.00  0.00    -0.067 N 
HETATM   22  H           1     -24.185  -4.105 -10.228  0.00  0.00     0.275 HD
HETATM   23  H           1     -24.880  -5.041  -8.982  0.00  0.00     0.275 HD
HETATM   24  H           1     -24.536  -3.390  -8.719  0.00  0.00     0.275 HD
ENDBRANCH  20  21
BRANCH  20  25
HETATM   25  C           1     -21.813  -3.724  -9.364  0.00  0.00     0.045 C 
BRANCH  25  26
HETATM   26 Se           1     -21.746  -4.103 -11.274  0.00  0.00     0.000 Se
HETATM   27  H           1     -22.872  -5.050 -11.244  0.00  0.00     0.000 HD
ENDBRANCH  25  26
ENDBRANCH  20  25
ENDBRANCH  18  20
ENDBRANCH   1  16
TORSDOF 8
ENDMDL
MODEL 5
REMARK VINA RESULT:      -6.5      1.948      2.425
REMARK  8 active torsions:
REMARK  status: ('A' for Active; 'I' for Inactive)
REMARK    1  A    between atoms: C_4  and  C_6 
REMARK    2  A    between atoms: C_6  and  C_7 
REMARK    3  A    between atoms: C_6  and  N_26 
REMARK    4  A    between atoms: C_7  and  C_8 
REMARK    5  A    between atoms: Se_11  and  C_23 
REMARK    6  A    between atoms: N_12  and  C_24 
REMARK    7  A    between atoms: C_23  and  C_24 
REMARK    8  A    between atoms: C_24  and  C_25 
REMARK       I    between atoms: C_25  and  N_26 
ROOT
HETATM    1  C           1     -21.338  -6.400  -5.130  0.00  0.00     0.190 C 
ENDROOT
BRANCH   1   2
HETATM    2  C           1     -20.776  -7.686  -5.688  0.00  0.00     0.197 C 
HETATM    3  O           1     -21.509  -8.693  -5.798  0.00  0.00    -0.646 OA
HETATM    4  O           1     -19.577  -7.744  -6.038  0.00  0.00    -0.646 OA
ENDBRANCH   1   2
BRANCH   1   5
HETATM    5  C           1     -20.768  -5.219  -5.905  0.00  0.00     0.077 C 
BRANCH   5   6
HETATM    6  C           1     -21.733  -4.812  -6.975  0.00  0.00    -0.028 A 
HETATM    7  C           1     -21.418  -4.569  -8.340  0.00  0.00    -0.002 A 
HETATM    8  C           1     -22.606  -4.216  -8.980  0.00  0.00     0.042 A 
HETATM    9  C           1     -20.229  -4.615  -9.094  0.00  0.00     0.014 A 
HETATM   10  N           1     -23.602  -4.247  -8.030  0.00  0.00    -0.365 N 
HETATM   11  C           1     -22.666  -3.906 -10.343  0.00  0.00     0.030 A 
HETATM   12  C           1     -23.085  -4.606  -6.813  0.00  0.00     0.096 A 
HETATM   13  H           1     -24.612  -4.027  -8.211  0.00  0.00     0.165 HD
HETATM   14  C           1     -21.475  -3.959 -11.072  0.00  0.00     0.002 A 
HETATM   15  C           1     -20.272  -4.308 -10.460  0.00  0.00     0.001 A 
ENDBRANCH   5   6
ENDBRANCH   1   5
BRANCH   1  16
HETATM   16  N           1     -20.974  -6.281  -3.732  0.00  0.00    -0.344 N 
HETATM   17  H           1     -20.769  -5.371  -3.339  0.00  0.00     0.163 HD
HETATM   18  C           1     -20.908  -7.398  -2.944  0.00  0.00     0.249 C 
HETATM   19  O           1     -19.871  -8.010  -2.848  0.00  0.00    -0.271 OA
BRANCH  18  20
HETATM   20  C           1     -22.132  -7.866  -2.195  0.00  0.00     0.274 C 
BRANCH  20  21
HETATM   21  N           1     -21.983  -9.318  -1.852  0.00  0.00    -0.067 N 
HETATM   22  H           1     -21.311  -9.423  -1.058  0.00  0.00     0.275 HD
HETATM   23  H           1     -22.912  -9.708  -1.575  0.00  0.00     0.275 HD
HETATM   24  H           1     -21.621  -9.837  -2.685  0.00  0.00     0.275 HD
ENDBRANCH  20  21
BRANCH  20  25
HETATM   25  C           1     -22.285  -7.056  -0.915  0.00  0.00     0.045 C 
BRANCH  25  26
HETATM   26 Se           1     -21.866  -8.181   0.621  0.00  0.00     0.000 Se
HETATM   27  H           1     -21.781  -9.422  -0.165  0.00  0.00     0.000 HD
ENDBRANCH  25  26
ENDBRANCH  20  25
ENDBRANCH  18  20
ENDBRANCH   1  16
TORSDOF 8
ENDMDL
MODEL 6
REMARK VINA RESULT:      -6.4      3.130      7.318
REMARK  8 active torsions:
REMARK  status: ('A' for Active; 'I' for Inactive)
REMARK    1  A    between atoms: C_4  and  C_6 
REMARK    2  A    between atoms: C_6  and  C_7 
REMARK    3  A    between atoms: C_6  and  N_26 
REMARK    4  A    between atoms: C_7  and  C_8 
REMARK    5  A    between atoms: Se_11  and  C_23 
REMARK    6  A    between atoms: N_12  and  C_24 
REMARK    7  A    between atoms: C_23  and  C_24 
REMARK    8  A    between atoms: C_24  and  C_25 
REMARK       I    between atoms: C_25  and  N_26 
ROOT
HETATM    1  C           1     -20.025  -7.410  -5.332  0.00  0.00     0.190 C 
ENDROOT
BRANCH   1   2
HETATM    2  C           1     -19.044  -8.555  -5.268  0.00  0.00     0.197 C 
HETATM    3  O           1     -18.520  -8.990  -6.317  0.00  0.00    -0.646 OA
HETATM    4  O           1     -18.757  -9.071  -4.166  0.00  0.00    -0.646 OA
ENDBRANCH   1   2
BRANCH   1   5
HETATM    5  C           1     -21.400  -7.893  -4.890  0.00  0.00     0.077 C 
BRANCH   5   6
HETATM    6  C           1     -21.716  -7.330  -3.539  0.00  0.00    -0.028 A 
HETATM    7  C           1     -21.787  -8.063  -2.322  0.00  0.00    -0.002 A 
HETATM    8  C           1     -22.107  -7.154  -1.313  0.00  0.00     0.042 A 
HETATM    9  C           1     -21.611  -9.419  -1.982  0.00  0.00     0.014 A 
HETATM   10  N           1     -22.223  -5.917  -1.905  0.00  0.00    -0.365 N 
HETATM   11  C           1     -22.259  -7.534   0.025  0.00  0.00     0.030 A 
HETATM   12  C           1     -21.988  -6.012  -3.251  0.00  0.00     0.096 A 
HETATM   13  H           1     -22.457  -5.028  -1.398  0.00  0.00     0.165 HD
HETATM   14  C           1     -22.079  -8.885   0.339  0.00  0.00     0.002 A 
HETATM   15  C           1     -21.759  -9.815  -0.648  0.00  0.00     0.001 A 
ENDBRANCH   5   6
ENDBRANCH   1   5
BRANCH   1  16
HETATM   16  N           1     -20.101  -6.915  -6.693  0.00  0.00    -0.344 N 
HETATM   17  H           1     -20.106  -7.566  -7.468  0.00  0.00     0.163 HD
HETATM   18  C           1     -20.168  -5.569  -6.929  0.00  0.00     0.249 C 
HETATM   19  O           1     -19.152  -4.930  -7.076  0.00  0.00    -0.271 OA
BRANCH  18  20
HETATM   20  C           1     -21.509  -4.881  -7.005  0.00  0.00     0.274 C 
BRANCH  20  21
HETATM   21  N           1     -21.314  -3.397  -6.921  0.00  0.00    -0.067 N 
HETATM   22  H           1     -21.478  -2.969  -7.861  0.00  0.00     0.275 HD
HETATM   23  H           1     -21.992  -2.996  -6.233  0.00  0.00     0.275 HD
HETATM   24  H           1     -20.339  -3.190  -6.609  0.00  0.00     0.275 HD
ENDBRANCH  20  21
BRANCH  20  25
HETATM   25  C           1     -22.185  -5.230  -8.324  0.00  0.00     0.045 C 
BRANCH  25  26
HETATM   26 Se           1     -21.504  -4.067  -9.732  0.00  0.00     0.000 Se
HETATM   27  H           1     -21.978  -4.924 -10.830  0.00  0.00     0.000 HD
ENDBRANCH  25  26
ENDBRANCH  20  25
ENDBRANCH  18  20
ENDBRANCH   1  16
TORSDOF 8
ENDMDL
MODEL 7
REMARK VINA RESULT:      -6.3      4.425      7.435
REMARK  8 active torsions:
REMARK  status: ('A' for Active; 'I' for Inactive)
REMARK    1  A    between atoms: C_4  and  C_6 
REMARK    2  A    between atoms: C_6  and  C_7 
REMARK    3  A    between atoms: C_6  and  N_26 
REMARK    4  A    between atoms: C_7  and  C_8 
REMARK    5  A    between atoms: Se_11  and  C_23 
REMARK    6  A    between atoms: N_12  and  C_24 
REMARK    7  A    between atoms: C_23  and  C_24 
REMARK    8  A    between atoms: C_24  and  C_25 
REMARK       I    between atoms: C_25  and  N_26 
ROOT
HETATM    1  C           1     -22.768  -4.506  -9.651  0.00  0.00     0.190 C 
ENDROOT
BRANCH   1   2
HETATM    2  C           1     -24.188  -4.015  -9.798  0.00  0.00     0.197 C 
HETATM    3  O           1     -24.465  -2.819  -9.562  0.00  0.00    -0.646 OA
HETATM    4  O           1     -25.089  -4.805 -10.156  0.00  0.00    -0.646 OA
ENDBRANCH   1   2
BRANCH   1   5
HETATM    5  C           1     -22.060  -3.694  -8.573  0.00  0.00     0.077 C 
BRANCH   5   6
HETATM    6  C           1     -21.096  -4.574  -7.840  0.00  0.00    -0.028 A 
HETATM    7  C           1     -21.405  -5.420  -6.739  0.00  0.00    -0.002 A 
HETATM    8  C           1     -20.221  -6.055  -6.364  0.00  0.00     0.042 A 
HETATM    9  C           1     -22.584  -5.707  -6.024  0.00  0.00     0.014 A 
HETATM   10  N           1     -19.234  -5.605  -7.212  0.00  0.00    -0.365 N 
HETATM   11  C           1     -20.156  -6.968  -5.305  0.00  0.00     0.030 A 
HETATM   12  C           1     -19.753  -4.708  -8.108  0.00  0.00     0.096 A 
HETATM   13  H           1     -18.229  -5.905  -7.177  0.00  0.00     0.165 HD
HETATM   14  C           1     -21.339  -7.237  -4.610  0.00  0.00     0.002 A 
HETATM   15  C           1     -22.536  -6.618  -4.962  0.00  0.00     0.001 A 
ENDBRANCH   5   6
ENDBRANCH   1   5
BRANCH   1  16
HETATM   16  N           1     -22.070  -4.349 -10.912  0.00  0.00    -0.344 N 
HETATM   17  H           1     -21.335  -4.997 -11.167  0.00  0.00     0.163 HD
HETATM   18  C           1     -22.403  -3.324 -11.756  0.00  0.00     0.249 C 
HETATM   19  O           1     -21.845  -2.257 -11.661  0.00  0.00    -0.271 OA
BRANCH  18  20
HETATM   20  C           1     -23.469  -3.528 -12.805  0.00  0.00     0.274 C 
BRANCH  20  21
HETATM   21  N           1     -24.654  -2.666 -12.487  0.00  0.00    -0.067 N 
HETATM   22  H           1     -24.434  -2.058 -11.665  0.00  0.00     0.275 HD
HETATM   23  H           1     -24.879  -2.066 -13.313  0.00  0.00     0.275 HD
HETATM   24  H           1     -25.475  -3.272 -12.262  0.00  0.00     0.275 HD
ENDBRANCH  20  21
BRANCH  20  25
HETATM   25  C           1     -22.916  -3.147 -14.172  0.00  0.00     0.045 C 
BRANCH  25  26
HETATM   26 Se           1     -23.696  -1.453 -14.739  0.00  0.00     0.000 Se
HETATM   27  H           1     -23.239  -1.576 -16.133  0.00  0.00     0.000 HD
ENDBRANCH  25  26
ENDBRANCH  20  25
ENDBRANCH  18  20
ENDBRANCH   1  16
TORSDOF 8
ENDMDL
MODEL 8
REMARK VINA RESULT:      -6.2      2.981      4.417
REMARK  8 active torsions:
REMARK  status: ('A' for Active; 'I' for Inactive)
REMARK    1  A    between atoms: C_4  and  C_6 
REMARK    2  A    between atoms: C_6  and  C_7 
REMARK    3  A    between atoms: C_6  and  N_26 
REMARK    4  A    between atoms: C_7  and  C_8 
REMARK    5  A    between atoms: Se_11  and  C_23 
REMARK    6  A    between atoms: N_12  and  C_24 
REMARK    7  A    between atoms: C_23  and  C_24 
REMARK    8  A    between atoms: C_24  and  C_25 
REMARK       I    between atoms: C_25  and  N_26 
ROOT
HETATM    1  C           1     -21.402  -7.341  -3.924  0.00  0.00     0.190 C 
ENDROOT
BRANCH   1   2
HETATM    2  C           1     -21.598  -6.832  -2.516  0.00  0.00     0.197 C 
HETATM    3  O           1     -20.941  -7.327  -1.575  0.00  0.00    -0.646 OA
HETATM    4  O           1     -22.419  -5.915  -2.291  0.00  0.00    -0.646 OA
ENDBRANCH   1   2
BRANCH   1   5
HETATM    5  C           1     -22.202  -6.478  -4.892  0.00  0.00     0.077 C 
BRANCH   5   6
HETATM    6  C           1     -21.343  -6.114  -6.062  0.00  0.00    -0.028 A 
HETATM    7  C           1     -21.724  -5.290  -7.157  0.00  0.00    -0.002 A 
HETATM    8  C           1     -20.627  -5.214  -8.015  0.00  0.00     0.042 A 
HETATM    9  C           1     -22.903  -4.599  -7.500  0.00  0.00     0.014 A 
HETATM   10  N           1     -19.621  -5.967  -7.453  0.00  0.00    -0.365 N 
HETATM   11  C           1     -20.649  -4.478  -9.205  0.00  0.00     0.030 A 
HETATM   12  C           1     -20.044  -6.516  -6.272  0.00  0.00     0.096 A 
HETATM   13  H           1     -18.667  -6.102  -7.870  0.00  0.00     0.165 HD
HETATM   14  C           1     -21.829  -3.800  -9.526  0.00  0.00     0.002 A 
HETATM   15  C           1     -22.941  -3.858  -8.687  0.00  0.00     0.001 A 
ENDBRANCH   5   6
ENDBRANCH   1   5
BRANCH   1  16
HETATM   16  N           1     -21.860  -8.714  -4.009  0.00  0.00    -0.344 N 
HETATM   17  H           1     -22.852  -8.915  -4.038  0.00  0.00     0.163 HD
HETATM   18  C           1     -20.952  -9.737  -4.049  0.00  0.00     0.249 C 
HETATM   19  O           1     -20.570 -10.247  -3.022  0.00  0.00    -0.271 OA
BRANCH  18  20
HETATM   20  C           1     -20.427 -10.228  -5.376  0.00  0.00     0.274 C 
BRANCH  20  21
HETATM   21  N           1     -19.050  -9.679  -5.602  0.00  0.00    -0.067 N 
HETATM   22  H           1     -18.681 -10.028  -6.516  0.00  0.00     0.275 HD
HETATM   23  H           1     -19.090  -8.635  -5.620  0.00  0.00     0.275 HD
HETATM   24  H           1     -18.420  -9.992  -4.830  0.00  0.00     0.275 HD
ENDBRANCH  20  21
BRANCH  20  25
HETATM   25  C           1     -20.373 -11.750  -5.370  0.00  0.00     0.045 C 
BRANCH  25  26
HETATM   26 Se           1     -21.928 -12.459  -6.306  0.00  0.00     0.000 Se
HETATM   27  H           1     -22.269 -13.425  -5.248  0.00  0.00     0.000 HD
ENDBRANCH  25  26
ENDBRANCH  20  25
ENDBRANCH  18  20
ENDBRANCH   1  16
TORSDOF 8
ENDMDL
MODEL 9
REMARK VINA RESULT:      -6.2      5.502      8.845
REMARK  8 active torsions:
REMARK  status: ('A' for Active; 'I' for Inactive)
REMARK    1  A    between atoms: C_4  and  C_6 
REMARK    2  A    between atoms: C_6  and  C_7 
REMARK    3  A    between atoms: C_6  and  N_26 
REMARK    4  A    between atoms: C_7  and  C_8 
REMARK    5  A    between atoms: Se_11  and  C_23 
REMARK    6  A    between atoms: N_12  and  C_24 
REMARK    7  A    between atoms: C_23  and  C_24 
REMARK    8  A    between atoms: C_24  and  C_25 
REMARK       I    between atoms: C_25  and  N_26 
ROOT
HETATM    1  C           1     -21.242  -7.855  -2.993  0.00  0.00     0.190 C 
ENDROOT
BRANCH   1   2
HETATM    2  C           1     -21.711  -6.421  -3.037  0.00  0.00     0.197 C 
HETATM    3  O           1     -22.458  -5.980  -2.137  0.00  0.00    -0.646 OA
HETATM    4  O           1     -21.352  -5.675  -3.974  0.00  0.00    -0.646 OA
ENDBRANCH   1   2
BRANCH   1   5
HETATM    5  C           1     -20.533  -8.118  -1.670  0.00  0.00     0.077 C 
BRANCH   5   6
HETATM    6  C           1     -20.641  -9.571  -1.327  0.00  0.00    -0.028 A 
HETATM    7  C           1     -21.791 -10.226  -0.807  0.00  0.00    -0.002 A 
HETATM    8  C           1     -21.456 -11.569  -0.633  0.00  0.00     0.042 A 
HETATM    9  C           1     -23.090  -9.802  -0.465  0.00  0.00     0.014 A 
HETATM   10  N           1     -20.148 -11.715  -1.036  0.00  0.00    -0.365 N 
HETATM   11  C           1     -22.359 -12.514  -0.133  0.00  0.00     0.030 A 
HETATM   12  C           1     -19.645 -10.512  -1.458  0.00  0.00     0.096 A 
HETATM   13  H           1     -19.612 -12.617  -1.023  0.00  0.00     0.165 HD
HETATM   14  C           1     -23.643 -12.071   0.198  0.00  0.00     0.002 A 
HETATM   15  C           1     -24.006 -10.735   0.036  0.00  0.00     0.001 A 
ENDBRANCH   5   6
ENDBRANCH   1   5
BRANCH   1  16
HETATM   16  N           1     -20.324  -8.097  -4.089  0.00  0.00    -0.344 N 
HETATM   17  H           1     -19.388  -7.712  -4.060  0.00  0.00     0.163 HD
HETATM   18  C           1     -20.722  -8.846  -5.163  0.00  0.00     0.249 C 
HETATM   19  O           1     -21.240  -8.310  -6.115  0.00  0.00    -0.271 OA
BRANCH  18  20
HETATM   20  C           1     -20.516 -10.341  -5.159  0.00  0.00     0.274 C 
BRANCH  20  21
HETATM   21  N           1     -21.100 -10.929  -6.408  0.00  0.00    -0.067 N 
HETATM   22  H           1     -20.636 -10.506  -7.244  0.00  0.00     0.275 HD
HETATM   23  H           1     -20.945 -11.963  -6.411  0.00  0.00     0.275 HD
HETATM   24  H           1     -22.125 -10.730  -6.441  0.00  0.00     0.275 HD
ENDBRANCH  20  21
BRANCH  20  25
HETATM   25  C           1     -19.025 -10.648  -5.102  0.00  0.00     0.045 C 
BRANCH  25  26
HETATM   26 Se           1     -18.766 -12.544  -4.732  0.00  0.00     0.000 Se
HETATM   27  H           1     -20.142 -12.758  -4.255  0.00  0.00     0.000 HD
ENDBRANCH  25  26
ENDBRANCH  20  25
ENDBRANCH  18  20
ENDBRANCH   1  16
TORSDOF 8
ENDMDL
