MODEL 1
REMARK VINA RESULT:      -7.6      0.000      0.000
REMARK  14 active torsions:
REMARK  status: ('A' for Active; 'I' for Inactive)
REMARK    1  A    between atoms: N_5  and  C_18 
REMARK    2  A    between atoms: O_10  and  P_11 
REMARK    3  A    between atoms: P_11  and  O_12 
REMARK    4  A    between atoms: O_12  and  C_13 
REMARK    5  A    between atoms: C_16  and  C_17 
REMARK    6  A    between atoms: C_17  and  C_18 
REMARK    7  A    between atoms: C_18  and  C_19 
REMARK       I    between atoms: C_19  and  N_20 
REMARK    8  A    between atoms: N_20  and  C_24 
REMARK    9  A    between atoms: C_23  and  C_24 
REMARK   10  A    between atoms: C_24  and  C_25 
REMARK   11  A    between atoms: C_25  and  C_26 
REMARK   12  A    between atoms: C_26  and  C_27 
REMARK   13  A    between atoms: C_27  and  C_28 
REMARK   14  A    between atoms: C_28  and  N_29 
ROOT
HETATM    1  C           1     -20.830  -4.786  -6.630  0.00  0.00     0.278 C 
ENDROOT
BRANCH   1   2
HETATM    2  N           1     -19.517  -4.448  -5.988  0.00  0.00    -0.066 N 
HETATM    3  H           1     -19.562  -3.484  -5.588  0.00  0.00     0.275 HD
HETATM    4  H           1     -19.316  -5.133  -5.226  0.00  0.00     0.275 HD
HETATM    5  H           1     -18.758  -4.490  -6.706  0.00  0.00     0.275 HD
ENDBRANCH   1   2
BRANCH   1   6
HETATM    6  C           1     -20.580  -5.511  -7.945  0.00  0.00     0.081 C 
BRANCH   6   7
HETATM    7  C           1     -21.145  -4.707  -9.075  0.00  0.00    -0.056 A 
HETATM    8  C           1     -22.449  -4.215  -8.997  0.00  0.00     0.010 A 
HETATM    9  C           1     -22.974  -3.466 -10.050  0.00  0.00     0.038 A 
HETATM   10  C           1     -22.198  -3.208 -11.179  0.00  0.00     0.081 A 
HETATM   11  C           1     -20.895  -3.700 -11.257  0.00  0.00     0.038 A 
HETATM   12  C           1     -20.368  -4.450 -10.204  0.00  0.00     0.010 A 
BRANCH  10  13
HETATM   13  O           1     -22.709  -2.480 -12.202  0.00  0.00    -0.247 OA
BRANCH  13  14
HETATM   14  P           1     -23.806  -3.182 -13.157  0.00  0.00     0.411 P 
HETATM   15  O           1     -23.500  -2.867 -14.572  0.00  0.00    -0.624 OA
HETATM   16  O           1     -25.152  -2.673 -12.817  0.00  0.00    -0.624 OA
BRANCH  14  17
HETATM   17  O           1     -23.764  -4.781 -12.941  0.00  0.00    -0.300 OA
HETATM   18  H           1     -24.611  -5.087 -13.221  0.00  0.00     0.223 HD
ENDBRANCH  14  17
ENDBRANCH  13  14
ENDBRANCH  10  13
ENDBRANCH   6   7
ENDBRANCH   1   6
BRANCH   1  19
HETATM   19  C           1     -21.626  -5.675  -5.707  0.00  0.00     0.249 C 
HETATM   20  O           1     -22.834  -5.633  -5.721  0.00  0.00    -0.271 OA
HETATM   21  N           1     -20.981  -6.529  -4.853  0.00  0.00    -0.345 N 
HETATM   22  H           1     -19.970  -6.564  -4.841  0.00  0.00     0.163 HD
BRANCH  21  23
HETATM   23  C           1     -21.747  -7.383  -3.967  0.00  0.00     0.185 C 
BRANCH  23  24
HETATM   24  C           1     -21.653  -6.856  -2.556  0.00  0.00     0.196 C 
HETATM   25  O           1     -20.854  -7.374  -1.746  0.00  0.00    -0.646 OA
HETATM   26  O           1     -22.375  -5.900  -2.196  0.00  0.00    -0.646 OA
ENDBRANCH  23  24
BRANCH  23  27
HETATM   27  C           1     -21.188  -8.798  -4.016  0.00  0.00     0.036 C 
BRANCH  27  28
HETATM   28  C           1     -19.961  -8.830  -4.917  0.00  0.00     0.004 C 
BRANCH  28  29
HETATM   29  C           1     -18.738  -9.223  -4.098  0.00  0.00     0.027 C 
BRANCH  29  30
HETATM   30  C           1     -17.774 -10.015  -4.973  0.00  0.00     0.229 C 
BRANCH  30  31
HETATM   31  N           1     -17.806  -9.470  -6.370  0.00  0.00    -0.079 N 
HETATM   32  H           1     -17.206 -10.062  -6.989  0.00  0.00     0.274 HD
HETATM   33  H           1     -17.446  -8.489  -6.370  0.00  0.00     0.274 HD
HETATM   34  H           1     -18.788  -9.480  -6.726  0.00  0.00     0.274 HD
ENDBRANCH  30  31
ENDBRANCH  29  30
ENDBRANCH  28  29
ENDBRANCH  27  28
ENDBRANCH  23  27
ENDBRANCH  21  23
ENDBRANCH   1  19
TORSDOF 14
ENDMDL
MODEL 2
REMARK VINA RESULT:      -7.5      1.394      2.150
REMARK  14 active torsions:
REMARK  status: ('A' for Active; 'I' for Inactive)
REMARK    1  A    between atoms: N_5  and  C_18 
REMARK    2  A    between atoms: O_10  and  P_11 
REMARK    3  A    between atoms: P_11  and  O_12 
REMARK    4  A    between atoms: O_12  and  C_13 
REMARK    5  A    between atoms: C_16  and  C_17 
REMARK    6  A    between atoms: C_17  and  C_18 
REMARK    7  A    between atoms: C_18  and  C_19 
REMARK       I    between atoms: C_19  and  N_20 
REMARK    8  A    between atoms: N_20  and  C_24 
REMARK    9  A    between atoms: C_23  and  C_24 
REMARK   10  A    between atoms: C_24  and  C_25 
REMARK   11  A    between atoms: C_25  and  C_26 
REMARK   12  A    between atoms: C_26  and  C_27 
REMARK   13  A    between atoms: C_27  and  C_28 
REMARK   14  A    between atoms: C_28  and  N_29 
ROOT
HETATM    1  C           1     -20.908  -4.880  -6.450  0.00  0.00     0.278 C 
ENDROOT
BRANCH   1   2
HETATM    2  N           1     -19.601  -4.487  -5.826  0.00  0.00    -0.066 N 
HETATM    3  H           1     -19.139  -5.333  -5.423  0.00  0.00     0.275 HD
HETATM    4  H           1     -18.981  -4.066  -6.553  0.00  0.00     0.275 HD
HETATM    5  H           1     -19.774  -3.791  -5.067  0.00  0.00     0.275 HD
ENDBRANCH   1   2
BRANCH   1   6
HETATM    6  C           1     -20.647  -5.577  -7.778  0.00  0.00     0.081 C 
BRANCH   6   7
HETATM    7  C           1     -21.228  -4.762  -8.893  0.00  0.00    -0.056 A 
HETATM    8  C           1     -20.448  -4.448 -10.005  0.00  0.00     0.010 A 
HETATM    9  C           1     -20.988  -3.689 -11.043  0.00  0.00     0.038 A 
HETATM   10  C           1     -22.308  -3.246 -10.969  0.00  0.00     0.081 A 
HETATM   11  C           1     -23.088  -3.560  -9.856  0.00  0.00     0.038 A 
HETATM   12  C           1     -22.547  -4.319  -8.817  0.00  0.00     0.010 A 
BRANCH  10  13
HETATM   13  O           1     -22.834  -2.509 -11.978  0.00  0.00    -0.247 OA
BRANCH  13  14
HETATM   14  P           1     -23.895  -3.222 -12.965  0.00  0.00     0.411 P 
HETATM   15  O           1     -23.649  -2.778 -14.356  0.00  0.00    -0.624 OA
HETATM   16  O           1     -25.269  -2.850 -12.562  0.00  0.00    -0.624 OA
BRANCH  14  17
HETATM   17  O           1     -23.722  -4.825 -12.873  0.00  0.00    -0.300 OA
HETATM   18  H           1     -24.196  -5.077 -12.099  0.00  0.00     0.223 HD
ENDBRANCH  14  17
ENDBRANCH  13  14
ENDBRANCH  10  13
ENDBRANCH   6   7
ENDBRANCH   1   6
BRANCH   1  19
HETATM   19  C           1     -21.644  -5.817  -5.524  0.00  0.00     0.249 C 
HETATM   20  O           1     -22.853  -5.851  -5.536  0.00  0.00    -0.271 OA
HETATM   21  N           1     -20.945  -6.627  -4.671  0.00  0.00    -0.345 N 
HETATM   22  H           1     -19.934  -6.598  -4.661  0.00  0.00     0.163 HD
BRANCH  21  23
HETATM   23  C           1     -21.653  -7.527  -3.782  0.00  0.00     0.185 C 
BRANCH  23  24
HETATM   24  C           1     -21.681  -6.943  -2.392  0.00  0.00     0.196 C 
HETATM   25  O           1     -20.964  -7.434  -1.493  0.00  0.00    -0.646 OA
HETATM   26  O           1     -22.418  -5.965  -2.138  0.00  0.00    -0.646 OA
ENDBRANCH  23  24
BRANCH  23  27
HETATM   27  C           1     -20.944  -8.874  -3.751  0.00  0.00     0.036 C 
BRANCH  27  28
HETATM   28  C           1     -21.966  -9.991  -3.913  0.00  0.00     0.004 C 
BRANCH  28  29
HETATM   29  C           1     -21.569 -11.175  -3.041  0.00  0.00     0.027 C 
BRANCH  29  30
HETATM   30  C           1     -21.288 -10.690  -1.624  0.00  0.00     0.229 C 
BRANCH  30  31
HETATM   31  N           1     -22.569 -10.237  -0.988  0.00  0.00    -0.079 N 
HETATM   32  H           1     -23.048  -9.554  -1.618  0.00  0.00     0.274 HD
HETATM   33  H           1     -22.361  -9.780  -0.072  0.00  0.00     0.274 HD
HETATM   34  H           1     -23.191 -11.061  -0.832  0.00  0.00     0.274 HD
ENDBRANCH  30  31
ENDBRANCH  29  30
ENDBRANCH  28  29
ENDBRANCH  27  28
ENDBRANCH  23  27
ENDBRANCH  21  23
ENDBRANCH   1  19
TORSDOF 14
ENDMDL
MODEL 3
REMARK VINA RESULT:      -7.5      2.096      3.026
REMARK  14 active torsions:
REMARK  status: ('A' for Active; 'I' for Inactive)
REMARK    1  A    between atoms: N_5  and  C_18 
REMARK    2  A    between atoms: O_10  and  P_11 
REMARK    3  A    between atoms: P_11  and  O_12 
REMARK    4  A    between atoms: O_12  and  C_13 
REMARK    5  A    between atoms: C_16  and  C_17 
REMARK    6  A    between atoms: C_17  and  C_18 
REMARK    7  A    between atoms: C_18  and  C_19 
REMARK       I    between atoms: C_19  and  N_20 
REMARK    8  A    between atoms: N_20  and  C_24 
REMARK    9  A    between atoms: C_23  and  C_24 
REMARK   10  A    between atoms: C_24  and  C_25 
REMARK   11  A    between atoms: C_25  and  C_26 
REMARK   12  A    between atoms: C_26  and  C_27 
REMARK   13  A    between atoms: C_27  and  C_28 
REMARK   14  A    between atoms: C_28  and  N_29 
ROOT
HETATM    1  C           1     -20.716  -5.620  -6.538  0.00  0.00     0.278 C 
ENDROOT
BRANCH   1   2
HETATM    2  N           1     -20.357  -4.433  -5.694  0.00  0.00    -0.066 N 
HETATM    3  H           1     -19.456  -4.026  -6.031  0.00  0.00     0.275 HD
HETATM    4  H           1     -21.112  -3.714  -5.766  0.00  0.00     0.275 HD
HETATM    5  H           1     -20.253  -4.733  -4.699  0.00  0.00     0.275 HD
ENDBRANCH   1   2
BRANCH   1   6
HETATM    6  C           1     -20.011  -5.519  -7.883  0.00  0.00     0.081 C 
BRANCH   6   7
HETATM    7  C           1     -20.868  -4.749  -8.841  0.00  0.00    -0.056 A 
HETATM    8  C           1     -22.206  -4.500  -8.533  0.00  0.00     0.010 A 
HETATM    9  C           1     -23.004  -3.784  -9.425  0.00  0.00     0.038 A 
HETATM   10  C           1     -22.465  -3.316 -10.623  0.00  0.00     0.081 A 
HETATM   11  C           1     -21.127  -3.565 -10.931  0.00  0.00     0.038 A 
HETATM   12  C           1     -20.328  -4.282 -10.039  0.00  0.00     0.010 A 
BRANCH  10  13
HETATM   13  O           1     -23.240  -2.620 -11.490  0.00  0.00    -0.247 OA
BRANCH  13  14
HETATM   14  P           1     -23.712  -3.359 -12.846  0.00  0.00     0.411 P 
HETATM   15  O           1     -22.820  -2.962 -13.959  0.00  0.00    -0.624 OA
HETATM   16  O           1     -25.103  -2.965 -13.163  0.00  0.00    -0.624 OA
BRANCH  14  17
HETATM   17  O           1     -23.638  -4.959 -12.642  0.00  0.00    -0.300 OA
HETATM   18  H           1     -24.347  -5.162 -12.054  0.00  0.00     0.223 HD
ENDBRANCH  14  17
ENDBRANCH  13  14
ENDBRANCH  10  13
ENDBRANCH   6   7
ENDBRANCH   1   6
BRANCH   1  19
HETATM   19  C           1     -20.284  -6.884  -5.836  0.00  0.00     0.249 C 
HETATM   20  O           1     -19.345  -7.518  -6.257  0.00  0.00    -0.271 OA
HETATM   21  N           1     -20.956  -7.314  -4.723  0.00  0.00    -0.345 N 
HETATM   22  H           1     -21.742  -6.783  -4.371  0.00  0.00     0.163 HD
BRANCH  21  23
HETATM   23  C           1     -20.540  -8.527  -4.049  0.00  0.00     0.185 C 
BRANCH  23  24
HETATM   24  C           1     -21.365  -9.687  -4.548  0.00  0.00     0.196 C 
HETATM   25  O           1     -21.148 -10.167  -5.682  0.00  0.00    -0.646 OA
HETATM   26  O           1     -22.265 -10.171  -3.827  0.00  0.00    -0.646 OA
ENDBRANCH  23  24
BRANCH  23  27
HETATM   27  C           1     -20.743  -8.371  -2.548  0.00  0.00     0.036 C 
BRANCH  27  28
HETATM   28  C           1     -21.243  -6.965  -2.246  0.00  0.00     0.004 C 
BRANCH  28  29
HETATM   29  C           1     -22.240  -7.016  -1.096  0.00  0.00     0.027 C 
BRANCH  29  30
HETATM   30  C           1     -22.187  -8.389  -0.438  0.00  0.00     0.229 C 
BRANCH  30  31
HETATM   31  N           1     -21.644  -8.256   0.954  0.00  0.00    -0.079 N 
HETATM   32  H           1     -20.895  -8.969   1.105  0.00  0.00     0.274 HD
HETATM   33  H           1     -22.413  -8.407   1.644  0.00  0.00     0.274 HD
HETATM   34  H           1     -21.244  -7.299   1.082  0.00  0.00     0.274 HD
ENDBRANCH  30  31
ENDBRANCH  29  30
ENDBRANCH  28  29
ENDBRANCH  27  28
ENDBRANCH  23  27
ENDBRANCH  21  23
ENDBRANCH   1  19
TORSDOF 14
ENDMDL
MODEL 4
REMARK VINA RESULT:      -7.3      4.000      9.394
REMARK  14 active torsions:
REMARK  status: ('A' for Active; 'I' for Inactive)
REMARK    1  A    between atoms: N_5  and  C_18 
REMARK    2  A    between atoms: O_10  and  P_11 
REMARK    3  A    between atoms: P_11  and  O_12 
REMARK    4  A    between atoms: O_12  and  C_13 
REMARK    5  A    between atoms: C_16  and  C_17 
REMARK    6  A    between atoms: C_17  and  C_18 
REMARK    7  A    between atoms: C_18  and  C_19 
REMARK       I    between atoms: C_19  and  N_20 
REMARK    8  A    between atoms: N_20  and  C_24 
REMARK    9  A    between atoms: C_23  and  C_24 
REMARK   10  A    between atoms: C_24  and  C_25 
REMARK   11  A    between atoms: C_25  and  C_26 
REMARK   12  A    between atoms: C_26  and  C_27 
REMARK   13  A    between atoms: C_27  and  C_28 
REMARK   14  A    between atoms: C_28  and  N_29 
ROOT
HETATM    1  C           1     -21.050  -5.644  -6.990  0.00  0.00     0.278 C 
ENDROOT
BRANCH   1   2
HETATM    2  N           1     -19.724  -6.021  -7.581  0.00  0.00    -0.066 N 
HETATM    3  H           1     -18.990  -5.992  -6.838  0.00  0.00     0.275 HD
HETATM    4  H           1     -19.781  -6.986  -7.976  0.00  0.00     0.275 HD
HETATM    5  H           1     -19.477  -5.346  -8.340  0.00  0.00     0.275 HD
ENDBRANCH   1   2
BRANCH   1   6
HETATM    6  C           1     -20.848  -5.150  -5.564  0.00  0.00     0.081 C 
BRANCH   6   7
HETATM    7  C           1     -21.128  -6.265  -4.604  0.00  0.00    -0.056 A 
HETATM    8  C           1     -21.215  -6.002  -3.237  0.00  0.00     0.010 A 
HETATM    9  C           1     -21.475  -7.040  -2.344  0.00  0.00     0.038 A 
HETATM   10  C           1     -21.650  -8.341  -2.816  0.00  0.00     0.081 A 
HETATM   11  C           1     -21.563  -8.604  -4.183  0.00  0.00     0.038 A 
HETATM   12  C           1     -21.302  -7.564  -5.078  0.00  0.00     0.010 A 
BRANCH  10  13
HETATM   13  O           1     -21.903  -9.350  -1.948  0.00  0.00    -0.247 OA
BRANCH  13  14
HETATM   14  P           1     -20.677 -10.314  -1.528  0.00  0.00     0.411 P 
HETATM   15  O           1     -20.886 -11.659  -2.113  0.00  0.00    -0.624 OA
HETATM   16  O           1     -20.616 -10.420  -0.054  0.00  0.00    -0.624 OA
BRANCH  14  17
HETATM   17  O           1     -19.292  -9.697  -2.082  0.00  0.00    -0.300 OA
HETATM   18  H           1     -19.147  -8.922  -1.565  0.00  0.00     0.223 HD
ENDBRANCH  14  17
ENDBRANCH  13  14
ENDBRANCH  10  13
ENDBRANCH   6   7
ENDBRANCH   1   6
BRANCH   1  19
HETATM   19  C           1     -21.676  -4.549  -7.819  0.00  0.00     0.249 C 
HETATM   20  O           1     -21.681  -3.411  -7.411  0.00  0.00    -0.271 OA
HETATM   21  N           1     -22.238  -4.844  -9.032  0.00  0.00    -0.345 N 
HETATM   22  H           1     -22.233  -5.797  -9.373  0.00  0.00     0.163 HD
BRANCH  21  23
HETATM   23  C           1     -22.838  -3.792  -9.828  0.00  0.00     0.185 C 
BRANCH  23  24
HETATM   24  C           1     -24.340  -3.857  -9.695  0.00  0.00     0.196 C 
HETATM   25  O           1     -24.934  -4.947  -9.839  0.00  0.00    -0.646 OA
HETATM   26  O           1     -24.991  -2.819  -9.441  0.00  0.00    -0.646 OA
ENDBRANCH  23  24
BRANCH  23  27
HETATM   27  C           1     -22.451  -3.975 -11.289  0.00  0.00     0.036 C 
BRANCH  27  28
HETATM   28  C           1     -22.622  -2.656 -12.030  0.00  0.00     0.004 C 
BRANCH  28  29
HETATM   29  C           1     -23.836  -2.742 -12.947  0.00  0.00     0.027 C 
BRANCH  29  30
HETATM   30  C           1     -23.478  -2.177 -14.316  0.00  0.00     0.229 C 
BRANCH  30  31
HETATM   31  N           1     -22.344  -2.965 -14.901  0.00  0.00    -0.079 N 
HETATM   32  H           1     -22.296  -3.902 -14.440  0.00  0.00     0.274 HD
HETATM   33  H           1     -21.447  -2.453 -14.746  0.00  0.00     0.274 HD
HETATM   34  H           1     -22.500  -3.090 -15.927  0.00  0.00     0.274 HD
ENDBRANCH  30  31
ENDBRANCH  29  30
ENDBRANCH  28  29
ENDBRANCH  27  28
ENDBRANCH  23  27
ENDBRANCH  21  23
ENDBRANCH   1  19
TORSDOF 14
ENDMDL
MODEL 5
REMARK VINA RESULT:      -7.2      2.128      3.080
REMARK  14 active torsions:
REMARK  status: ('A' for Active; 'I' for Inactive)
REMARK    1  A    between atoms: N_5  and  C_18 
REMARK    2  A    between atoms: O_10  and  P_11 
REMARK    3  A    between atoms: P_11  and  O_12 
REMARK    4  A    between atoms: O_12  and  C_13 
REMARK    5  A    between atoms: C_16  and  C_17 
REMARK    6  A    between atoms: C_17  and  C_18 
REMARK    7  A    between atoms: C_18  and  C_19 
REMARK       I    between atoms: C_19  and  N_20 
REMARK    8  A    between atoms: N_20  and  C_24 
REMARK    9  A    between atoms: C_23  and  C_24 
REMARK   10  A    between atoms: C_24  and  C_25 
REMARK   11  A    between atoms: C_25  and  C_26 
REMARK   12  A    between atoms: C_26  and  C_27 
REMARK   13  A    between atoms: C_27  and  C_28 
REMARK   14  A    between atoms: C_28  and  N_29 
ROOT
HETATM    1  C           1     -22.217  -5.160  -6.788  0.00  0.00     0.278 C 
ENDROOT
BRANCH   1   2
HETATM    2  N           1     -23.657  -4.939  -6.429  0.00  0.00    -0.066 N 
HETATM    3  H           1     -24.172  -4.574  -7.261  0.00  0.00     0.275 HD
HETATM    4  H           1     -24.082  -5.843  -6.126  0.00  0.00     0.275 HD
HETATM    5  H           1     -23.718  -4.246  -5.650  0.00  0.00     0.275 HD
ENDBRANCH   1   2
BRANCH   1   6
HETATM    6  C           1     -21.614  -3.856  -7.292  0.00  0.00     0.081 C 
BRANCH   6   7
HETATM    7  C           1     -21.652  -3.833  -8.789  0.00  0.00    -0.056 A 
HETATM    8  C           1     -20.498  -4.118  -9.520  0.00  0.00     0.010 A 
HETATM    9  C           1     -20.534  -4.097 -10.914  0.00  0.00     0.038 A 
HETATM   10  C           1     -21.722  -3.792 -11.577  0.00  0.00     0.081 A 
HETATM   11  C           1     -22.876  -3.507 -10.847  0.00  0.00     0.038 A 
HETATM   12  C           1     -22.840  -3.528  -9.452  0.00  0.00     0.010 A 
BRANCH  10  13
HETATM   13  O           1     -21.756  -3.772 -12.932  0.00  0.00    -0.247 OA
BRANCH  13  14
HETATM   14  P           1     -23.057  -3.135 -13.647  0.00  0.00     0.411 P 
HETATM   15  O           1     -22.718  -2.756 -15.038  0.00  0.00    -0.624 OA
HETATM   16  O           1     -23.492  -1.935 -12.900  0.00  0.00    -0.624 OA
BRANCH  14  17
HETATM   17  O           1     -24.250  -4.222 -13.661  0.00  0.00    -0.300 OA
HETATM   18  H           1     -25.031  -3.730 -13.471  0.00  0.00     0.223 HD
ENDBRANCH  14  17
ENDBRANCH  13  14
ENDBRANCH  10  13
ENDBRANCH   6   7
ENDBRANCH   1   6
BRANCH   1  19
HETATM   19  C           1     -21.461  -5.627  -5.568  0.00  0.00     0.249 C 
HETATM   20  O           1     -20.255  -5.557  -5.542  0.00  0.00    -0.271 OA
HETATM   21  N           1     -22.141  -6.129  -4.491  0.00  0.00    -0.345 N 
HETATM   22  H           1     -23.151  -6.186  -4.513  0.00  0.00     0.163 HD
BRANCH  21  23
HETATM   23  C           1     -21.414  -6.576  -3.320  0.00  0.00     0.185 C 
BRANCH  23  24
HETATM   24  C           1     -21.048  -8.031  -3.481  0.00  0.00     0.196 C 
HETATM   25  O           1     -19.875  -8.407  -3.272  0.00  0.00    -0.646 OA
HETATM   26  O           1     -21.919  -8.861  -3.821  0.00  0.00    -0.646 OA
ENDBRANCH  23  24
BRANCH  23  27
HETATM   27  C           1     -22.288  -6.408  -2.084  0.00  0.00     0.036 C 
BRANCH  27  28
HETATM   28  C           1     -21.705  -7.218  -0.935  0.00  0.00     0.004 C 
BRANCH  28  29
HETATM   29  C           1     -22.836  -7.809  -0.103  0.00  0.00     0.027 C 
BRANCH  29  30
HETATM   30  C           1     -22.816  -9.328  -0.225  0.00  0.00     0.229 C 
BRANCH  30  31
HETATM   31  N           1     -21.468  -9.771  -0.712  0.00  0.00    -0.079 N 
HETATM   32  H           1     -21.107  -9.083  -1.412  0.00  0.00     0.274 HD
HETATM   33  H           1     -21.551 -10.712  -1.159  0.00  0.00     0.274 HD
HETATM   34  H           1     -20.807  -9.826   0.094  0.00  0.00     0.274 HD
ENDBRANCH  30  31
ENDBRANCH  29  30
ENDBRANCH  28  29
ENDBRANCH  27  28
ENDBRANCH  23  27
ENDBRANCH  21  23
ENDBRANCH   1  19
TORSDOF 14
ENDMDL
MODEL 6
REMARK VINA RESULT:      -7.0      3.881      9.354
REMARK  14 active torsions:
REMARK  status: ('A' for Active; 'I' for Inactive)
REMARK    1  A    between atoms: N_5  and  C_18 
REMARK    2  A    between atoms: O_10  and  P_11 
REMARK    3  A    between atoms: P_11  and  O_12 
REMARK    4  A    between atoms: O_12  and  C_13 
REMARK    5  A    between atoms: C_16  and  C_17 
REMARK    6  A    between atoms: C_17  and  C_18 
REMARK    7  A    between atoms: C_18  and  C_19 
REMARK       I    between atoms: C_19  and  N_20 
REMARK    8  A    between atoms: N_20  and  C_24 
REMARK    9  A    between atoms: C_23  and  C_24 
REMARK   10  A    between atoms: C_24  and  C_25 
REMARK   11  A    between atoms: C_25  and  C_26 
REMARK   12  A    between atoms: C_26  and  C_27 
REMARK   13  A    between atoms: C_27  and  C_28 
REMARK   14  A    between atoms: C_28  and  N_29 
ROOT
HETATM    1  C           1     -22.408  -5.087  -6.347  0.00  0.00     0.278 C 
ENDROOT
BRANCH   1   2
HETATM    2  N           1     -23.827  -5.431  -6.001  0.00  0.00    -0.066 N 
HETATM    3  H           1     -24.318  -5.782  -6.853  0.00  0.00     0.275 HD
HETATM    4  H           1     -23.836  -6.170  -5.264  0.00  0.00     0.275 HD
HETATM    5  H           1     -24.314  -4.577  -5.645  0.00  0.00     0.275 HD
ENDBRANCH   1   2
BRANCH   1   6
HETATM    6  C           1     -21.579  -6.362  -6.415  0.00  0.00     0.081 C 
BRANCH   6   7
HETATM    7  C           1     -21.331  -6.871  -5.029  0.00  0.00    -0.056 A 
HETATM    8  C           1     -21.404  -6.000  -3.942  0.00  0.00     0.010 A 
HETATM    9  C           1     -21.173  -6.474  -2.652  0.00  0.00     0.038 A 
HETATM   10  C           1     -20.870  -7.821  -2.447  0.00  0.00     0.081 A 
HETATM   11  C           1     -20.798  -8.692  -3.533  0.00  0.00     0.038 A 
HETATM   12  C           1     -21.029  -8.217  -4.825  0.00  0.00     0.010 A 
BRANCH  10  13
HETATM   13  O           1     -20.646  -8.282  -1.193  0.00  0.00    -0.247 OA
BRANCH  13  14
HETATM   14  P           1     -21.900  -8.879  -0.369  0.00  0.00     0.411 P 
HETATM   15  O           1     -22.823  -7.778  -0.011  0.00  0.00    -0.624 OA
HETATM   16  O           1     -21.412  -9.536   0.864  0.00  0.00    -0.624 OA
BRANCH  14  17
HETATM   17  O           1     -22.679  -9.959  -1.282  0.00  0.00    -0.300 OA
HETATM   18  H           1     -22.082 -10.683  -1.367  0.00  0.00     0.223 HD
ENDBRANCH  14  17
ENDBRANCH  13  14
ENDBRANCH  10  13
ENDBRANCH   6   7
ENDBRANCH   1   6
BRANCH   1  19
HETATM   19  C           1     -22.373  -4.390  -7.686  0.00  0.00     0.249 C 
HETATM   20  O           1     -21.384  -3.782  -8.024  0.00  0.00    -0.271 OA
HETATM   21  N           1     -23.460  -4.446  -8.516  0.00  0.00    -0.345 N 
HETATM   22  H           1     -24.287  -4.955  -8.233  0.00  0.00     0.163 HD
BRANCH  21  23
HETATM   23  C           1     -23.425  -3.777  -9.801  0.00  0.00     0.185 C 
BRANCH  23  24
HETATM   24  C           1     -24.790  -3.215 -10.113  0.00  0.00     0.196 C 
HETATM   25  O           1     -25.234  -3.263 -11.280  0.00  0.00    -0.646 OA
HETATM   26  O           1     -25.478  -2.702  -9.203  0.00  0.00    -0.646 OA
ENDBRANCH  23  24
BRANCH  23  27
HETATM   27  C           1     -23.029  -4.773 -10.883  0.00  0.00     0.036 C 
BRANCH  27  28
HETATM   28  C           1     -21.699  -4.356 -11.497  0.00  0.00     0.004 C 
BRANCH  28  29
HETATM   29  C           1     -21.833  -2.965 -12.102  0.00  0.00     0.027 C 
BRANCH  29  30
HETATM   30  C           1     -22.664  -3.043 -13.377  0.00  0.00     0.229 C 
BRANCH  30  31
HETATM   31  N           1     -23.704  -1.963 -13.362  0.00  0.00    -0.079 N 
HETATM   32  H           1     -24.242  -1.985 -14.258  0.00  0.00     0.274 HD
HETATM   33  H           1     -23.239  -1.033 -13.258  0.00  0.00     0.274 HD
HETATM   34  H           1     -24.356  -2.118 -12.561  0.00  0.00     0.274 HD
ENDBRANCH  30  31
ENDBRANCH  29  30
ENDBRANCH  28  29
ENDBRANCH  27  28
ENDBRANCH  23  27
ENDBRANCH  21  23
ENDBRANCH   1  19
TORSDOF 14
ENDMDL
MODEL 7
REMARK VINA RESULT:      -6.8      2.633      3.674
REMARK  14 active torsions:
REMARK  status: ('A' for Active; 'I' for Inactive)
REMARK    1  A    between atoms: N_5  and  C_18 
REMARK    2  A    between atoms: O_10  and  P_11 
REMARK    3  A    between atoms: P_11  and  O_12 
REMARK    4  A    between atoms: O_12  and  C_13 
REMARK    5  A    between atoms: C_16  and  C_17 
REMARK    6  A    between atoms: C_17  and  C_18 
REMARK    7  A    between atoms: C_18  and  C_19 
REMARK       I    between atoms: C_19  and  N_20 
REMARK    8  A    between atoms: N_20  and  C_24 
REMARK    9  A    between atoms: C_23  and  C_24 
REMARK   10  A    between atoms: C_24  and  C_25 
REMARK   11  A    between atoms: C_25  and  C_26 
REMARK   12  A    between atoms: C_26  and  C_27 
REMARK   13  A    between atoms: C_27  and  C_28 
REMARK   14  A    between atoms: C_28  and  N_29 
ROOT
HETATM    1  C           1     -21.502  -6.500  -5.260  0.00  0.00     0.278 C 
ENDROOT
BRANCH   1   2
HETATM    2  N           1     -21.971  -6.085  -3.896  0.00  0.00    -0.066 N 
HETATM    3  H           1     -21.462  -6.637  -3.170  0.00  0.00     0.275 HD
HETATM    4  H           1     -21.780  -5.068  -3.757  0.00  0.00     0.275 HD
HETATM    5  H           1     -22.997  -6.264  -3.813  0.00  0.00     0.275 HD
ENDBRANCH   1   2
BRANCH   1   6
HETATM    6  C           1     -20.505  -5.477  -5.786  0.00  0.00     0.081 C 
BRANCH   6   7
HETATM    7  C           1     -20.995  -4.925  -7.089  0.00  0.00    -0.056 A 
HETATM    8  C           1     -22.292  -4.420  -7.188  0.00  0.00     0.010 A 
HETATM    9  C           1     -22.749  -3.906  -8.401  0.00  0.00     0.038 A 
HETATM   10  C           1     -21.909  -3.895  -9.515  0.00  0.00     0.081 A 
HETATM   11  C           1     -20.613  -4.399  -9.416  0.00  0.00     0.038 A 
HETATM   12  C           1     -20.155  -4.914  -8.202  0.00  0.00     0.010 A 
BRANCH  10  13
HETATM   13  O           1     -22.353  -3.395 -10.694  0.00  0.00    -0.247 OA
BRANCH  13  14
HETATM   14  P           1     -23.697  -4.028 -11.327  0.00  0.00     0.411 P 
HETATM   15  O           1     -24.856  -3.174 -10.977  0.00  0.00    -0.624 OA
HETATM   16  O           1     -23.904  -5.389 -10.784  0.00  0.00    -0.624 OA
BRANCH  14  17
HETATM   17  O           1     -23.551  -4.106 -12.933  0.00  0.00    -0.300 OA
HETATM   18  H           1     -23.044  -3.347 -13.169  0.00  0.00     0.223 HD
ENDBRANCH  14  17
ENDBRANCH  13  14
ENDBRANCH  10  13
ENDBRANCH   6   7
ENDBRANCH   1   6
BRANCH   1  19
HETATM   19  C           1     -20.838  -7.853  -5.172  0.00  0.00     0.249 C 
HETATM   20  O           1     -19.776  -8.040  -5.718  0.00  0.00    -0.271 OA
HETATM   21  N           1     -21.439  -8.867  -4.476  0.00  0.00    -0.345 N 
HETATM   22  H           1     -22.328  -8.709  -4.020  0.00  0.00     0.163 HD
BRANCH  21  23
HETATM   23  C           1     -20.801 -10.165  -4.393  0.00  0.00     0.185 C 
BRANCH  23  24
HETATM   24  C           1     -21.456 -11.111  -5.368  0.00  0.00     0.196 C 
HETATM   25  O           1     -21.170 -11.053  -6.584  0.00  0.00    -0.646 OA
HETATM   26  O           1     -22.285 -11.954  -4.961  0.00  0.00    -0.646 OA
ENDBRANCH  23  24
BRANCH  23  27
HETATM   27  C           1     -20.947 -10.714  -2.980  0.00  0.00     0.036 C 
BRANCH  27  28
HETATM   28  C           1     -20.017  -9.957  -2.041  0.00  0.00     0.004 C 
BRANCH  28  29
HETATM   29  C           1     -20.761  -9.613  -0.757  0.00  0.00     0.027 C 
BRANCH  29  30
HETATM   30  C           1     -21.458  -8.268  -0.919  0.00  0.00     0.229 C 
BRANCH  30  31
HETATM   31  N           1     -22.734  -8.269  -0.131  0.00  0.00    -0.079 N 
HETATM   32  H           1     -22.614  -8.855   0.726  0.00  0.00     0.274 HD
HETATM   33  H           1     -23.505  -8.663  -0.716  0.00  0.00     0.274 HD
HETATM   34  H           1     -22.973  -7.291   0.147  0.00  0.00     0.274 HD
ENDBRANCH  30  31
ENDBRANCH  29  30
ENDBRANCH  28  29
ENDBRANCH  27  28
ENDBRANCH  23  27
ENDBRANCH  21  23
ENDBRANCH   1  19
TORSDOF 14
ENDMDL
MODEL 8
REMARK VINA RESULT:      -6.8      1.852      2.825
REMARK  14 active torsions:
REMARK  status: ('A' for Active; 'I' for Inactive)
REMARK    1  A    between atoms: N_5  and  C_18 
REMARK    2  A    between atoms: O_10  and  P_11 
REMARK    3  A    between atoms: P_11  and  O_12 
REMARK    4  A    between atoms: O_12  and  C_13 
REMARK    5  A    between atoms: C_16  and  C_17 
REMARK    6  A    between atoms: C_17  and  C_18 
REMARK    7  A    between atoms: C_18  and  C_19 
REMARK       I    between atoms: C_19  and  N_20 
REMARK    8  A    between atoms: N_20  and  C_24 
REMARK    9  A    between atoms: C_23  and  C_24 
REMARK   10  A    between atoms: C_24  and  C_25 
REMARK   11  A    between atoms: C_25  and  C_26 
REMARK   12  A    between atoms: C_26  and  C_27 
REMARK   13  A    between atoms: C_27  and  C_28 
REMARK   14  A    between atoms: C_28  and  N_29 
ROOT
HETATM    1  C           1     -21.504  -6.709  -5.303  0.00  0.00     0.278 C 
ENDROOT
BRANCH   1   2
HETATM    2  N           1     -21.959  -5.941  -4.097  0.00  0.00    -0.066 N 
HETATM    3  H           1     -23.000  -5.981  -4.030  0.00  0.00     0.275 HD
HETATM    4  H           1     -21.538  -6.360  -3.239  0.00  0.00     0.275 HD
HETATM    5  H           1     -21.654  -4.945  -4.185  0.00  0.00     0.275 HD
ENDBRANCH   1   2
BRANCH   1   6
HETATM    6  C           1     -20.373  -5.956  -5.988  0.00  0.00     0.081 C 
BRANCH   6   7
HETATM    7  C           1     -20.903  -5.251  -7.199  0.00  0.00    -0.056 A 
HETATM    8  C           1     -20.127  -5.172  -8.355  0.00  0.00     0.010 A 
HETATM    9  C           1     -20.621  -4.516  -9.482  0.00  0.00     0.038 A 
HETATM   10  C           1     -21.890  -3.939  -9.454  0.00  0.00     0.081 A 
HETATM   11  C           1     -22.666  -4.018  -8.297  0.00  0.00     0.038 A 
HETATM   12  C           1     -22.172  -4.674  -7.169  0.00  0.00     0.010 A 
BRANCH  10  13
HETATM   13  O           1     -22.370  -3.301 -10.549  0.00  0.00    -0.247 OA
BRANCH  13  14
HETATM   14  P           1     -23.644  -3.947 -11.304  0.00  0.00     0.411 P 
HETATM   15  O           1     -24.862  -3.178 -10.960  0.00  0.00    -0.624 OA
HETATM   16  O           1     -23.809  -5.353 -10.877  0.00  0.00    -0.624 OA
BRANCH  14  17
HETATM   17  O           1     -23.407  -3.894 -12.900  0.00  0.00    -0.300 OA
HETATM   18  H           1     -23.316  -2.978 -13.103  0.00  0.00     0.223 HD
ENDBRANCH  14  17
ENDBRANCH  13  14
ENDBRANCH  10  13
ENDBRANCH   6   7
ENDBRANCH   1   6
BRANCH   1  19
HETATM   19  C           1     -21.016  -8.072  -4.875  0.00  0.00     0.249 C 
HETATM   20  O           1     -20.992  -8.981  -5.671  0.00  0.00    -0.271 OA
HETATM   21  N           1     -20.602  -8.278  -3.587  0.00  0.00    -0.345 N 
HETATM   22  H           1     -20.622  -7.517  -2.921  0.00  0.00     0.163 HD
BRANCH  21  23
HETATM   23  C           1     -20.133  -9.587  -3.178  0.00  0.00     0.185 C 
BRANCH  23  24
HETATM   24  C           1     -20.800  -9.978  -1.882  0.00  0.00     0.196 C 
HETATM   25  O           1     -21.448  -9.129  -1.232  0.00  0.00    -0.646 OA
HETATM   26  O           1     -20.707 -11.151  -1.459  0.00  0.00    -0.646 OA
ENDBRANCH  23  24
BRANCH  23  27
HETATM   27  C           1     -18.624  -9.548  -2.978  0.00  0.00     0.036 C 
BRANCH  27  28
HETATM   28  C           1     -17.960 -10.544  -3.918  0.00  0.00     0.004 C 
BRANCH  28  29
HETATM   29  C           1     -16.926  -9.823  -4.775  0.00  0.00     0.027 C 
BRANCH  29  30
HETATM   30  C           1     -17.412  -9.770  -6.218  0.00  0.00     0.229 C 
BRANCH  30  31
HETATM   31  N           1     -18.615 -10.651  -6.373  0.00  0.00    -0.079 N 
HETATM   32  H           1     -19.482 -10.067  -6.339  0.00  0.00     0.274 HD
HETATM   33  H           1     -18.637 -11.351  -5.598  0.00  0.00     0.274 HD
HETATM   34  H           1     -18.568 -11.149  -7.290  0.00  0.00     0.274 HD
ENDBRANCH  30  31
ENDBRANCH  29  30
ENDBRANCH  28  29
ENDBRANCH  27  28
ENDBRANCH  23  27
ENDBRANCH  21  23
ENDBRANCH   1  19
TORSDOF 14
ENDMDL
MODEL 9
REMARK VINA RESULT:      -6.4     11.658     13.697
REMARK  14 active torsions:
REMARK  status: ('A' for Active; 'I' for Inactive)
REMARK    1  A    between atoms: N_5  and  C_18 
REMARK    2  A    between atoms: O_10  and  P_11 
REMARK    3  A    between atoms: P_11  and  O_12 
REMARK    4  A    between atoms: O_12  and  C_13 
REMARK    5  A    between atoms: C_16  and  C_17 
REMARK    6  A    between atoms: C_17  and  C_18 
REMARK    7  A    between atoms: C_18  and  C_19 
REMARK       I    between atoms: C_19  and  N_20 
REMARK    8  A    between atoms: N_20  and  C_24 
REMARK    9  A    between atoms: C_23  and  C_24 
REMARK   10  A    between atoms: C_24  and  C_25 
REMARK   11  A    between atoms: C_25  and  C_26 
REMARK   12  A    between atoms: C_26  and  C_27 
REMARK   13  A    between atoms: C_27  and  C_28 
REMARK   14  A    between atoms: C_28  and  N_29 
ROOT
HETATM    1  C           1     -32.810  -4.846 -16.844  0.00  0.00     0.278 C 
ENDROOT
BRANCH   1   2
HETATM    2  N           1     -31.694  -3.857 -16.678  0.00  0.00    -0.066 N 
HETATM    3  H           1     -31.473  -3.422 -17.603  0.00  0.00     0.275 HD
HETATM    4  H           1     -31.984  -3.114 -16.005  0.00  0.00     0.275 HD
HETATM    5  H           1     -30.846  -4.347 -16.314  0.00  0.00     0.275 HD
ENDBRANCH   1   2
BRANCH   1   6
HETATM    6  C           1     -32.237  -6.255 -16.894  0.00  0.00     0.081 C 
BRANCH   6   7
HETATM    7  C           1     -30.744  -6.184 -17.002  0.00  0.00    -0.056 A 
HETATM    8  C           1     -30.128  -6.313 -18.247  0.00  0.00     0.010 A 
HETATM    9  C           1     -28.739  -6.247 -18.347  0.00  0.00     0.038 A 
HETATM   10  C           1     -27.965  -6.050 -17.203  0.00  0.00     0.081 A 
HETATM   11  C           1     -28.581  -5.921 -15.958  0.00  0.00     0.038 A 
HETATM   12  C           1     -29.972  -5.987 -15.858  0.00  0.00     0.010 A 
BRANCH  10  13
HETATM   13  O           1     -26.615  -5.986 -17.300  0.00  0.00    -0.247 OA
BRANCH  13  14
HETATM   14  P           1     -25.738  -6.677 -16.133  0.00  0.00     0.411 P 
HETATM   15  O           1     -26.601  -7.580 -15.337  0.00  0.00    -0.624 OA
HETATM   16  O           1     -25.175  -5.628 -15.254  0.00  0.00    -0.624 OA
BRANCH  14  17
HETATM   17  O           1     -24.536  -7.527 -16.795  0.00  0.00    -0.300 OA
HETATM   18  H           1     -23.749  -7.176 -16.411  0.00  0.00     0.223 HD
ENDBRANCH  14  17
ENDBRANCH  13  14
ENDBRANCH  10  13
ENDBRANCH   6   7
ENDBRANCH   1   6
BRANCH   1  19
HETATM   19  C           1     -33.761  -4.729 -15.677  0.00  0.00     0.249 C 
HETATM   20  O           1     -34.897  -5.128 -15.782  0.00  0.00    -0.271 OA
HETATM   21  N           1     -33.337  -4.173 -14.500  0.00  0.00    -0.345 N 
HETATM   22  H           1     -32.385  -3.839 -14.413  0.00  0.00     0.163 HD
BRANCH  21  23
HETATM   23  C           1     -34.250  -4.062 -13.380  0.00  0.00     0.185 C 
BRANCH  23  24
HETATM   24  C           1     -34.487  -2.606 -13.067  0.00  0.00     0.196 C 
HETATM   25  O           1     -34.994  -1.855 -13.929  0.00  0.00    -0.646 OA
HETATM   26  O           1     -34.178  -2.148 -11.945  0.00  0.00    -0.646 OA
ENDBRANCH  23  24
BRANCH  23  27
HETATM   27  C           1     -33.647  -4.749 -12.163  0.00  0.00     0.036 C 
BRANCH  27  28
HETATM   28  C           1     -34.663  -5.714 -11.568  0.00  0.00     0.004 C 
BRANCH  28  29
HETATM   29  C           1     -34.042  -6.439 -10.380  0.00  0.00     0.027 C 
BRANCH  29  30
HETATM   30  C           1     -34.697  -7.805 -10.221  0.00  0.00     0.229 C 
BRANCH  30  31
HETATM   31  N           1     -33.635  -8.862 -10.149  0.00  0.00    -0.079 N 
HETATM   32  H           1     -33.882  -9.649 -10.792  0.00  0.00     0.274 HD
HETATM   33  H           1     -33.565  -9.221  -9.171  0.00  0.00     0.274 HD
HETATM   34  H           1     -32.717  -8.454 -10.436  0.00  0.00     0.274 HD
ENDBRANCH  30  31
ENDBRANCH  29  30
ENDBRANCH  28  29
ENDBRANCH  27  28
ENDBRANCH  23  27
ENDBRANCH  21  23
ENDBRANCH   1  19
TORSDOF 14
ENDMDL
