MODEL 1
REMARK VINA RESULT:      -6.2      0.000      0.000
REMARK  7 active torsions:
REMARK  status: ('A' for Active; 'I' for Inactive)
REMARK    1  A    between atoms: C_1  and  C_7 
REMARK    2  A    between atoms: C_1  and  C_4 
REMARK    3  A    between atoms: C_1  and  N_13 
REMARK    4  A    between atoms: N_3  and  C_19 
REMARK       I    between atoms: N_13  and  C_20 
REMARK    5  A    between atoms: C_16  and  C_18 
REMARK    6  A    between atoms: C_18  and  C_19 
REMARK    7  A    between atoms: C_19  and  C_20 
ROOT
HETATM    1  O           1     -21.566  -3.476  -7.362  0.00  0.00    -0.271 OA
HETATM    2  H           1     -21.902  -5.684  -9.566  0.00  0.00     0.163 HD
HETATM    3  N           1     -21.984  -4.773  -9.131  0.00  0.00    -0.344 N 
HETATM    4  C           1     -21.468  -4.562  -7.881  0.00  0.00     0.249 C 
ENDROOT
BRANCH   4   5
HETATM    5  C           1     -20.777  -5.687  -7.151  0.00  0.00     0.278 C 
BRANCH   5   6
HETATM    6  N           1     -19.389  -5.260  -6.773  0.00  0.00    -0.066 N 
HETATM    7  H           1     -18.713  -6.019  -7.011  0.00  0.00     0.275 HD
HETATM    8  H           1     -19.137  -4.392  -7.298  0.00  0.00     0.275 HD
HETATM    9  H           1     -19.352  -5.069  -5.746  0.00  0.00     0.275 HD
ENDBRANCH   5   6
BRANCH   5  10
HETATM   10  C           1     -21.561  -6.034  -5.892  0.00  0.00     0.021 C 
HETATM   11  C           1     -21.625  -7.547  -5.734  0.00  0.00     0.012 C 
BRANCH  10  12
HETATM   12  C           1     -20.868  -5.427  -4.680  0.00  0.00     0.002 C 
HETATM   13  C           1     -21.334  -6.138  -3.417  0.00  0.00     0.005 C 
ENDBRANCH  10  12
ENDBRANCH   5  10
ENDBRANCH   4   5
BRANCH   3  14
HETATM   14  C           1     -22.649  -3.692  -9.833  0.00  0.00     0.189 C 
BRANCH  14  15
HETATM   15  C           1     -22.201  -3.681 -11.288  0.00  0.00     0.010 C 
HETATM   16  C           1     -22.873  -2.525 -12.017  0.00  0.00     0.012 C 
HETATM   17  C           1     -20.688  -3.512 -11.351  0.00  0.00     0.012 C 
ENDBRANCH  14  15
BRANCH  14  18
HETATM   18  C           1     -24.143  -3.894  -9.768  0.00  0.00     0.197 C 
HETATM   19  O           1     -24.637  -5.005 -10.060  0.00  0.00    -0.646 OA
HETATM   20  O           1     -24.886  -2.951  -9.422  0.00  0.00    -0.646 OA
ENDBRANCH  14  18
ENDBRANCH   3  14
TORSDOF 7
ENDMDL
MODEL 2
REMARK VINA RESULT:      -5.7      1.777      6.074
REMARK  7 active torsions:
REMARK  status: ('A' for Active; 'I' for Inactive)
REMARK    1  A    between atoms: C_1  and  C_7 
REMARK    2  A    between atoms: C_1  and  C_4 
REMARK    3  A    between atoms: C_1  and  N_13 
REMARK    4  A    between atoms: N_3  and  C_19 
REMARK       I    between atoms: N_13  and  C_20 
REMARK    5  A    between atoms: C_16  and  C_18 
REMARK    6  A    between atoms: C_18  and  C_19 
REMARK    7  A    between atoms: C_19  and  C_20 
ROOT
HETATM    1  O           1     -21.788  -3.100  -7.769  0.00  0.00    -0.271 OA
HETATM    2  H           1     -22.498  -6.155  -7.747  0.00  0.00     0.163 HD
HETATM    3  N           1     -22.054  -5.294  -7.454  0.00  0.00    -0.344 N 
HETATM    4  C           1     -22.317  -4.127  -8.119  0.00  0.00     0.249 C 
ENDROOT
BRANCH   4   5
HETATM    5  C           1     -23.269  -4.124  -9.290  0.00  0.00     0.278 C 
BRANCH   5   6
HETATM    6  N           1     -24.516  -3.378  -8.919  0.00  0.00    -0.066 N 
HETATM    7  H           1     -25.352  -3.962  -9.143  0.00  0.00     0.275 HD
HETATM    8  H           1     -24.504  -3.166  -7.896  0.00  0.00     0.275 HD
HETATM    9  H           1     -24.560  -2.484  -9.460  0.00  0.00     0.275 HD
ENDBRANCH   5   6
BRANCH   5  10
HETATM   10  C           1     -22.606  -3.445 -10.482  0.00  0.00     0.021 C 
HETATM   11  C           1     -21.595  -4.394 -11.109  0.00  0.00     0.012 C 
BRANCH  10  12
HETATM   12  C           1     -23.668  -3.081 -11.511  0.00  0.00     0.002 C 
HETATM   13  C           1     -23.001  -2.795 -12.850  0.00  0.00     0.005 C 
ENDBRANCH  10  12
ENDBRANCH   5  10
ENDBRANCH   4   5
BRANCH   3  14
HETATM   14  C           1     -21.140  -5.296  -6.328  0.00  0.00     0.189 C 
BRANCH  14  15
HETATM   15  C           1     -21.615  -6.304  -5.291  0.00  0.00     0.010 C 
HETATM   16  C           1     -21.075  -5.916  -3.921  0.00  0.00     0.012 C 
HETATM   17  C           1     -23.138  -6.313  -5.254  0.00  0.00     0.012 C 
ENDBRANCH  14  15
BRANCH  14  18
HETATM   18  C           1     -19.759  -5.676  -6.803  0.00  0.00     0.197 C 
HETATM   19  O           1     -19.439  -6.881  -6.894  0.00  0.00    -0.646 OA
HETATM   20  O           1     -18.935  -4.786  -7.106  0.00  0.00    -0.646 OA
ENDBRANCH  14  18
ENDBRANCH   3  14
TORSDOF 7
ENDMDL
MODEL 3
REMARK VINA RESULT:      -5.6      2.827      6.505
REMARK  7 active torsions:
REMARK  status: ('A' for Active; 'I' for Inactive)
REMARK    1  A    between atoms: C_1  and  C_7 
REMARK    2  A    between atoms: C_1  and  C_4 
REMARK    3  A    between atoms: C_1  and  N_13 
REMARK    4  A    between atoms: N_3  and  C_19 
REMARK       I    between atoms: N_13  and  C_20 
REMARK    5  A    between atoms: C_16  and  C_18 
REMARK    6  A    between atoms: C_18  and  C_19 
REMARK    7  A    between atoms: C_19  and  C_20 
ROOT
HETATM    1  O           1     -22.846  -5.775  -5.681  0.00  0.00    -0.271 OA
HETATM    2  H           1     -19.876  -6.290  -4.809  0.00  0.00     0.163 HD
HETATM    3  N           1     -20.882  -6.409  -4.828  0.00  0.00    -0.344 N 
HETATM    4  C           1     -21.647  -5.634  -5.657  0.00  0.00     0.249 C 
ENDROOT
BRANCH   4   5
HETATM    5  C           1     -20.992  -4.601  -6.541  0.00  0.00     0.278 C 
BRANCH   5   6
HETATM    6  N           1     -19.503  -4.671  -6.372  0.00  0.00    -0.066 N 
HETATM    7  H           1     -19.257  -4.506  -5.370  0.00  0.00     0.275 HD
HETATM    8  H           1     -19.164  -5.616  -6.662  0.00  0.00     0.275 HD
HETATM    9  H           1     -19.050  -3.941  -6.968  0.00  0.00     0.275 HD
ENDBRANCH   5   6
BRANCH   5  10
HETATM   10  C           1     -21.350  -4.876  -7.996  0.00  0.00     0.021 C 
HETATM   11  C           1     -22.344  -3.829  -8.481  0.00  0.00     0.012 C 
BRANCH  10  12
HETATM   12  C           1     -20.090  -4.814  -8.849  0.00  0.00     0.002 C 
HETATM   13  C           1     -20.453  -4.379 -10.262  0.00  0.00     0.005 C 
ENDBRANCH  10  12
ENDBRANCH   5  10
ENDBRANCH   4   5
BRANCH   3  14
HETATM   14  C           1     -21.511  -7.401  -3.978  0.00  0.00     0.189 C 
BRANCH  14  15
HETATM   15  C           1     -20.675  -8.674  -3.979  0.00  0.00     0.010 C 
HETATM   16  C           1     -21.560  -9.863  -4.327  0.00  0.00     0.012 C 
HETATM   17  C           1     -19.562  -8.548  -5.012  0.00  0.00     0.012 C 
ENDBRANCH  14  15
BRANCH  14  18
HETATM   18  C           1     -21.613  -6.866  -2.572  0.00  0.00     0.197 C 
HETATM   19  O           1     -22.398  -5.927  -2.315  0.00  0.00    -0.646 OA
HETATM   20  O           1     -20.913  -7.361  -1.662  0.00  0.00    -0.646 OA
ENDBRANCH  14  18
ENDBRANCH   3  14
TORSDOF 7
ENDMDL
MODEL 4
REMARK VINA RESULT:      -5.5      2.088      2.763
REMARK  7 active torsions:
REMARK  status: ('A' for Active; 'I' for Inactive)
REMARK    1  A    between atoms: C_1  and  C_7 
REMARK    2  A    between atoms: C_1  and  C_4 
REMARK    3  A    between atoms: C_1  and  N_13 
REMARK    4  A    between atoms: N_3  and  C_19 
REMARK       I    between atoms: N_13  and  C_20 
REMARK    5  A    between atoms: C_16  and  C_18 
REMARK    6  A    between atoms: C_18  and  C_19 
REMARK    7  A    between atoms: C_19  and  C_20 
ROOT
HETATM    1  O           1     -21.297  -5.737  -8.753  0.00  0.00    -0.271 OA
HETATM    2  H           1     -22.954  -3.080  -8.944  0.00  0.00     0.163 HD
HETATM    3  N           1     -22.437  -3.888  -9.269  0.00  0.00    -0.344 N 
HETATM    4  C           1     -21.914  -4.774  -8.366  0.00  0.00     0.249 C 
ENDROOT
BRANCH   4   5
HETATM    5  C           1     -22.106  -4.546  -6.887  0.00  0.00     0.278 C 
BRANCH   5   6
HETATM    6  N           1     -23.546  -4.766  -6.530  0.00  0.00    -0.066 N 
HETATM    7  H           1     -23.611  -5.141  -5.557  0.00  0.00     0.275 HD
HETATM    8  H           1     -24.062  -3.859  -6.589  0.00  0.00     0.275 HD
HETATM    9  H           1     -23.968  -5.451  -7.197  0.00  0.00     0.275 HD
ENDBRANCH   5   6
BRANCH   5  10
HETATM   10  C           1     -21.235  -5.520  -6.105  0.00  0.00     0.021 C 
HETATM   11  C           1     -20.140  -4.751  -5.377  0.00  0.00     0.012 C 
BRANCH  10  12
HETATM   12  C           1     -22.093  -6.264  -5.091  0.00  0.00     0.002 C 
HETATM   13  C           1     -21.414  -6.231  -3.728  0.00  0.00     0.005 C 
ENDBRANCH  10  12
ENDBRANCH   5  10
ENDBRANCH   4   5
BRANCH   3  14
HETATM   14  C           1     -22.253  -4.107 -10.690  0.00  0.00     0.189 C 
BRANCH  14  15
HETATM   15  C           1     -23.388  -3.444 -11.458  0.00  0.00     0.010 C 
HETATM   16  C           1     -23.761  -4.305 -12.657  0.00  0.00     0.012 C 
HETATM   17  C           1     -24.598  -3.294 -10.543  0.00  0.00     0.012 C 
ENDBRANCH  14  15
BRANCH  14  18
HETATM   18  C           1     -20.936  -3.511 -11.124  0.00  0.00     0.197 C 
HETATM   19  O           1     -19.939  -4.247 -11.284  0.00  0.00    -0.646 OA
HETATM   20  O           1     -20.843  -2.280 -11.322  0.00  0.00    -0.646 OA
ENDBRANCH  14  18
ENDBRANCH   3  14
TORSDOF 7
ENDMDL
MODEL 5
REMARK VINA RESULT:      -5.4      5.484      7.672
REMARK  7 active torsions:
REMARK  status: ('A' for Active; 'I' for Inactive)
REMARK    1  A    between atoms: C_1  and  C_7 
REMARK    2  A    between atoms: C_1  and  C_4 
REMARK    3  A    between atoms: C_1  and  N_13 
REMARK    4  A    between atoms: N_3  and  C_19 
REMARK       I    between atoms: N_13  and  C_20 
REMARK    5  A    between atoms: C_16  and  C_18 
REMARK    6  A    between atoms: C_18  and  C_19 
REMARK    7  A    between atoms: C_19  and  C_20 
ROOT
HETATM    1  O           1     -22.356 -10.584  -3.844  0.00  0.00    -0.271 OA
HETATM    2  H           1     -20.732  -8.482  -2.176  0.00  0.00     0.163 HD
HETATM    3  N           1     -21.164  -8.900  -2.990  0.00  0.00    -0.344 N 
HETATM    4  C           1     -21.841 -10.085  -2.873  0.00  0.00     0.249 C 
ENDROOT
BRANCH   4   5
HETATM    5  C           1     -21.942 -10.766  -1.531  0.00  0.00     0.278 C 
BRANCH   5   6
HETATM    6  N           1     -20.632 -10.646  -0.810  0.00  0.00    -0.066 N 
HETATM    7  H           1     -20.805 -10.387   0.188  0.00  0.00     0.275 HD
HETATM    8  H           1     -20.128 -11.561  -0.849  0.00  0.00     0.275 HD
HETATM    9  H           1     -20.050  -9.907  -1.266  0.00  0.00     0.275 HD
ENDBRANCH   5   6
BRANCH   5  10
HETATM   10  C           1     -23.038 -10.103  -0.705  0.00  0.00     0.021 C 
HETATM   11  C           1     -23.929 -11.174  -0.091  0.00  0.00     0.012 C 
BRANCH  10  12
HETATM   12  C           1     -22.404  -9.273   0.403  0.00  0.00     0.002 C 
HETATM   13  C           1     -23.126  -7.937   0.515  0.00  0.00     0.005 C 
ENDBRANCH  10  12
ENDBRANCH   5  10
ENDBRANCH   4   5
BRANCH   3  14
HETATM   14  C           1     -21.067  -8.246  -4.281  0.00  0.00     0.189 C 
BRANCH  14  15
HETATM   15  C           1     -21.345  -6.758  -4.117  0.00  0.00     0.010 C 
HETATM   16  C           1     -22.450  -6.340  -5.078  0.00  0.00     0.012 C 
HETATM   17  C           1     -21.784  -6.480  -2.685  0.00  0.00     0.012 C 
ENDBRANCH  14  15
BRANCH  14  18
HETATM   18  C           1     -19.678  -8.440  -4.839  0.00  0.00     0.197 C 
HETATM   19  O           1     -18.784  -8.948  -4.128  0.00  0.00    -0.646 OA
HETATM   20  O           1     -19.422  -8.092  -6.011  0.00  0.00    -0.646 OA
ENDBRANCH  14  18
ENDBRANCH   3  14
TORSDOF 7
ENDMDL
MODEL 6
REMARK VINA RESULT:      -5.2      5.780      8.844
REMARK  7 active torsions:
REMARK  status: ('A' for Active; 'I' for Inactive)
REMARK    1  A    between atoms: C_1  and  C_7 
REMARK    2  A    between atoms: C_1  and  C_4 
REMARK    3  A    between atoms: C_1  and  N_13 
REMARK    4  A    between atoms: N_3  and  C_19 
REMARK       I    between atoms: N_13  and  C_20 
REMARK    5  A    between atoms: C_16  and  C_18 
REMARK    6  A    between atoms: C_18  and  C_19 
REMARK    7  A    between atoms: C_19  and  C_20 
ROOT
HETATM    1  O           1     -19.863  -9.738  -2.457  0.00  0.00    -0.271 OA
HETATM    2  H           1     -22.676  -8.352  -2.382  0.00  0.00     0.163 HD
HETATM    3  N           1     -21.924  -8.963  -2.088  0.00  0.00    -0.344 N 
HETATM    4  C           1     -20.760  -9.009  -2.806  0.00  0.00     0.249 C 
ENDROOT
BRANCH   4   5
HETATM    5  C           1     -20.598  -8.150  -4.036  0.00  0.00     0.278 C 
BRANCH   5   6
HETATM    6  N           1     -20.778  -8.995  -5.263  0.00  0.00    -0.066 N 
HETATM    7  H           1     -21.783  -8.986  -5.548  0.00  0.00     0.275 HD
HETATM    8  H           1     -20.192  -8.611  -6.039  0.00  0.00     0.275 HD
HETATM    9  H           1     -20.482  -9.976  -5.056  0.00  0.00     0.275 HD
ENDBRANCH   5   6
BRANCH   5  10
HETATM   10  C           1     -21.644  -7.043  -4.025  0.00  0.00     0.021 C 
HETATM   11  C           1     -21.215  -5.949  -3.057  0.00  0.00     0.012 C 
BRANCH  10  12
HETATM   12  C           1     -21.778  -6.459  -5.425  0.00  0.00     0.002 C 
HETATM   13  C           1     -20.782  -5.319  -5.598  0.00  0.00     0.005 C 
ENDBRANCH  10  12
ENDBRANCH   5  10
ENDBRANCH   4   5
BRANCH   3  14
HETATM   14  C           1     -22.080  -9.788  -0.906  0.00  0.00     0.189 C 
BRANCH  14  15
HETATM   15  C           1     -22.352  -8.900   0.300  0.00  0.00     0.010 C 
HETATM   16  C           1     -21.093  -8.800   1.151  0.00  0.00     0.012 C 
HETATM   17  C           1     -22.757  -7.510  -0.175  0.00  0.00     0.012 C 
ENDBRANCH  14  15
BRANCH  14  18
HETATM   18  C           1     -23.236 -10.737  -1.104  0.00  0.00     0.197 C 
HETATM   19  O           1     -23.334 -11.390  -2.166  0.00  0.00    -0.646 OA
HETATM   20  O           1     -24.097 -10.869  -0.208  0.00  0.00    -0.646 OA
ENDBRANCH  14  18
ENDBRANCH   3  14
TORSDOF 7
ENDMDL
MODEL 7
REMARK VINA RESULT:      -5.1      7.131      8.862
REMARK  7 active torsions:
REMARK  status: ('A' for Active; 'I' for Inactive)
REMARK    1  A    between atoms: C_1  and  C_7 
REMARK    2  A    between atoms: C_1  and  C_4 
REMARK    3  A    between atoms: C_1  and  N_13 
REMARK    4  A    between atoms: N_3  and  C_19 
REMARK       I    between atoms: N_13  and  C_20 
REMARK    5  A    between atoms: C_16  and  C_18 
REMARK    6  A    between atoms: C_18  and  C_19 
REMARK    7  A    between atoms: C_19  and  C_20 
ROOT
HETATM    1  O           1     -21.026 -10.303  -2.800  0.00  0.00    -0.271 OA
HETATM    2  H           1     -19.606  -8.179  -0.979  0.00  0.00     0.163 HD
HETATM    3  N           1     -20.365  -8.636  -1.470  0.00  0.00    -0.344 N 
HETATM    4  C           1     -20.121  -9.758  -2.214  0.00  0.00     0.249 C 
ENDROOT
BRANCH   4   5
HETATM    5  C           1     -18.722 -10.315  -2.305  0.00  0.00     0.278 C 
BRANCH   5   6
HETATM    6  N           1     -18.768 -11.687  -2.909  0.00  0.00    -0.066 N 
HETATM    7  H           1     -19.746 -12.052  -2.874  0.00  0.00     0.275 HD
HETATM    8  H           1     -18.450 -11.640  -3.904  0.00  0.00     0.275 HD
HETATM    9  H           1     -18.138 -12.325  -2.372  0.00  0.00     0.275 HD
ENDBRANCH   5   6
BRANCH   5  10
HETATM   10  C           1     -17.867  -9.404  -3.177  0.00  0.00     0.021 C 
HETATM   11  C           1     -16.400  -9.578  -2.809  0.00  0.00     0.012 C 
BRANCH  10  12
HETATM   12  C           1     -18.070  -9.771  -4.641  0.00  0.00     0.002 C 
HETATM   13  C           1     -16.715  -9.935  -5.317  0.00  0.00     0.005 C 
ENDBRANCH  10  12
ENDBRANCH   5  10
ENDBRANCH   4   5
BRANCH   3  14
HETATM   14  C           1     -21.710  -8.101  -1.383  0.00  0.00     0.189 C 
BRANCH  14  15
HETATM   15  C           1     -22.044  -7.803   0.072  0.00  0.00     0.010 C 
HETATM   16  C           1     -23.451  -8.299   0.381  0.00  0.00     0.012 C 
HETATM   17  C           1     -21.045  -8.513   0.977  0.00  0.00     0.012 C 
ENDBRANCH  14  15
BRANCH  14  18
HETATM   18  C           1     -21.797  -6.829  -2.190  0.00  0.00     0.197 C 
HETATM   19  O           1     -21.230  -6.754  -3.302  0.00  0.00    -0.646 OA
HETATM   20  O           1     -22.436  -5.851  -1.748  0.00  0.00    -0.646 OA
ENDBRANCH  14  18
ENDBRANCH   3  14
TORSDOF 7
ENDMDL
MODEL 8
REMARK VINA RESULT:      -5.1     18.216     20.160
REMARK  7 active torsions:
REMARK  status: ('A' for Active; 'I' for Inactive)
REMARK    1  A    between atoms: C_1  and  C_7 
REMARK    2  A    between atoms: C_1  and  C_4 
REMARK    3  A    between atoms: C_1  and  N_13 
REMARK    4  A    between atoms: N_3  and  C_19 
REMARK       I    between atoms: N_13  and  C_20 
REMARK    5  A    between atoms: C_16  and  C_18 
REMARK    6  A    between atoms: C_18  and  C_19 
REMARK    7  A    between atoms: C_19  and  C_20 
ROOT
HETATM    1  O           1     -13.428   6.607 -19.791  0.00  0.00    -0.271 OA
HETATM    2  H           1     -11.568   7.469 -22.165  0.00  0.00     0.163 HD
HETATM    3  N           1     -12.069   7.552 -21.289  0.00  0.00    -0.344 N 
HETATM    4  C           1     -12.831   6.509 -20.835  0.00  0.00     0.249 C 
ENDROOT
BRANCH   4   5
HETATM    5  C           1     -12.925   5.237 -21.641  0.00  0.00     0.278 C 
BRANCH   5   6
HETATM    6  N           1     -11.831   5.214 -22.668  0.00  0.00    -0.066 N 
HETATM    7  H           1     -11.746   6.157 -23.108  0.00  0.00     0.275 HD
HETATM    8  H           1     -10.927   4.961 -22.207  0.00  0.00     0.275 HD
HETATM    9  H           1     -12.058   4.505 -23.402  0.00  0.00     0.275 HD
ENDBRANCH   5   6
BRANCH   5  10
HETATM   10  C           1     -12.778   4.036 -20.716  0.00  0.00     0.021 C 
HETATM   11  C           1     -13.337   2.796 -21.400  0.00  0.00     0.012 C 
BRANCH  10  12
HETATM   12  C           1     -11.304   3.820 -20.398  0.00  0.00     0.002 C 
HETATM   13  C           1     -10.936   2.365 -20.656  0.00  0.00     0.005 C 
ENDBRANCH  10  12
ENDBRANCH   5  10
ENDBRANCH   4   5
BRANCH   3  14
HETATM   14  C           1     -11.978   8.774 -20.515  0.00  0.00     0.189 C 
BRANCH  14  15
HETATM   15  C           1     -10.518   9.069 -20.201  0.00  0.00     0.010 C 
HETATM   16  C           1     -10.306   9.034 -18.693  0.00  0.00     0.012 C 
HETATM   17  C           1      -9.635   8.018 -20.864  0.00  0.00     0.012 C 
ENDBRANCH  14  15
BRANCH  14  18
HETATM   18  C           1     -12.563   9.916 -21.309  0.00  0.00     0.197 C 
HETATM   19  O           1     -13.726   9.833 -21.759  0.00  0.00    -0.646 OA
HETATM   20  O           1     -11.885  10.945 -21.516  0.00  0.00    -0.646 OA
ENDBRANCH  14  18
ENDBRANCH   3  14
TORSDOF 7
ENDMDL
MODEL 9
REMARK VINA RESULT:      -5.1     17.542     19.907
REMARK  7 active torsions:
REMARK  status: ('A' for Active; 'I' for Inactive)
REMARK    1  A    between atoms: C_1  and  C_7 
REMARK    2  A    between atoms: C_1  and  C_4 
REMARK    3  A    between atoms: C_1  and  N_13 
REMARK    4  A    between atoms: N_3  and  C_19 
REMARK       I    between atoms: N_13  and  C_20 
REMARK    5  A    between atoms: C_16  and  C_18 
REMARK    6  A    between atoms: C_18  and  C_19 
REMARK    7  A    between atoms: C_19  and  C_20 
ROOT
HETATM    1  O           1     -11.163   6.227 -22.173  0.00  0.00    -0.271 OA
HETATM    2  H           1     -12.162   5.435 -19.307  0.00  0.00     0.163 HD
HETATM    3  N           1     -12.139   5.456 -20.319  0.00  0.00    -0.344 N 
HETATM    4  C           1     -11.190   6.201 -20.967  0.00  0.00     0.249 C 
ENDROOT
BRANCH   4   5
HETATM    5  C           1     -10.180   6.991 -20.172  0.00  0.00     0.278 C 
BRANCH   5   6
HETATM    6  N           1      -8.796   6.631 -20.625  0.00  0.00    -0.066 N 
HETATM    7  H           1      -8.663   5.597 -20.550  0.00  0.00     0.275 HD
HETATM    8  H           1      -8.666   6.927 -21.618  0.00  0.00     0.275 HD
HETATM    9  H           1      -8.095   7.117 -20.021  0.00  0.00     0.275 HD
ENDBRANCH   5   6
BRANCH   5  10
HETATM   10  C           1     -10.413   8.481 -20.391  0.00  0.00     0.021 C 
HETATM   11  C           1     -10.499   9.184 -19.043  0.00  0.00     0.012 C 
BRANCH  10  12
HETATM   12  C           1      -9.257   9.061 -21.194  0.00  0.00     0.002 C 
HETATM   13  C           1      -9.765   9.532 -22.550  0.00  0.00     0.005 C 
ENDBRANCH  10  12
ENDBRANCH   5  10
ENDBRANCH   4   5
BRANCH   3  14
HETATM   14  C           1     -13.110   4.697 -21.083  0.00  0.00     0.189 C 
BRANCH  14  15
HETATM   15  C           1     -12.996   3.222 -20.724  0.00  0.00     0.010 C 
HETATM   16  C           1     -13.832   2.398 -21.694  0.00  0.00     0.012 C 
HETATM   17  C           1     -11.538   2.789 -20.815  0.00  0.00     0.012 C 
ENDBRANCH  14  15
BRANCH  14  18
HETATM   18  C           1     -14.499   5.188 -20.758  0.00  0.00     0.197 C 
HETATM   19  O           1     -15.280   5.510 -21.681  0.00  0.00    -0.646 OA
HETATM   20  O           1     -14.870   5.273 -19.568  0.00  0.00    -0.646 OA
ENDBRANCH  14  18
ENDBRANCH   3  14
TORSDOF 7
ENDMDL
