MODEL 1
REMARK VINA RESULT:      -7.9      0.000      0.000
REMARK  11 active torsions:
REMARK  status: ('A' for Active; 'I' for Inactive)
REMARK    1  A    between atoms: C_5  and  O_6 
REMARK    2  A    between atoms: C_5  and  C_7 
REMARK    3  A    between atoms: C_7  and  C_8 
REMARK    4  A    between atoms: C_7  and  N_11 
REMARK       I    between atoms: N_11  and  C_12 
REMARK    5  A    between atoms: C_12  and  C_13 
REMARK    6  A    between atoms: C_13  and  C_14 
REMARK    7  A    between atoms: C_13  and  N_26 
REMARK    8  A    between atoms: C_14  and  C_15 
REMARK    9  A    between atoms: C_18  and  O_19 
REMARK   10  A    between atoms: O_19  and  P_20 
REMARK   11  A    between atoms: P_20  and  O_21 
ROOT
HETATM    1  C           1     -20.965  -4.902  -6.378  0.00  0.00     0.278 C 
ENDROOT
BRANCH   1   2
HETATM    2  C           1     -21.660  -5.899  -5.484  0.00  0.00     0.249 C 
HETATM    3  N           1     -20.926  -6.818  -4.783  0.00  0.00    -0.343 N 
HETATM    4  H           1     -19.918  -6.828  -4.864  0.00  0.00     0.163 HD
HETATM    5  O           1     -22.864  -5.888  -5.387  0.00  0.00    -0.271 OA
BRANCH   3   6
HETATM    6  C           1     -21.594  -7.777  -3.923  0.00  0.00     0.214 C 
BRANCH   6   7
HETATM    7  C           1     -21.015  -9.164  -4.165  0.00  0.00     0.147 C 
HETATM    8  C           1     -22.046 -10.219  -3.786  0.00  0.00     0.042 C 
BRANCH   7   9
HETATM    9  O           1     -20.683  -9.303  -5.520  0.00  0.00    -0.393 OA
HETATM   10  H           1     -20.479  -8.441  -5.842  0.00  0.00     0.210 HD
ENDBRANCH   7   9
ENDBRANCH   6   7
BRANCH   6  11
HETATM   11  C           1     -21.384  -7.390  -2.480  0.00  0.00     0.199 C 
HETATM   12  O           1     -22.195  -6.623  -1.915  0.00  0.00    -0.646 OA
HETATM   13  O           1     -20.400  -7.834  -1.850  0.00  0.00    -0.646 OA
ENDBRANCH   6  11
ENDBRANCH   3   6
ENDBRANCH   1   2
BRANCH   1  14
HETATM   14  C           1     -20.637  -5.558  -7.713  0.00  0.00     0.081 C 
BRANCH  14  15
HETATM   15  C           1     -21.231  -4.751  -8.825  0.00  0.00    -0.056 A 
HETATM   16  C           1     -20.463  -4.432  -9.944  0.00  0.00     0.010 A 
HETATM   17  C           1     -21.017  -3.681 -10.981  0.00  0.00     0.038 A 
HETATM   18  C           1     -22.340  -3.249 -10.898  0.00  0.00     0.081 A 
HETATM   19  C           1     -23.110  -3.569  -9.779  0.00  0.00     0.038 A 
HETATM   20  C           1     -22.555  -4.320  -8.743  0.00  0.00     0.010 A 
BRANCH  18  21
HETATM   21  O           1     -22.879  -2.519 -11.905  0.00  0.00    -0.247 OA
BRANCH  21  22
HETATM   22  P           1     -23.904  -3.257 -12.911  0.00  0.00     0.411 P 
HETATM   23  O           1     -25.294  -2.915 -12.535  0.00  0.00    -0.624 OA
HETATM   24  O           1     -23.643  -2.810 -14.298  0.00  0.00    -0.624 OA
BRANCH  22  25
HETATM   25  O           1     -23.698  -4.856 -12.814  0.00  0.00    -0.300 OA
HETATM   26  H           1     -24.517  -5.187 -12.487  0.00  0.00     0.223 HD
ENDBRANCH  22  25
ENDBRANCH  21  22
ENDBRANCH  18  21
ENDBRANCH  14  15
ENDBRANCH   1  14
BRANCH   1  27
HETATM   27  N           1     -19.698  -4.442  -5.723  0.00  0.00    -0.066 N 
HETATM   28  H           1     -18.898  -4.569  -6.384  0.00  0.00     0.275 HD
HETATM   29  H           1     -19.528  -5.005  -4.859  0.00  0.00     0.275 HD
HETATM   30  H           1     -19.782  -3.432  -5.469  0.00  0.00     0.275 HD
ENDBRANCH   1  27
TORSDOF 11
ENDMDL
MODEL 2
REMARK VINA RESULT:      -7.6      1.469      2.473
REMARK  11 active torsions:
REMARK  status: ('A' for Active; 'I' for Inactive)
REMARK    1  A    between atoms: C_5  and  O_6 
REMARK    2  A    between atoms: C_5  and  C_7 
REMARK    3  A    between atoms: C_7  and  C_8 
REMARK    4  A    between atoms: C_7  and  N_11 
REMARK       I    between atoms: N_11  and  C_12 
REMARK    5  A    between atoms: C_12  and  C_13 
REMARK    6  A    between atoms: C_13  and  C_14 
REMARK    7  A    between atoms: C_13  and  N_26 
REMARK    8  A    between atoms: C_14  and  C_15 
REMARK    9  A    between atoms: C_18  and  O_19 
REMARK   10  A    between atoms: O_19  and  P_20 
REMARK   11  A    between atoms: P_20  and  O_21 
ROOT
HETATM    1  C           1     -21.792  -4.712  -7.106  0.00  0.00     0.278 C 
ENDROOT
BRANCH   1   2
HETATM    2  C           1     -21.040  -5.348  -5.964  0.00  0.00     0.249 C 
HETATM    3  N           1     -21.592  -6.398  -5.280  0.00  0.00    -0.343 N 
HETATM    4  H           1     -22.506  -6.746  -5.541  0.00  0.00     0.163 HD
HETATM    5  O           1     -19.949  -4.932  -5.652  0.00  0.00    -0.271 OA
BRANCH   3   6
HETATM    6  C           1     -20.869  -7.010  -4.182  0.00  0.00     0.214 C 
BRANCH   6   7
HETATM    7  C           1     -21.793  -7.147  -2.979  0.00  0.00     0.147 C 
HETATM    8  C           1     -21.006  -7.686  -1.792  0.00  0.00     0.042 C 
BRANCH   7   9
HETATM    9  O           1     -22.326  -5.891  -2.653  0.00  0.00    -0.393 OA
HETATM   10  H           1     -22.212  -5.778  -1.725  0.00  0.00     0.210 HD
ENDBRANCH   7   9
ENDBRANCH   6   7
BRANCH   6  11
HETATM   11  C           1     -20.383  -8.376  -4.599  0.00  0.00     0.199 C 
HETATM   12  O           1     -19.171  -8.666  -4.495  0.00  0.00    -0.646 OA
HETATM   13  O           1     -21.191  -9.216  -5.050  0.00  0.00    -0.646 OA
ENDBRANCH   6  11
ENDBRANCH   3   6
ENDBRANCH   1   2
BRANCH   1  14
HETATM   14  C           1     -21.275  -5.265  -8.427  0.00  0.00     0.081 C 
BRANCH  14  15
HETATM   15  C           1     -21.766  -4.410  -9.553  0.00  0.00    -0.056 A 
HETATM   16  C           1     -23.129  -4.159  -9.697  0.00  0.00     0.010 A 
HETATM   17  C           1     -23.587  -3.361 -10.746  0.00  0.00     0.038 A 
HETATM   18  C           1     -22.678  -2.813 -11.651  0.00  0.00     0.081 A 
HETATM   19  C           1     -21.313  -3.062 -11.507  0.00  0.00     0.038 A 
HETATM   20  C           1     -20.857  -3.861 -10.458  0.00  0.00     0.010 A 
BRANCH  18  21
HETATM   21  O           1     -23.122  -2.038 -12.670  0.00  0.00    -0.247 OA
BRANCH  21  22
HETATM   22  P           1     -23.428  -2.750 -14.087  0.00  0.00     0.411 P 
HETATM   23  O           1     -24.287  -3.935 -13.866  0.00  0.00    -0.624 OA
HETATM   24  O           1     -24.122  -1.795 -14.980  0.00  0.00    -0.624 OA
BRANCH  22  25
HETATM   25  O           1     -22.039  -3.213 -14.770  0.00  0.00    -0.300 OA
HETATM   26  H           1     -21.372  -2.980 -14.147  0.00  0.00     0.223 HD
ENDBRANCH  22  25
ENDBRANCH  21  22
ENDBRANCH  18  21
ENDBRANCH  14  15
ENDBRANCH   1  14
BRANCH   1  27
HETATM   27  N           1     -21.588  -3.227  -7.072  0.00  0.00    -0.066 N 
HETATM   28  H           1     -20.832  -2.994  -6.390  0.00  0.00     0.275 HD
HETATM   29  H           1     -22.476  -2.759  -6.781  0.00  0.00     0.275 HD
HETATM   30  H           1     -21.313  -2.890  -8.023  0.00  0.00     0.275 HD
ENDBRANCH   1  27
TORSDOF 11
ENDMDL
MODEL 3
REMARK VINA RESULT:      -7.3      3.434      8.958
REMARK  11 active torsions:
REMARK  status: ('A' for Active; 'I' for Inactive)
REMARK    1  A    between atoms: C_5  and  O_6 
REMARK    2  A    between atoms: C_5  and  C_7 
REMARK    3  A    between atoms: C_7  and  C_8 
REMARK    4  A    between atoms: C_7  and  N_11 
REMARK       I    between atoms: N_11  and  C_12 
REMARK    5  A    between atoms: C_12  and  C_13 
REMARK    6  A    between atoms: C_13  and  C_14 
REMARK    7  A    between atoms: C_13  and  N_26 
REMARK    8  A    between atoms: C_14  and  C_15 
REMARK    9  A    between atoms: C_18  and  O_19 
REMARK   10  A    between atoms: O_19  and  P_20 
REMARK   11  A    between atoms: P_20  and  O_21 
ROOT
HETATM    1  C           1     -21.066  -5.635  -7.178  0.00  0.00     0.278 C 
ENDROOT
BRANCH   1   2
HETATM    2  C           1     -21.721  -4.517  -7.951  0.00  0.00     0.249 C 
HETATM    3  N           1     -22.099  -4.714  -9.252  0.00  0.00    -0.343 N 
HETATM    4  H           1     -21.940  -5.610  -9.694  0.00  0.00     0.163 HD
HETATM    5  O           1     -21.910  -3.447  -7.423  0.00  0.00    -0.271 OA
BRANCH   3   6
HETATM    6  C           1     -22.728  -3.640  -9.996  0.00  0.00     0.214 C 
BRANCH   6   7
HETATM    7  C           1     -22.035  -3.482 -11.343  0.00  0.00     0.147 C 
HETATM    8  C           1     -20.589  -3.946 -11.229  0.00  0.00     0.042 C 
BRANCH   7   9
HETATM    9  O           1     -22.699  -4.257 -12.304  0.00  0.00    -0.393 OA
HETATM   10  H           1     -22.087  -4.908 -12.601  0.00  0.00     0.210 HD
ENDBRANCH   7   9
ENDBRANCH   6   7
BRANCH   6  11
HETATM   11  C           1     -24.184  -3.966 -10.216  0.00  0.00     0.199 C 
HETATM   12  O           1     -24.613  -5.113  -9.964  0.00  0.00    -0.646 OA
HETATM   13  O           1     -24.963  -3.089 -10.649  0.00  0.00    -0.646 OA
ENDBRANCH   6  11
ENDBRANCH   3   6
ENDBRANCH   1   2
BRANCH   1  14
HETATM   14  C           1     -20.872  -5.205  -5.730  0.00  0.00     0.081 C 
BRANCH  14  15
HETATM   15  C           1     -21.152  -6.363  -4.823  0.00  0.00    -0.056 A 
HETATM   16  C           1     -21.309  -6.155  -3.453  0.00  0.00     0.010 A 
HETATM   17  C           1     -21.571  -7.234  -2.608  0.00  0.00     0.038 A 
HETATM   18  C           1     -21.677  -8.521  -3.135  0.00  0.00     0.081 A 
HETATM   19  C           1     -21.522  -8.730  -4.506  0.00  0.00     0.038 A 
HETATM   20  C           1     -21.259  -7.650  -5.350  0.00  0.00     0.010 A 
BRANCH  18  21
HETATM   21  O           1     -21.932  -9.569  -2.315  0.00  0.00    -0.247 OA
BRANCH  21  22
HETATM   22  P           1     -20.739 -10.093  -1.361  0.00  0.00     0.411 P 
HETATM   23  O           1     -20.818  -9.407  -0.052  0.00  0.00    -0.624 OA
HETATM   24  O           1     -20.870 -11.554  -1.163  0.00  0.00    -0.624 OA
BRANCH  22  25
HETATM   25  O           1     -19.314  -9.770  -2.052  0.00  0.00    -0.300 OA
HETATM   26  H           1     -19.356  -8.858  -2.280  0.00  0.00     0.223 HD
ENDBRANCH  22  25
ENDBRANCH  21  22
ENDBRANCH  18  21
ENDBRANCH  14  15
ENDBRANCH   1  14
BRANCH   1  27
HETATM   27  N           1     -19.734  -5.952  -7.788  0.00  0.00    -0.066 N 
HETATM   28  H           1     -19.280  -6.724  -7.251  0.00  0.00     0.275 HD
HETATM   29  H           1     -19.126  -5.102  -7.758  0.00  0.00     0.275 HD
HETATM   30  H           1     -19.867  -6.250  -8.781  0.00  0.00     0.275 HD
ENDBRANCH   1  27
TORSDOF 11
ENDMDL
MODEL 4
REMARK VINA RESULT:      -7.1      1.899      2.915
REMARK  11 active torsions:
REMARK  status: ('A' for Active; 'I' for Inactive)
REMARK    1  A    between atoms: C_5  and  O_6 
REMARK    2  A    between atoms: C_5  and  C_7 
REMARK    3  A    between atoms: C_7  and  C_8 
REMARK    4  A    between atoms: C_7  and  N_11 
REMARK       I    between atoms: N_11  and  C_12 
REMARK    5  A    between atoms: C_12  and  C_13 
REMARK    6  A    between atoms: C_13  and  C_14 
REMARK    7  A    between atoms: C_13  and  N_26 
REMARK    8  A    between atoms: C_14  and  C_15 
REMARK    9  A    between atoms: C_18  and  O_19 
REMARK   10  A    between atoms: O_19  and  P_20 
REMARK   11  A    between atoms: P_20  and  O_21 
ROOT
HETATM    1  C           1     -21.469  -6.492  -5.693  0.00  0.00     0.278 C 
ENDROOT
BRANCH   1   2
HETATM    2  C           1     -20.709  -7.783  -5.506  0.00  0.00     0.249 C 
HETATM    3  N           1     -21.284  -8.825  -4.831  0.00  0.00    -0.343 N 
HETATM    4  H           1     -22.220  -8.730  -4.456  0.00  0.00     0.163 HD
HETATM    5  O           1     -19.592  -7.896  -5.953  0.00  0.00    -0.271 OA
BRANCH   3   6
HETATM    6  C           1     -20.554 -10.065  -4.651  0.00  0.00     0.214 C 
BRANCH   6   7
HETATM    7  C           1     -20.618 -10.484  -3.189  0.00  0.00     0.147 C 
HETATM    8  C           1     -19.587  -9.699  -2.389  0.00  0.00     0.042 C 
BRANCH   7   9
HETATM    9  O           1     -21.899 -10.222  -2.682  0.00  0.00    -0.393 OA
HETATM   10  H           1     -22.199 -11.016  -2.274  0.00  0.00     0.210 HD
ENDBRANCH   7   9
ENDBRANCH   6   7
BRANCH   6  11
HETATM   11  C           1     -21.172 -11.141  -5.509  0.00  0.00     0.199 C 
HETATM   12  O           1     -22.049 -11.894  -5.032  0.00  0.00    -0.646 OA
HETATM   13  O           1     -20.807 -11.280  -6.697  0.00  0.00    -0.646 OA
ENDBRANCH   6  11
ENDBRANCH   3   6
ENDBRANCH   1   2
BRANCH   1  14
HETATM   14  C           1     -20.512  -5.400  -6.151  0.00  0.00     0.081 C 
BRANCH  14  15
HETATM   15  C           1     -21.000  -4.817  -7.441  0.00  0.00    -0.056 A 
HETATM   16  C           1     -20.206  -4.890  -8.585  0.00  0.00     0.010 A 
HETATM   17  C           1     -20.661  -4.348  -9.787  0.00  0.00     0.038 A 
HETATM   18  C           1     -21.911  -3.733  -9.844  0.00  0.00     0.081 A 
HETATM   19  C           1     -22.707  -3.661  -8.700  0.00  0.00     0.038 A 
HETATM   20  C           1     -22.251  -4.203  -7.499  0.00  0.00     0.010 A 
BRANCH  18  21
HETATM   21  O           1     -22.354  -3.206 -11.012  0.00  0.00    -0.247 OA
BRANCH  21  22
HETATM   22  P           1     -23.689  -3.834 -11.668  0.00  0.00     0.411 P 
HETATM   23  O           1     -23.696  -3.563 -13.123  0.00  0.00    -0.624 OA
HETATM   24  O           1     -23.712  -5.296 -11.437  0.00  0.00    -0.624 OA
BRANCH  22  25
HETATM   25  O           1     -24.992  -3.162 -10.990  0.00  0.00    -0.300 OA
HETATM   26  H           1     -25.674  -3.251 -11.632  0.00  0.00     0.223 HD
ENDBRANCH  22  25
ENDBRANCH  21  22
ENDBRANCH  18  21
ENDBRANCH  14  15
ENDBRANCH   1  14
BRANCH   1  27
HETATM   27  N           1     -22.098  -6.091  -4.393  0.00  0.00    -0.066 N 
HETATM   28  H           1     -21.624  -6.590  -3.607  0.00  0.00     0.275 HD
HETATM   29  H           1     -23.112  -6.344  -4.404  0.00  0.00     0.275 HD
HETATM   30  H           1     -21.999  -5.059  -4.260  0.00  0.00     0.275 HD
ENDBRANCH   1  27
TORSDOF 11
ENDMDL
MODEL 5
REMARK VINA RESULT:      -7.1      1.778      2.851
REMARK  11 active torsions:
REMARK  status: ('A' for Active; 'I' for Inactive)
REMARK    1  A    between atoms: C_5  and  O_6 
REMARK    2  A    between atoms: C_5  and  C_7 
REMARK    3  A    between atoms: C_7  and  C_8 
REMARK    4  A    between atoms: C_7  and  N_11 
REMARK       I    between atoms: N_11  and  C_12 
REMARK    5  A    between atoms: C_12  and  C_13 
REMARK    6  A    between atoms: C_13  and  C_14 
REMARK    7  A    between atoms: C_13  and  N_26 
REMARK    8  A    between atoms: C_14  and  C_15 
REMARK    9  A    between atoms: C_18  and  O_19 
REMARK   10  A    between atoms: O_19  and  P_20 
REMARK   11  A    between atoms: P_20  and  O_21 
ROOT
HETATM    1  C           1     -21.748  -6.496  -5.198  0.00  0.00     0.278 C 
ENDROOT
BRANCH   1   2
HETATM    2  C           1     -21.380  -7.957  -5.123  0.00  0.00     0.249 C 
HETATM    3  N           1     -21.194  -8.555  -3.906  0.00  0.00    -0.343 N 
HETATM    4  H           1     -21.303  -8.017  -3.056  0.00  0.00     0.163 HD
HETATM    5  O           1     -21.249  -8.600  -6.138  0.00  0.00    -0.271 OA
BRANCH   3   6
HETATM    6  C           1     -20.839  -9.960  -3.834  0.00  0.00     0.214 C 
BRANCH   6   7
HETATM    7  C           1     -19.492 -10.108  -3.140  0.00  0.00     0.147 C 
HETATM    8  C           1     -18.374  -9.828  -4.135  0.00  0.00     0.042 C 
BRANCH   7   9
HETATM    9  O           1     -19.410  -9.197  -2.078  0.00  0.00    -0.393 OA
HETATM   10  H           1     -20.221  -9.258  -1.602  0.00  0.00     0.210 HD
ENDBRANCH   7   9
ENDBRANCH   6   7
BRANCH   6  11
HETATM   11  C           1     -21.892 -10.704  -3.051  0.00  0.00     0.199 C 
HETATM   12  O           1     -21.703 -10.968  -1.843  0.00  0.00    -0.646 OA
HETATM   13  O           1     -22.954 -11.058  -3.609  0.00  0.00    -0.646 OA
ENDBRANCH   6  11
ENDBRANCH   3   6
ENDBRANCH   1   2
BRANCH   1  14
HETATM   14  C           1     -20.605  -5.714  -5.831  0.00  0.00     0.081 C 
BRANCH  14  15
HETATM   15  C           1     -21.078  -5.076  -7.100  0.00  0.00    -0.056 A 
HETATM   16  C           1     -22.343  -4.491  -7.157  0.00  0.00     0.010 A 
HETATM   17  C           1     -22.784  -3.896  -8.339  0.00  0.00     0.038 A 
HETATM   18  C           1     -21.959  -3.885  -9.463  0.00  0.00     0.081 A 
HETATM   19  C           1     -20.694  -4.469  -9.407  0.00  0.00     0.038 A 
HETATM   20  C           1     -20.253  -5.065  -8.224  0.00  0.00     0.010 A 
BRANCH  18  21
HETATM   21  O           1     -22.388  -3.307 -10.612  0.00  0.00    -0.247 OA
BRANCH  21  22
HETATM   22  P           1     -23.640  -3.980 -11.378  0.00  0.00     0.411 P 
HETATM   23  O           1     -23.811  -5.373 -10.911  0.00  0.00    -0.624 OA
HETATM   24  O           1     -24.869  -3.207 -11.091  0.00  0.00    -0.624 OA
BRANCH  22  25
HETATM   25  O           1     -23.363  -3.977 -12.970  0.00  0.00    -0.300 OA
HETATM   26  H           1     -22.990  -4.822 -13.154  0.00  0.00     0.223 HD
ENDBRANCH  22  25
ENDBRANCH  21  22
ENDBRANCH  18  21
ENDBRANCH  14  15
ENDBRANCH   1  14
BRANCH   1  27
HETATM   27  N           1     -22.004  -5.974  -3.816  0.00  0.00    -0.066 N 
HETATM   28  H           1     -21.660  -6.666  -3.112  0.00  0.00     0.275 HD
HETATM   29  H           1     -23.029  -5.824  -3.684  0.00  0.00     0.275 HD
HETATM   30  H           1     -21.500  -5.067  -3.685  0.00  0.00     0.275 HD
ENDBRANCH   1  27
TORSDOF 11
ENDMDL
MODEL 6
REMARK VINA RESULT:      -7.1      1.280      1.966
REMARK  11 active torsions:
REMARK  status: ('A' for Active; 'I' for Inactive)
REMARK    1  A    between atoms: C_5  and  O_6 
REMARK    2  A    between atoms: C_5  and  C_7 
REMARK    3  A    between atoms: C_7  and  C_8 
REMARK    4  A    between atoms: C_7  and  N_11 
REMARK       I    between atoms: N_11  and  C_12 
REMARK    5  A    between atoms: C_12  and  C_13 
REMARK    6  A    between atoms: C_13  and  C_14 
REMARK    7  A    between atoms: C_13  and  N_26 
REMARK    8  A    between atoms: C_14  and  C_15 
REMARK    9  A    between atoms: C_18  and  O_19 
REMARK   10  A    between atoms: O_19  and  P_20 
REMARK   11  A    between atoms: P_20  and  O_21 
ROOT
HETATM    1  C           1     -20.426  -5.520  -6.021  0.00  0.00     0.278 C 
ENDROOT
BRANCH   1   2
HETATM    2  C           1     -21.371  -6.165  -5.037  0.00  0.00     0.249 C 
HETATM    3  N           1     -20.876  -6.829  -3.947  0.00  0.00    -0.343 N 
HETATM    4  H           1     -19.876  -6.887  -3.802  0.00  0.00     0.163 HD
HETATM    5  O           1     -22.565  -6.096  -5.210  0.00  0.00    -0.271 OA
BRANCH   3   6
HETATM    6  C           1     -21.783  -7.449  -3.000  0.00  0.00     0.214 C 
BRANCH   6   7
HETATM    7  C           1     -21.122  -8.679  -2.394  0.00  0.00     0.147 C 
HETATM    8  C           1     -21.920  -9.922  -2.769  0.00  0.00     0.042 C 
BRANCH   7   9
HETATM    9  O           1     -19.815  -8.798  -2.887  0.00  0.00    -0.393 OA
HETATM   10  H           1     -19.312  -8.103  -2.500  0.00  0.00     0.210 HD
ENDBRANCH   7   9
ENDBRANCH   6   7
BRANCH   6  11
HETATM   11  C           1     -22.115  -6.466  -1.905  0.00  0.00     0.199 C 
HETATM   12  O           1     -21.785  -5.266  -2.021  0.00  0.00    -0.646 OA
HETATM   13  O           1     -22.720  -6.852  -0.880  0.00  0.00    -0.646 OA
ENDBRANCH   6  11
ENDBRANCH   3   6
ENDBRANCH   1   2
BRANCH   1  14
HETATM   14  C           1     -20.984  -4.170  -6.451  0.00  0.00     0.081 C 
BRANCH  14  15
HETATM   15  C           1     -21.499  -4.265  -7.853  0.00  0.00    -0.056 A 
HETATM   16  C           1     -22.865  -4.423  -8.085  0.00  0.00     0.010 A 
HETATM   17  C           1     -23.346  -4.511  -9.392  0.00  0.00     0.038 A 
HETATM   18  C           1     -22.459  -4.442 -10.466  0.00  0.00     0.081 A 
HETATM   19  C           1     -21.092  -4.284 -10.235  0.00  0.00     0.038 A 
HETATM   20  C           1     -20.613  -4.195  -8.928  0.00  0.00     0.010 A 
BRANCH  18  21
HETATM   21  O           1     -22.926  -4.528 -11.736  0.00  0.00    -0.247 OA
BRANCH  21  22
HETATM   22  P           1     -23.848  -3.322 -12.287  0.00  0.00     0.411 P 
HETATM   23  O           1     -24.307  -3.641 -13.657  0.00  0.00    -0.624 OA
HETATM   24  O           1     -25.020  -3.152 -11.400  0.00  0.00    -0.624 OA
BRANCH  22  25
HETATM   25  O           1     -22.989  -1.954 -12.312  0.00  0.00    -0.300 OA
HETATM   26  H           1     -22.108  -2.216 -12.107  0.00  0.00     0.223 HD
ENDBRANCH  22  25
ENDBRANCH  21  22
ENDBRANCH  18  21
ENDBRANCH  14  15
ENDBRANCH   1  14
BRANCH   1  27
HETATM   27  N           1     -20.278  -6.404  -7.222  0.00  0.00    -0.066 N 
HETATM   28  H           1     -21.212  -6.545  -7.669  0.00  0.00     0.275 HD
HETATM   29  H           1     -19.889  -7.329  -6.929  0.00  0.00     0.275 HD
HETATM   30  H           1     -19.628  -5.956  -7.908  0.00  0.00     0.275 HD
ENDBRANCH   1  27
TORSDOF 11
ENDMDL
MODEL 7
REMARK VINA RESULT:      -6.9      2.154      3.393
REMARK  11 active torsions:
REMARK  status: ('A' for Active; 'I' for Inactive)
REMARK    1  A    between atoms: C_5  and  O_6 
REMARK    2  A    between atoms: C_5  and  C_7 
REMARK    3  A    between atoms: C_7  and  C_8 
REMARK    4  A    between atoms: C_7  and  N_11 
REMARK       I    between atoms: N_11  and  C_12 
REMARK    5  A    between atoms: C_12  and  C_13 
REMARK    6  A    between atoms: C_13  and  C_14 
REMARK    7  A    between atoms: C_13  and  N_26 
REMARK    8  A    between atoms: C_14  and  C_15 
REMARK    9  A    between atoms: C_18  and  O_19 
REMARK   10  A    between atoms: O_19  and  P_20 
REMARK   11  A    between atoms: P_20  and  O_21 
ROOT
HETATM    1  C           1     -20.451  -7.430  -5.378  0.00  0.00     0.278 C 
ENDROOT
BRANCH   1   2
HETATM    2  C           1     -20.199  -8.109  -4.054  0.00  0.00     0.249 C 
HETATM    3  N           1     -21.146  -8.055  -3.067  0.00  0.00    -0.343 N 
HETATM    4  H           1     -22.014  -7.560  -3.225  0.00  0.00     0.163 HD
HETATM    5  O           1     -19.162  -8.699  -3.865  0.00  0.00    -0.271 OA
BRANCH   3   6
HETATM    6  C           1     -20.905  -8.708  -1.794  0.00  0.00     0.214 C 
BRANCH   6   7
HETATM    7  C           1     -21.605  -7.933  -0.686  0.00  0.00     0.147 C 
HETATM    8  C           1     -22.266  -6.692  -1.272  0.00  0.00     0.042 C 
BRANCH   7   9
HETATM    9  O           1     -22.582  -8.745  -0.093  0.00  0.00    -0.393 OA
HETATM   10  H           1     -22.895  -9.330  -0.763  0.00  0.00     0.210 HD
ENDBRANCH   7   9
ENDBRANCH   6   7
BRANCH   6  11
HETATM   11  C           1     -21.444 -10.116  -1.841  0.00  0.00     0.199 C 
HETATM   12  O           1     -22.409 -10.391  -2.587  0.00  0.00    -0.646 OA
HETATM   13  O           1     -20.927 -11.008  -1.134  0.00  0.00    -0.646 OA
ENDBRANCH   6  11
ENDBRANCH   3   6
ENDBRANCH   1   2
BRANCH   1  14
HETATM   14  C           1     -21.040  -6.046  -5.137  0.00  0.00     0.081 C 
BRANCH  14  15
HETATM   15  C           1     -21.309  -5.381  -6.450  0.00  0.00    -0.056 A 
HETATM   16  C           1     -22.538  -4.765  -6.682  0.00  0.00     0.010 A 
HETATM   17  C           1     -22.789  -4.145  -7.906  0.00  0.00     0.038 A 
HETATM   18  C           1     -21.809  -4.142  -8.899  0.00  0.00     0.081 A 
HETATM   19  C           1     -20.579  -4.757  -8.668  0.00  0.00     0.038 A 
HETATM   20  C           1     -20.329  -5.377  -7.443  0.00  0.00     0.010 A 
BRANCH  18  21
HETATM   21  O           1     -22.052  -3.539 -10.088  0.00  0.00    -0.247 OA
BRANCH  21  22
HETATM   22  P           1     -23.399  -3.946 -10.882  0.00  0.00     0.411 P 
HETATM   23  O           1     -23.197  -3.736 -12.333  0.00  0.00    -0.624 OA
HETATM   24  O           1     -23.711  -5.371 -10.627  0.00  0.00    -0.624 OA
BRANCH  22  25
HETATM   25  O           1     -24.625  -3.027 -10.371  0.00  0.00    -0.300 OA
HETATM   26  H           1     -24.711  -2.352 -11.022  0.00  0.00     0.223 HD
ENDBRANCH  22  25
ENDBRANCH  21  22
ENDBRANCH  18  21
ENDBRANCH  14  15
ENDBRANCH   1  14
BRANCH   1  27
HETATM   27  N           1     -21.413  -8.248  -6.185  0.00  0.00    -0.066 N 
HETATM   28  H           1     -21.260  -9.263  -5.986  0.00  0.00     0.275 HD
HETATM   29  H           1     -21.259  -8.066  -7.202  0.00  0.00     0.275 HD
HETATM   30  H           1     -22.393  -7.988  -5.929  0.00  0.00     0.275 HD
ENDBRANCH   1  27
TORSDOF 11
ENDMDL
MODEL 8
REMARK VINA RESULT:      -6.8      2.035      2.821
REMARK  11 active torsions:
REMARK  status: ('A' for Active; 'I' for Inactive)
REMARK    1  A    between atoms: C_5  and  O_6 
REMARK    2  A    between atoms: C_5  and  C_7 
REMARK    3  A    between atoms: C_7  and  C_8 
REMARK    4  A    between atoms: C_7  and  N_11 
REMARK       I    between atoms: N_11  and  C_12 
REMARK    5  A    between atoms: C_12  and  C_13 
REMARK    6  A    between atoms: C_13  and  C_14 
REMARK    7  A    between atoms: C_13  and  N_26 
REMARK    8  A    between atoms: C_14  and  C_15 
REMARK    9  A    between atoms: C_18  and  O_19 
REMARK   10  A    between atoms: O_19  and  P_20 
REMARK   11  A    between atoms: P_20  and  O_21 
ROOT
HETATM    1  C           1     -21.557  -6.909  -5.534  0.00  0.00     0.278 C 
ENDROOT
BRANCH   1   2
HETATM    2  C           1     -20.912  -8.076  -4.828  0.00  0.00     0.249 C 
HETATM    3  N           1     -20.008  -8.862  -5.490  0.00  0.00    -0.343 N 
HETATM    4  H           1     -19.773  -8.661  -6.453  0.00  0.00     0.163 HD
HETATM    5  O           1     -21.193  -8.316  -3.677  0.00  0.00    -0.271 OA
BRANCH   3   6
HETATM    6  C           1     -19.388  -9.984  -4.811  0.00  0.00     0.214 C 
BRANCH   6   7
HETATM    7  C           1     -19.391 -11.198  -5.730  0.00  0.00     0.147 C 
HETATM    8  C           1     -20.821 -11.688  -5.919  0.00  0.00     0.042 C 
BRANCH   7   9
HETATM    9  O           1     -18.851 -10.845  -6.974  0.00  0.00    -0.393 OA
HETATM   10  H           1     -19.539 -10.947  -7.610  0.00  0.00     0.210 HD
ENDBRANCH   7   9
ENDBRANCH   6   7
BRANCH   6  11
HETATM   11  C           1     -17.966  -9.630  -4.452  0.00  0.00     0.199 C 
HETATM   12  O           1     -17.061  -9.733  -5.309  0.00  0.00    -0.646 OA
HETATM   13  O           1     -17.691  -9.234  -3.298  0.00  0.00    -0.646 OA
ENDBRANCH   6  11
ENDBRANCH   3   6
ENDBRANCH   1   2
BRANCH   1  14
HETATM   14  C           1     -20.485  -5.914  -5.957  0.00  0.00     0.081 C 
BRANCH  14  15
HETATM   15  C           1     -20.926  -5.200  -7.197  0.00  0.00    -0.056 A 
HETATM   16  C           1     -20.140  -5.248  -8.347  0.00  0.00     0.010 A 
HETATM   17  C           1     -20.552  -4.584  -9.503  0.00  0.00     0.038 A 
HETATM   18  C           1     -21.751  -3.871  -9.507  0.00  0.00     0.081 A 
HETATM   19  C           1     -22.539  -3.824  -8.356  0.00  0.00     0.038 A 
HETATM   20  C           1     -22.126  -4.489  -7.201  0.00  0.00     0.010 A 
BRANCH  18  21
HETATM   21  O           1     -22.152  -3.226 -10.629  0.00  0.00    -0.247 OA
BRANCH  21  22
HETATM   22  P           1     -23.507  -3.729 -11.350  0.00  0.00     0.411 P 
HETATM   23  O           1     -24.661  -2.982 -10.804  0.00  0.00    -0.624 OA
HETATM   24  O           1     -23.408  -3.491 -12.808  0.00  0.00    -0.624 OA
BRANCH  22  25
HETATM   25  O           1     -23.709  -5.308 -11.076  0.00  0.00    -0.300 OA
HETATM   26  H           1     -22.869  -5.614 -10.781  0.00  0.00     0.223 HD
ENDBRANCH  22  25
ENDBRANCH  21  22
ENDBRANCH  18  21
ENDBRANCH  14  15
ENDBRANCH   1  14
BRANCH   1  27
HETATM   27  N           1     -22.525  -6.237  -4.607  0.00  0.00    -0.066 N 
HETATM   28  H           1     -22.375  -6.586  -3.634  0.00  0.00     0.275 HD
HETATM   29  H           1     -23.502  -6.451  -4.908  0.00  0.00     0.275 HD
HETATM   30  H           1     -22.372  -5.203  -4.632  0.00  0.00     0.275 HD
ENDBRANCH   1  27
TORSDOF 11
ENDMDL
MODEL 9
REMARK VINA RESULT:      -6.3      3.103      8.435
REMARK  11 active torsions:
REMARK  status: ('A' for Active; 'I' for Inactive)
REMARK    1  A    between atoms: C_5  and  O_6 
REMARK    2  A    between atoms: C_5  and  C_7 
REMARK    3  A    between atoms: C_7  and  C_8 
REMARK    4  A    between atoms: C_7  and  N_11 
REMARK       I    between atoms: N_11  and  C_12 
REMARK    5  A    between atoms: C_12  and  C_13 
REMARK    6  A    between atoms: C_13  and  C_14 
REMARK    7  A    between atoms: C_13  and  N_26 
REMARK    8  A    between atoms: C_14  and  C_15 
REMARK    9  A    between atoms: C_18  and  O_19 
REMARK   10  A    between atoms: O_19  and  P_20 
REMARK   11  A    between atoms: P_20  and  O_21 
ROOT
HETATM    1  C           1     -20.401  -3.601  -8.170  0.00  0.00     0.278 C 
ENDROOT
BRANCH   1   2
HETATM    2  C           1     -20.874  -4.078  -9.521  0.00  0.00     0.249 C 
HETATM    3  N           1     -22.076  -3.651 -10.017  0.00  0.00    -0.343 N 
HETATM    4  H           1     -22.648  -3.015  -9.476  0.00  0.00     0.163 HD
HETATM    5  O           1     -20.191  -4.839 -10.167  0.00  0.00    -0.271 OA
BRANCH   3   6
HETATM    6  C           1     -22.530  -4.110 -11.315  0.00  0.00     0.214 C 
BRANCH   6   7
HETATM    7  C           1     -24.001  -4.497 -11.231  0.00  0.00     0.147 C 
HETATM    8  C           1     -24.396  -4.679  -9.771  0.00  0.00     0.042 C 
BRANCH   7   9
HETATM    9  O           1     -24.784  -3.485 -11.803  0.00  0.00    -0.393 OA
HETATM   10  H           1     -25.337  -3.146 -11.119  0.00  0.00     0.210 HD
ENDBRANCH   7   9
ENDBRANCH   6   7
BRANCH   6  11
HETATM   11  C           1     -22.360  -3.004 -12.327  0.00  0.00     0.199 C 
HETATM   12  O           1     -22.438  -3.258 -13.549  0.00  0.00    -0.646 OA
HETATM   13  O           1     -22.140  -1.835 -11.945  0.00  0.00    -0.646 OA
ENDBRANCH   6  11
ENDBRANCH   3   6
ENDBRANCH   1   2
BRANCH   1  14
HETATM   14  C           1     -19.436  -4.621  -7.579  0.00  0.00     0.081 C 
BRANCH  14  15
HETATM   15  C           1     -20.113  -5.363  -6.469  0.00  0.00    -0.056 A 
HETATM   16  C           1     -20.761  -6.569  -6.729  0.00  0.00     0.010 A 
HETATM   17  C           1     -21.391  -7.261  -5.694  0.00  0.00     0.038 A 
HETATM   18  C           1     -21.371  -6.745  -4.398  0.00  0.00     0.081 A 
HETATM   19  C           1     -20.721  -5.538  -4.137  0.00  0.00     0.038 A 
HETATM   20  C           1     -20.092  -4.847  -5.173  0.00  0.00     0.010 A 
BRANCH  18  21
HETATM   21  O           1     -21.982  -7.417  -3.393  0.00  0.00    -0.247 OA
BRANCH  21  22
HETATM   22  P           1     -21.254  -8.735  -2.809  0.00  0.00     0.411 P 
HETATM   23  O           1     -21.445  -8.796  -1.344  0.00  0.00    -0.624 OA
HETATM   24  O           1     -21.841  -9.942  -3.435  0.00  0.00    -0.624 OA
BRANCH  22  25
HETATM   25  O           1     -19.675  -8.672  -3.144  0.00  0.00    -0.300 OA
HETATM   26  H           1     -19.401  -7.816  -2.862  0.00  0.00     0.223 HD
ENDBRANCH  22  25
ENDBRANCH  21  22
ENDBRANCH  18  21
ENDBRANCH  14  15
ENDBRANCH   1  14
BRANCH   1  27
HETATM   27  N           1     -21.579  -3.440  -7.257  0.00  0.00    -0.066 N 
HETATM   28  H           1     -22.458  -3.650  -7.782  0.00  0.00     0.275 HD
HETATM   29  H           1     -21.613  -2.459  -6.901  0.00  0.00     0.275 HD
HETATM   30  H           1     -21.490  -4.100  -6.452  0.00  0.00     0.275 HD
ENDBRANCH   1  27
TORSDOF 11
ENDMDL
